MODEL 1
REMARK VINA RESULT:    -8.038      0.000      0.000
REMARK INTER + INTRA:         -11.362
REMARK INTER:                 -10.126
REMARK INTRA:                  -1.236
REMARK CONF_INDEPENDENT:        2.088
REMARK UNBOUND:                -1.236
REMARK  7 active torsions:
REMARK  status: ('A' for Active; 'I' for Inactive)
REMARK    1  A    between atoms: C_5  and  C_4 
REMARK    2  A    between atoms: C_6  and  C_7 
REMARK       I    between atoms: C_7  and  N_9 
REMARK    3  A    between atoms: N_9  and  C_10 
REMARK    4  A    between atoms: C_11  and  C_10 
REMARK    5  A    between atoms: C_11  and  C_13 
REMARK    6  A    between atoms: C_11  and  O_12 
REMARK    7  A    between atoms: C_16  and  N_17 
ROOT
ATOM      1  C   UNL d   1      26.079 -14.812  -2.767  0.00  0.00     0.223 C 
ATOM      2  O   UNL d   1      25.221 -14.136  -2.184  0.00  0.00    -0.273 OA
ATOM      3  N   UNL d   1      26.891 -15.765  -2.091  0.00  0.00    -0.358 N 
ATOM      4  H   UNL d   1      27.451 -16.430  -2.612  0.00  0.00     0.162 HD
ENDROOT
BRANCH   3   5
ATOM      5  C   UNL d   1      26.467 -15.990  -0.724  0.00  0.00     0.159 C 
BRANCH   5   6
ATOM      6  C   UNL d   1      26.046 -17.257   0.084  0.00  0.00     0.169 C 
BRANCH   6   7
ATOM      7  C   UNL d   1      24.544 -17.622  -0.128  0.00  0.00    -0.028 C 
ATOM      8  C   UNL d   1      24.079 -18.962  -0.166  0.00  0.00     0.012 C 
ATOM      9  C   UNL d   1      22.809 -19.312  -0.592  0.00  0.00     0.037 C 
ATOM     10  C   UNL d   1      21.884 -18.308  -0.804  0.00  0.00     0.102 C 
ATOM     11  C   UNL d   1      22.257 -16.961  -0.680  0.00  0.00     0.037 C 
ATOM     12  C   UNL d   1      23.586 -16.622  -0.358  0.00  0.00     0.012 C 
BRANCH  10  13
ATOM     13  N   UNL d   1      20.497 -18.695  -1.064  0.00  0.00    -0.116 N 
ATOM     14  O   UNL d   1      20.280 -19.866  -1.411  0.00  0.00    -0.532 OA
ATOM     15  O   UNL d   1      19.621 -17.838  -0.896  0.00  0.00    -0.532 OA
ENDBRANCH  10  13
ENDBRANCH   6   7
BRANCH   6  16
ATOM     16  O   UNL d   1      26.822 -18.366  -0.400  0.00  0.00    -0.389 OA
ATOM     17  H   UNL d   1      27.748 -18.206  -0.135  0.00  0.00     0.210 HD
ENDBRANCH   6  16
ENDBRANCH   5   6
ENDBRANCH   3   5
BRANCH   1  18
ATOM     18  C   UNL d   1      26.278 -14.633  -4.216  0.00  0.00     0.094 A 
ATOM     19  C   UNL d   1      26.211 -13.325  -4.985  0.00  0.00     0.030 A 
ATOM     20  C   UNL d   1      27.554 -14.002  -4.769  0.00  0.00    -0.027 A 
ATOM     21  C   UNL d   1      28.186 -14.649  -5.978  0.00  0.00     0.016 C 
ATOM     22  C   UNL d   1      28.573 -13.470  -3.790  0.00  0.00     0.016 C 
BRANCH  19  23
ATOM     23  C   UNL d   1      25.932 -11.942  -4.526  0.00  0.00    -0.019 C 
ATOM     24  C   UNL d   1      25.946 -10.866  -5.358  0.00  0.00    -0.091 C 
ATOM     25  C   UNL d   1      26.394 -11.012  -6.792  0.00  0.00     0.042 C 
ATOM     26  C   UNL d   1      25.469  -9.490  -4.957  0.00  0.00     0.042 C 
ENDBRANCH  19  23
ENDBRANCH   1  18
TORSDOF 7
ENDMDL
MODEL 2
REMARK VINA RESULT:    -7.831      4.598      7.563
REMARK INTER + INTRA:         -11.031
REMARK INTER:                  -9.919
REMARK INTRA:                  -1.112
REMARK CONF_INDEPENDENT:        2.088
REMARK UNBOUND:                -1.112
REMARK  7 active torsions:
REMARK  status: ('A' for Active; 'I' for Inactive)
REMARK    1  A    between atoms: C_5  and  C_4 
REMARK    2  A    between atoms: C_6  and  C_7 
REMARK       I    between atoms: C_7  and  N_9 
REMARK    3  A    between atoms: N_9  and  C_10 
REMARK    4  A    between atoms: C_11  and  C_10 
REMARK    5  A    between atoms: C_11  and  C_13 
REMARK    6  A    between atoms: C_11  and  O_12 
REMARK    7  A    between atoms: C_16  and  N_17 
ROOT
ATOM      1  C   UNL d   1      26.828 -15.434  -0.222  0.00  0.00     0.223 C 
ATOM      2  O   UNL d   1      25.827 -14.827   0.179  0.00  0.00    -0.273 OA
ATOM      3  N   UNL d   1      27.987 -15.616   0.585  0.00  0.00    -0.358 N 
ATOM      4  H   UNL d   1      28.713 -16.266   0.307  0.00  0.00     0.162 HD
ENDROOT
BRANCH   3   5
ATOM      5  C   UNL d   1      27.782 -15.199   1.957  0.00  0.00     0.159 C 
BRANCH   5   6
ATOM      6  C   UNL d   1      28.520 -14.209   2.909  0.00  0.00     0.169 C 
BRANCH   6   7
ATOM      7  C   UNL d   1      27.835 -12.808   2.955  0.00  0.00    -0.028 C 
ATOM      8  C   UNL d   1      26.927 -12.365   1.959  0.00  0.00     0.012 C 
ATOM      9  C   UNL d   1      26.503 -11.052   1.850  0.00  0.00     0.037 C 
ATOM     10  C   UNL d   1      26.815 -10.171   2.867  0.00  0.00     0.102 C 
ATOM     11  C   UNL d   1      27.625 -10.580   3.937  0.00  0.00     0.037 C 
ATOM     12  C   UNL d   1      28.144 -11.890   3.971  0.00  0.00     0.012 C 
BRANCH  10  13
ATOM     13  N   UNL d   1      26.201  -8.843   2.840  0.00  0.00    -0.116 N 
ATOM     14  O   UNL d   1      25.244  -8.665   2.069  0.00  0.00    -0.532 OA
ATOM     15  O   UNL d   1      26.655  -7.985   3.605  0.00  0.00    -0.532 OA
ENDBRANCH  10  13
ENDBRANCH   6   7
BRANCH   6  16
ATOM     16  O   UNL d   1      28.462 -14.750   4.240  0.00  0.00    -0.389 OA
ATOM     17  H   UNL d   1      28.998 -15.566   4.241  0.00  0.00     0.210 HD
ENDBRANCH   6  16
ENDBRANCH   5   6
ENDBRANCH   3   5
BRANCH   1  18
ATOM     18  C   UNL d   1      26.836 -15.994  -1.585  0.00  0.00     0.094 A 
ATOM     19  C   UNL d   1      25.667 -16.645  -2.304  0.00  0.00     0.030 A 
ATOM     20  C   UNL d   1      26.148 -15.273  -2.743  0.00  0.00    -0.027 A 
ATOM     21  C   UNL d   1      26.884 -15.205  -4.059  0.00  0.00     0.016 C 
ATOM     22  C   UNL d   1      25.369 -14.014  -2.442  0.00  0.00     0.016 C 
BRANCH  19  23
ATOM     23  C   UNL d   1      24.273 -16.897  -1.860  0.00  0.00    -0.019 C 
ATOM     24  C   UNL d   1      23.962 -17.714  -0.817  0.00  0.00    -0.091 C 
ATOM     25  C   UNL d   1      25.033 -18.530  -0.137  0.00  0.00     0.042 C 
ATOM     26  C   UNL d   1      22.577 -17.824  -0.225  0.00  0.00     0.042 C 
ENDBRANCH  19  23
ENDBRANCH   1  18
TORSDOF 7
ENDMDL
MODEL 3
REMARK VINA RESULT:    -7.792      1.675      2.383
REMARK INTER + INTRA:         -10.994
REMARK INTER:                  -9.880
REMARK INTRA:                  -1.113
REMARK CONF_INDEPENDENT:        2.088
REMARK UNBOUND:                -1.113
REMARK  7 active torsions:
REMARK  status: ('A' for Active; 'I' for Inactive)
REMARK    1  A    between atoms: C_5  and  C_4 
REMARK    2  A    between atoms: C_6  and  C_7 
REMARK       I    between atoms: C_7  and  N_9 
REMARK    3  A    between atoms: N_9  and  C_10 
REMARK    4  A    between atoms: C_11  and  C_10 
REMARK    5  A    between atoms: C_11  and  C_13 
REMARK    6  A    between atoms: C_11  and  O_12 
REMARK    7  A    between atoms: C_16  and  N_17 
ROOT
ATOM      1  C   UNL d   1      25.573 -14.194  -3.475  0.00  0.00     0.223 C 
ATOM      2  O   UNL d   1      25.446 -15.192  -4.195  0.00  0.00    -0.273 OA
ATOM      3  N   UNL d   1      25.939 -14.281  -2.102  0.00  0.00    -0.358 N 
ATOM      4  H   UNL d   1      26.215 -13.453  -1.587  0.00  0.00     0.162 HD
ENDROOT
BRANCH   3   5
ATOM      5  C   UNL d   1      26.334 -15.620  -1.715  0.00  0.00     0.159 C 
BRANCH   5   6
ATOM      6  C   UNL d   1      25.897 -16.589  -0.573  0.00  0.00     0.169 C 
BRANCH   6   7
ATOM      7  C   UNL d   1      24.460 -17.154  -0.792  0.00  0.00    -0.028 C 
ATOM      8  C   UNL d   1      23.320 -16.321  -0.923  0.00  0.00     0.012 C 
ATOM      9  C   UNL d   1      22.022 -16.798  -0.871  0.00  0.00     0.037 C 
ATOM     10  C   UNL d   1      21.819 -18.164  -0.892  0.00  0.00     0.102 C 
ATOM     11  C   UNL d   1      22.912 -19.044  -0.869  0.00  0.00     0.037 C 
ATOM     12  C   UNL d   1      24.226 -18.538  -0.804  0.00  0.00     0.012 C 
BRANCH  10  13
ATOM     13  N   UNL d   1      20.448 -18.655  -1.034  0.00  0.00    -0.116 N 
ATOM     14  O   UNL d   1      20.288 -19.865  -1.258  0.00  0.00    -0.532 OA
ATOM     15  O   UNL d   1      19.530 -17.839  -0.895  0.00  0.00    -0.532 OA
ENDBRANCH  10  13
ENDBRANCH   6   7
BRANCH   6  16
ATOM     16  O   UNL d   1      26.797 -17.712  -0.580  0.00  0.00    -0.389 OA
ATOM     17  H   UNL d   1      27.689 -17.366  -0.386  0.00  0.00     0.210 HD
ENDBRANCH   6  16
ENDBRANCH   5   6
ENDBRANCH   3   5
BRANCH   1  18
ATOM     18  C   UNL d   1      25.338 -12.856  -4.047  0.00  0.00     0.094 A 
ATOM     19  C   UNL d   1      25.938 -11.547  -3.566  0.00  0.00     0.030 A 
ATOM     20  C   UNL d   1      26.407 -12.150  -4.879  0.00  0.00    -0.027 A 
ATOM     21  C   UNL d   1      25.962 -11.451  -6.140  0.00  0.00     0.016 C 
ATOM     22  C   UNL d   1      27.757 -12.812  -5.022  0.00  0.00     0.016 C 
BRANCH  19  23
ATOM     23  C   UNL d   1      26.867 -11.258  -2.444  0.00  0.00    -0.019 C 
ATOM     24  C   UNL d   1      26.976 -10.031  -1.867  0.00  0.00    -0.091 C 
ATOM     25  C   UNL d   1      26.245  -8.844  -2.447  0.00  0.00     0.042 C 
ATOM     26  C   UNL d   1      27.758  -9.766  -0.603  0.00  0.00     0.042 C 
ENDBRANCH  19  23
ENDBRANCH   1  18
TORSDOF 7
ENDMDL
MODEL 4
REMARK VINA RESULT:    -7.786      4.563      7.548
REMARK INTER + INTRA:         -10.916
REMARK INTER:                  -9.874
REMARK INTRA:                  -1.042
REMARK CONF_INDEPENDENT:        2.088
REMARK UNBOUND:                -1.042
REMARK  7 active torsions:
REMARK  status: ('A' for Active; 'I' for Inactive)
REMARK    1  A    between atoms: C_5  and  C_4 
REMARK    2  A    between atoms: C_6  and  C_7 
REMARK       I    between atoms: C_7  and  N_9 
REMARK    3  A    between atoms: N_9  and  C_10 
REMARK    4  A    between atoms: C_11  and  C_10 
REMARK    5  A    between atoms: C_11  and  C_13 
REMARK    6  A    between atoms: C_11  and  O_12 
REMARK    7  A    between atoms: C_16  and  N_17 
ROOT
ATOM      1  C   UNL d   1      26.851 -15.312  -0.421  0.00  0.00     0.223 C 
ATOM      2  O   UNL d   1      25.908 -14.604  -0.046  0.00  0.00    -0.273 OA
ATOM      3  N   UNL d   1      27.985 -15.572   0.398  0.00  0.00    -0.358 N 
ATOM      4  H   UNL d   1      28.650 -16.295   0.146  0.00  0.00     0.162 HD
ENDROOT
BRANCH   3   5
ATOM      5  C   UNL d   1      27.816 -15.094   1.755  0.00  0.00     0.159 C 
BRANCH   5   6
ATOM      6  C   UNL d   1      28.627 -14.127   2.671  0.00  0.00     0.169 C 
BRANCH   6   7
ATOM      7  C   UNL d   1      28.045 -12.679   2.666  0.00  0.00    -0.028 C 
ATOM      8  C   UNL d   1      28.088 -11.831   3.802  0.00  0.00     0.012 C 
ATOM      9  C   UNL d   1      27.370 -10.652   3.896  0.00  0.00     0.037 C 
ATOM     10  C   UNL d   1      26.738 -10.172   2.765  0.00  0.00     0.102 C 
ATOM     11  C   UNL d   1      26.748 -10.918   1.576  0.00  0.00     0.037 C 
ATOM     12  C   UNL d   1      27.387 -12.173   1.534  0.00  0.00     0.012 C 
BRANCH  10  13
ATOM     13  N   UNL d   1      26.148  -8.834   2.822  0.00  0.00    -0.116 N 
ATOM     14  O   UNL d   1      25.158  -8.609   2.108  0.00  0.00    -0.532 OA
ATOM     15  O   UNL d   1      26.655  -8.016   3.598  0.00  0.00    -0.532 OA
ENDBRANCH  10  13
ENDBRANCH   6   7
BRANCH   6  16
ATOM     16  O   UNL d   1      28.532 -14.614   4.020  0.00  0.00    -0.389 OA
ATOM     17  H   UNL d   1      28.589 -15.588   3.978  0.00  0.00     0.210 HD
ENDBRANCH   6  16
ENDBRANCH   5   6
ENDBRANCH   3   5
BRANCH   1  18
ATOM     18  C   UNL d   1      26.811 -15.915  -1.765  0.00  0.00     0.094 A 
ATOM     19  C   UNL d   1      25.649 -16.671  -2.385  0.00  0.00     0.030 A 
ATOM     20  C   UNL d   1      25.999 -15.283  -2.894  0.00  0.00    -0.027 A 
ATOM     21  C   UNL d   1      26.642 -15.206  -4.258  0.00  0.00     0.016 C 
ATOM     22  C   UNL d   1      25.151 -14.074  -2.578  0.00  0.00     0.016 C 
BRANCH  19  23
ATOM     23  C   UNL d   1      24.309 -17.007  -1.843  0.00  0.00    -0.019 C 
ATOM     24  C   UNL d   1      24.127 -17.641  -0.653  0.00  0.00    -0.091 C 
ATOM     25  C   UNL d   1      25.309 -18.171   0.121  0.00  0.00     0.042 C 
ATOM     26  C   UNL d   1      22.780 -17.810   0.009  0.00  0.00     0.042 C 
ENDBRANCH  19  23
ENDBRANCH   1  18
TORSDOF 7
ENDMDL
MODEL 5
REMARK VINA RESULT:    -7.710      4.737      7.372
REMARK INTER + INTRA:         -11.063
REMARK INTER:                  -9.798
REMARK INTRA:                  -1.266
REMARK CONF_INDEPENDENT:        2.088
REMARK UNBOUND:                -1.266
REMARK  7 active torsions:
REMARK  status: ('A' for Active; 'I' for Inactive)
REMARK    1  A    between atoms: C_5  and  C_4 
REMARK    2  A    between atoms: C_6  and  C_7 
REMARK       I    between atoms: C_7  and  N_9 
REMARK    3  A    between atoms: N_9  and  C_10 
REMARK    4  A    between atoms: C_11  and  C_10 
REMARK    5  A    between atoms: C_11  and  C_13 
REMARK    6  A    between atoms: C_11  and  O_12 
REMARK    7  A    between atoms: C_16  and  N_17 
ROOT
ATOM      1  C   UNL d   1      26.713 -14.913   0.116  0.00  0.00     0.223 C 
ATOM      2  O   UNL d   1      27.111 -13.888  -0.452  0.00  0.00    -0.273 OA
ATOM      3  N   UNL d   1      27.421 -15.516   1.193  0.00  0.00    -0.358 N 
ATOM      4  H   UNL d   1      26.989 -16.239   1.757  0.00  0.00     0.162 HD
ENDROOT
BRANCH   3   5
ATOM      5  C   UNL d   1      28.519 -14.697   1.666  0.00  0.00     0.159 C 
BRANCH   5   6
ATOM      6  C   UNL d   1      28.785 -13.898   2.978  0.00  0.00     0.169 C 
BRANCH   6   7
ATOM      7  C   UNL d   1      28.027 -12.535   3.007  0.00  0.00    -0.028 C 
ATOM      8  C   UNL d   1      27.137 -12.130   1.979  0.00  0.00     0.012 C 
ATOM      9  C   UNL d   1      26.650 -10.840   1.862  0.00  0.00     0.037 C 
ATOM     10  C   UNL d   1      26.876  -9.953   2.896  0.00  0.00     0.102 C 
ATOM     11  C   UNL d   1      27.664 -10.329   3.994  0.00  0.00     0.037 C 
ATOM     12  C   UNL d   1      28.248 -11.611   4.040  0.00  0.00     0.012 C 
BRANCH  10  13
ATOM     13  N   UNL d   1      26.195  -8.658   2.853  0.00  0.00    -0.116 N 
ATOM     14  O   UNL d   1      26.655  -7.740   3.551  0.00  0.00    -0.532 OA
ATOM     15  O   UNL d   1      25.219  -8.548   2.102  0.00  0.00    -0.532 OA
ENDBRANCH  10  13
ENDBRANCH   6   7
BRANCH   6  16
ATOM     16  O   UNL d   1      28.289 -14.679   4.079  0.00  0.00    -0.389 OA
ATOM     17  H   UNL d   1      28.545 -15.606   3.911  0.00  0.00     0.210 HD
ENDBRANCH   6  16
ENDBRANCH   5   6
ENDBRANCH   3   5
BRANCH   1  18
ATOM     18  C   UNL d   1      25.459 -15.546  -0.331  0.00  0.00     0.094 A 
ATOM     19  C   UNL d   1      25.129 -16.007  -1.740  0.00  0.00     0.030 A 
ATOM     20  C   UNL d   1      25.395 -17.037  -0.656  0.00  0.00    -0.027 A 
ATOM     21  C   UNL d   1      24.200 -17.810  -0.151  0.00  0.00     0.016 C 
ATOM     22  C   UNL d   1      26.674 -17.838  -0.604  0.00  0.00     0.016 C 
BRANCH  19  23
ATOM     23  C   UNL d   1      25.922 -15.945  -2.993  0.00  0.00    -0.019 C 
ATOM     24  C   UNL d   1      25.848 -14.906  -3.868  0.00  0.00    -0.091 C 
ATOM     25  C   UNL d   1      24.829 -13.811  -3.673  0.00  0.00     0.042 C 
ATOM     26  C   UNL d   1      26.788 -14.727  -5.037  0.00  0.00     0.042 C 
ENDBRANCH  19  23
ENDBRANCH   1  18
TORSDOF 7
ENDMDL
MODEL 6
REMARK VINA RESULT:    -7.542      2.360      3.847
REMARK INTER + INTRA:         -11.356
REMARK INTER:                  -9.630
REMARK INTRA:                  -1.725
REMARK CONF_INDEPENDENT:        2.088
REMARK UNBOUND:                -1.725
REMARK  7 active torsions:
REMARK  status: ('A' for Active; 'I' for Inactive)
REMARK    1  A    between atoms: C_5  and  C_4 
REMARK    2  A    between atoms: C_6  and  C_7 
REMARK       I    between atoms: C_7  and  N_9 
REMARK    3  A    between atoms: N_9  and  C_10 
REMARK    4  A    between atoms: C_11  and  C_10 
REMARK    5  A    between atoms: C_11  and  C_13 
REMARK    6  A    between atoms: C_11  and  O_12 
REMARK    7  A    between atoms: C_16  and  N_17 
ROOT
ATOM      1  C   UNL d   1      25.657 -16.793  -1.369  0.00  0.00     0.223 C 
ATOM      2  O   UNL d   1      24.754 -16.151  -1.920  0.00  0.00    -0.273 OA
ATOM      3  N   UNL d   1      25.413 -18.000  -0.654  0.00  0.00    -0.358 N 
ATOM      4  H   UNL d   1      26.180 -18.598  -0.373  0.00  0.00     0.162 HD
ENDROOT
BRANCH   3   5
ATOM      5  C   UNL d   1      24.056 -18.480  -0.819  0.00  0.00     0.159 C 
BRANCH   5   6
ATOM      6  C   UNL d   1      22.670 -17.780  -0.961  0.00  0.00     0.169 C 
BRANCH   6   7
ATOM      7  C   UNL d   1      21.501 -18.663  -0.425  0.00  0.00    -0.028 C 
ATOM      8  C   UNL d   1      20.472 -19.164  -1.262  0.00  0.00     0.012 C 
ATOM      9  C   UNL d   1      19.309 -19.735  -0.776  0.00  0.00     0.037 C 
ATOM     10  C   UNL d   1      19.225 -20.013   0.575  0.00  0.00     0.102 C 
ATOM     11  C   UNL d   1      20.261 -19.636   1.443  0.00  0.00     0.037 C 
ATOM     12  C   UNL d   1      21.387 -18.950   0.945  0.00  0.00     0.012 C 
BRANCH  10  13
ATOM     13  N   UNL d   1      18.079 -20.791   1.047  0.00  0.00    -0.116 N 
ATOM     14  O   UNL d   1      17.592 -20.490   2.149  0.00  0.00    -0.532 OA
ATOM     15  O   UNL d   1      17.646 -21.682   0.308  0.00  0.00    -0.532 OA
ENDBRANCH  10  13
ENDBRANCH   6   7
BRANCH   6  16
ATOM     16  O   UNL d   1      22.696 -16.585  -0.160  0.00  0.00    -0.389 OA
ATOM     17  H   UNL d   1      23.171 -15.905  -0.674  0.00  0.00     0.210 HD
ENDBRANCH   6  16
ENDBRANCH   5   6
ENDBRANCH   3   5
BRANCH   1  18
ATOM     18  C   UNL d   1      27.044 -16.300  -1.446  0.00  0.00     0.094 A 
ATOM     19  C   UNL d   1      27.503 -14.973  -2.023  0.00  0.00     0.030 A 
ATOM     20  C   UNL d   1      27.545 -15.193  -0.521  0.00  0.00    -0.027 A 
ATOM     21  C   UNL d   1      28.911 -15.366   0.098  0.00  0.00     0.016 C 
ATOM     22  C   UNL d   1      26.557 -14.539   0.415  0.00  0.00     0.016 C 
BRANCH  19  23
ATOM     23  C   UNL d   1      26.734 -13.866  -2.645  0.00  0.00    -0.019 C 
ATOM     24  C   UNL d   1      26.110 -13.980  -3.850  0.00  0.00    -0.091 C 
ATOM     25  C   UNL d   1      26.294 -15.218  -4.693  0.00  0.00     0.042 C 
ATOM     26  C   UNL d   1      25.160 -12.945  -4.403  0.00  0.00     0.042 C 
ENDBRANCH  19  23
ENDBRANCH   1  18
TORSDOF 7
ENDMDL
MODEL 7
REMARK VINA RESULT:    -7.494      1.406      2.951
REMARK INTER + INTRA:         -11.489
REMARK INTER:                  -9.582
REMARK INTRA:                  -1.907
REMARK CONF_INDEPENDENT:        2.088
REMARK UNBOUND:                -1.907
REMARK  7 active torsions:
REMARK  status: ('A' for Active; 'I' for Inactive)
REMARK    1  A    between atoms: C_5  and  C_4 
REMARK    2  A    between atoms: C_6  and  C_7 
REMARK       I    between atoms: C_7  and  N_9 
REMARK    3  A    between atoms: N_9  and  C_10 
REMARK    4  A    between atoms: C_11  and  C_10 
REMARK    5  A    between atoms: C_11  and  C_13 
REMARK    6  A    between atoms: C_11  and  O_12 
REMARK    7  A    between atoms: C_16  and  N_17 
ROOT
ATOM      1  C   UNL d   1      27.225 -15.008  -2.156  0.00  0.00     0.223 C 
ATOM      2  O   UNL d   1      28.069 -15.909  -2.223  0.00  0.00    -0.273 OA
ATOM      3  N   UNL d   1      26.296 -14.907  -1.082  0.00  0.00    -0.358 N 
ATOM      4  H   UNL d   1      25.743 -14.067  -0.954  0.00  0.00     0.162 HD
ENDROOT
BRANCH   3   5
ATOM      5  C   UNL d   1      26.583 -15.835  -0.007  0.00  0.00     0.159 C 
BRANCH   5   6
ATOM      6  C   UNL d   1      26.200 -17.322   0.270  0.00  0.00     0.169 C 
BRANCH   6   7
ATOM      7  C   UNL d   1      24.762 -17.666  -0.227  0.00  0.00    -0.028 C 
ATOM      8  C   UNL d   1      23.742 -16.689  -0.362  0.00  0.00     0.012 C 
ATOM      9  C   UNL d   1      22.410 -17.006  -0.562  0.00  0.00     0.037 C 
ATOM     10  C   UNL d   1      22.078 -18.318  -0.839  0.00  0.00     0.102 C 
ATOM     11  C   UNL d   1      23.063 -19.318  -0.823  0.00  0.00     0.037 C 
ATOM     12  C   UNL d   1      24.396 -18.993  -0.503  0.00  0.00     0.012 C 
BRANCH  10  13
ATOM     13  N   UNL d   1      20.701 -18.610  -1.239  0.00  0.00    -0.116 N 
ATOM     14  O   UNL d   1      20.491 -19.662  -1.862  0.00  0.00    -0.532 OA
ATOM     15  O   UNL d   1      19.825 -17.803  -0.908  0.00  0.00    -0.532 OA
ENDBRANCH  10  13
ENDBRANCH   6   7
BRANCH   6  16
ATOM     16  O   UNL d   1      27.111 -18.156  -0.467  0.00  0.00    -0.389 OA
ATOM     17  H   UNL d   1      27.532 -17.593  -1.144  0.00  0.00     0.210 HD
ENDBRANCH   6  16
ENDBRANCH   5   6
ENDBRANCH   3   5
BRANCH   1  18
ATOM     18  C   UNL d   1      27.166 -13.993  -3.223  0.00  0.00     0.094 A 
ATOM     19  C   UNL d   1      27.795 -14.090  -4.601  0.00  0.00     0.030 A 
ATOM     20  C   UNL d   1      26.286 -14.189  -4.456  0.00  0.00    -0.027 A 
ATOM     21  C   UNL d   1      25.483 -13.004  -4.936  0.00  0.00     0.016 C 
ATOM     22  C   UNL d   1      25.548 -15.498  -4.610  0.00  0.00     0.016 C 
BRANCH  19  23
ATOM     23  C   UNL d   1      28.608 -15.164  -5.224  0.00  0.00    -0.019 C 
ATOM     24  C   UNL d   1      29.597 -14.918  -6.126  0.00  0.00    -0.091 C 
ATOM     25  C   UNL d   1      29.823 -13.523  -6.654  0.00  0.00     0.042 C 
ATOM     26  C   UNL d   1      30.565 -15.970  -6.615  0.00  0.00     0.042 C 
ENDBRANCH  19  23
ENDBRANCH   1  18
TORSDOF 7
ENDMDL
MODEL 8
REMARK VINA RESULT:    -7.263      1.645      2.591
REMARK INTER + INTRA:         -11.291
REMARK INTER:                  -9.351
REMARK INTRA:                  -1.939
REMARK CONF_INDEPENDENT:        2.088
REMARK UNBOUND:                -1.939
REMARK  7 active torsions:
REMARK  status: ('A' for Active; 'I' for Inactive)
REMARK    1  A    between atoms: C_5  and  C_4 
REMARK    2  A    between atoms: C_6  and  C_7 
REMARK       I    between atoms: C_7  and  N_9 
REMARK    3  A    between atoms: N_9  and  C_10 
REMARK    4  A    between atoms: C_11  and  C_10 
REMARK    5  A    between atoms: C_11  and  C_13 
REMARK    6  A    between atoms: C_11  and  O_12 
REMARK    7  A    between atoms: C_16  and  N_17 
ROOT
ATOM      1  C   UNL d   1      28.332 -16.339  -2.415  0.00  0.00     0.223 C 
ATOM      2  O   UNL d   1      28.920 -16.989  -1.542  0.00  0.00    -0.273 OA
ATOM      3  N   UNL d   1      27.068 -15.724  -2.191  0.00  0.00    -0.358 N 
ATOM      4  H   UNL d   1      26.696 -15.051  -2.852  0.00  0.00     0.162 HD
ENDROOT
BRANCH   3   5
ATOM      5  C   UNL d   1      26.662 -15.774  -0.802  0.00  0.00     0.159 C 
BRANCH   5   6
ATOM      6  C   UNL d   1      26.106 -16.900   0.123  0.00  0.00     0.169 C 
BRANCH   6   7
ATOM      7  C   UNL d   1      24.690 -17.384  -0.317  0.00  0.00    -0.028 C 
ATOM      8  C   UNL d   1      23.665 -16.492  -0.721  0.00  0.00     0.012 C 
ATOM      9  C   UNL d   1      22.344 -16.874  -0.877  0.00  0.00     0.037 C 
ATOM     10  C   UNL d   1      22.037 -18.221  -0.832  0.00  0.00     0.102 C 
ATOM     11  C   UNL d   1      23.032 -19.166  -0.540  0.00  0.00     0.037 C 
ATOM     12  C   UNL d   1      24.349 -18.746  -0.269  0.00  0.00     0.012 C 
BRANCH  10  13
ATOM     13  N   UNL d   1      20.678 -18.629  -1.190  0.00  0.00    -0.116 N 
ATOM     14  O   UNL d   1      19.748 -17.861  -0.895  0.00  0.00    -0.532 OA
ATOM     15  O   UNL d   1      20.540 -19.701  -1.790  0.00  0.00    -0.532 OA
ENDBRANCH  10  13
ENDBRANCH   6   7
BRANCH   6  16
ATOM     16  O   UNL d   1      26.989 -18.031   0.020  0.00  0.00    -0.389 OA
ATOM     17  H   UNL d   1      27.552 -17.884  -0.763  0.00  0.00     0.210 HD
ENDBRANCH   6  16
ENDBRANCH   5   6
ENDBRANCH   3   5
BRANCH   1  18
ATOM     18  C   UNL d   1      28.952 -16.189  -3.744  0.00  0.00     0.094 A 
ATOM     19  C   UNL d   1      28.632 -15.124  -4.778  0.00  0.00     0.030 A 
ATOM     20  C   UNL d   1      29.952 -15.070  -4.030  0.00  0.00    -0.027 A 
ATOM     21  C   UNL d   1      31.190 -15.425  -4.818  0.00  0.00     0.016 C 
ATOM     22  C   UNL d   1      30.221 -14.054  -2.946  0.00  0.00     0.016 C 
BRANCH  19  23
ATOM     23  C   UNL d   1      27.654 -14.007  -4.751  0.00  0.00    -0.019 C 
ATOM     24  C   UNL d   1      26.308 -14.197  -4.802  0.00  0.00    -0.091 C 
ATOM     25  C   UNL d   1      25.737 -15.574  -5.036  0.00  0.00     0.042 C 
ATOM     26  C   UNL d   1      25.297 -13.098  -4.572  0.00  0.00     0.042 C 
ENDBRANCH  19  23
ENDBRANCH   1  18
TORSDOF 7
ENDMDL
MODEL 9
REMARK VINA RESULT:    -7.257      4.095      5.272
REMARK INTER + INTRA:         -11.073
REMARK INTER:                  -9.345
REMARK INTRA:                  -1.728
REMARK CONF_INDEPENDENT:        2.088
REMARK UNBOUND:                -1.728
REMARK  7 active torsions:
REMARK  status: ('A' for Active; 'I' for Inactive)
REMARK    1  A    between atoms: C_5  and  C_4 
REMARK    2  A    between atoms: C_6  and  C_7 
REMARK       I    between atoms: C_7  and  N_9 
REMARK    3  A    between atoms: N_9  and  C_10 
REMARK    4  A    between atoms: C_11  and  C_10 
REMARK    5  A    between atoms: C_11  and  C_13 
REMARK    6  A    between atoms: C_11  and  O_12 
REMARK    7  A    between atoms: C_16  and  N_17 
ROOT
ATOM      1  C   UNL d   1      27.422 -14.664   1.273  0.00  0.00     0.223 C 
ATOM      2  O   UNL d   1      26.288 -14.266   0.978  0.00  0.00    -0.273 OA
ATOM      3  N   UNL d   1      27.781 -16.041   1.244  0.00  0.00    -0.358 N 
ATOM      4  H   UNL d   1      28.752 -16.324   1.310  0.00  0.00     0.162 HD
ENDROOT
BRANCH   3   5
ATOM      5  C   UNL d   1      26.755 -16.873   0.649  0.00  0.00     0.159 C 
BRANCH   5   6
ATOM      6  C   UNL d   1      26.065 -16.905  -0.750  0.00  0.00     0.169 C 
BRANCH   6   7
ATOM      7  C   UNL d   1      24.599 -17.432  -0.676  0.00  0.00    -0.028 C 
ATOM      8  C   UNL d   1      24.284 -18.806  -0.518  0.00  0.00     0.012 C 
ATOM      9  C   UNL d   1      23.011 -19.317  -0.695  0.00  0.00     0.037 C 
ATOM     10  C   UNL d   1      21.958 -18.434  -0.837  0.00  0.00     0.102 C 
ATOM     11  C   UNL d   1      22.195 -17.052  -0.895  0.00  0.00     0.037 C 
ATOM     12  C   UNL d   1      23.512 -16.556  -0.830  0.00  0.00     0.012 C 
BRANCH  10  13
ATOM     13  N   UNL d   1      20.599 -18.976  -0.827  0.00  0.00    -0.116 N 
ATOM     14  O   UNL d   1      19.839 -18.612   0.084  0.00  0.00    -0.532 OA
ATOM     15  O   UNL d   1      20.281 -19.743  -1.744  0.00  0.00    -0.532 OA
ENDBRANCH  10  13
ENDBRANCH   6   7
BRANCH   6  16
ATOM     16  O   UNL d   1      26.003 -15.555  -1.242  0.00  0.00    -0.389 OA
ATOM     17  H   UNL d   1      26.008 -14.965  -0.464  0.00  0.00     0.210 HD
ENDBRANCH   6  16
ENDBRANCH   5   6
ENDBRANCH   3   5
BRANCH   1  18
ATOM     18  C   UNL d   1      28.450 -13.686   1.673  0.00  0.00     0.094 A 
ATOM     19  C   UNL d   1      28.215 -12.249   2.102  0.00  0.00     0.030 A 
ATOM     20  C   UNL d   1      28.633 -13.281   3.134  0.00  0.00    -0.027 A 
ATOM     21  C   UNL d   1      30.045 -13.178   3.659  0.00  0.00     0.016 C 
ATOM     22  C   UNL d   1      27.667 -13.831   4.158  0.00  0.00     0.016 C 
BRANCH  19  23
ATOM     23  C   UNL d   1      26.960 -11.464   2.222  0.00  0.00    -0.019 C 
ATOM     24  C   UNL d   1      26.917 -10.208   2.744  0.00  0.00    -0.091 C 
ATOM     25  C   UNL d   1      28.146  -9.596   3.370  0.00  0.00     0.042 C 
ATOM     26  C   UNL d   1      25.697  -9.320   2.689  0.00  0.00     0.042 C 
ENDBRANCH  19  23
ENDBRANCH   1  18
TORSDOF 7
ENDMDL
