MODEL 1
REMARK VINA RESULT:   -31.366      0.000      0.000
REMARK INTER + INTRA:         -35.635
REMARK INTER:                 -33.753
REMARK INTRA:                  -1.882
REMARK CONF_INDEPENDENT:        2.386
REMARK UNBOUND:                -1.882
REMARK  8 active torsions:
REMARK  status: ('A' for Active; 'I' for Inactive)
REMARK    1  A    between atoms: C_2  and  N_3 
REMARK    2  A    between atoms: C_2  and  C_26 
REMARK    3  A    between atoms: N_3  and  N_4 
REMARK       I    between atoms: N_4  and  C_5 
REMARK    4  A    between atoms: C_5  and  C_7 
REMARK    5  A    between atoms: N_10  and  C_11 
REMARK    6  A    between atoms: C_15  and  N_16 
REMARK    7  A    between atoms: C_17  and  C_18 
REMARK    8  A    between atoms: C_18  and  N_19 
ROOT
ATOM      1  C   UNL d   1      25.709 -17.656  -0.196  0.00  0.00     0.170 C 
ATOM      2  N   UNL d   1      25.345 -18.574   0.778  0.00  0.00    -0.152 NA
ATOM      3  N   UNL d   1      24.010 -18.653   0.880  0.00  0.00     0.012 NA
ATOM      4  N   UNL d   1      23.425 -17.971  -0.127  0.00  0.00    -0.215 N 
ATOM      5  C   UNL d   1      24.465 -17.375  -0.876  0.00  0.00     0.096 C 
ENDROOT
BRANCH   1   6
ATOM      6  C   UNL d   1      27.321 -17.312  -0.483  0.00  0.00     0.293 C 
ATOM      7  N   UNL d   1      28.292 -16.806   0.647  0.00  0.00    -0.241 N 
ATOM      8  H   UNL d   1      27.818 -16.691   1.517  0.00  0.00     0.192 HD
ATOM      9  O   UNL d   1      27.670 -17.387  -1.706  0.00  0.00    -0.264 OA
BRANCH   7  10
ATOM     10  N   UNL d   1      29.610 -15.760   0.586  0.00  0.00    -0.176 NA
BRANCH  10  11
ATOM     11  C   UNL d   1      29.699 -14.404   0.963  0.00  0.00     0.061 C 
ATOM     12  C   UNL d   1      30.001 -13.338  -0.138  0.00  0.00     0.073 C 
BRANCH  11  13
ATOM     13  C   UNL d   1      29.162 -13.591   2.340  0.00  0.00    -0.009 C 
ATOM     14  C   UNL d   1      27.946 -12.814   2.514  0.00  0.00     0.014 C 
ATOM     15  C   UNL d   1      27.463 -12.452   3.814  0.00  0.00     0.013 C 
ATOM     16  C   UNL d   1      28.121 -12.918   4.970  0.00  0.00    -0.026 C 
ATOM     17  C   UNL d   1      27.776 -12.562   6.292  0.00  0.00     0.012 C 
ATOM     18  C   UNL d   1      29.206 -13.802   4.786  0.00  0.00    -0.025 C 
ATOM     19  C   UNL d   1      28.484 -13.094   7.378  0.00  0.00     0.001 C 
ATOM     20  C   UNL d   1      29.457 -14.066   7.172  0.00  0.00     0.001 C 
ATOM     21  C   UNL d   1      29.790 -14.441   5.878  0.00  0.00     0.012 C 
ATOM     22  C   UNL d   1      29.727 -14.071   3.513  0.00  0.00     0.026 C 
ENDBRANCH  11  13
ENDBRANCH  10  11
ENDBRANCH   7  10
ENDBRANCH   1   6
BRANCH   5  23
ATOM     23  C   UNL d   1      24.011 -16.540  -2.018  0.00  0.00     0.296 C 
BRANCH  23  24
ATOM     24  N   UNL d   1      24.907 -15.432  -2.306  0.00  0.00    -0.062 N 
ATOM     25  C   UNL d   1      25.285 -15.002  -0.999  0.00  0.00     0.235 C 
ATOM     26  C   UNL d   1      26.442 -14.159  -1.290  0.00  0.00     0.028 C 
ATOM     27  C   UNL d   1      27.679 -14.481  -2.129  0.00  0.00     0.004 C 
ATOM     28  C   UNL d   1      27.118 -14.634  -3.452  0.00  0.00     0.033 C 
ATOM     29  C   UNL d   1      26.060 -15.729  -3.330  0.00  0.00     0.184 C 
ATOM     30  C   UNL d   1      25.530 -15.827  -4.713  0.00  0.00     0.040 C 
ATOM     31  H   UNL d   1      24.365 -14.625  -2.639  0.00  0.00     0.280 HD
ENDBRANCH  23  24
ENDBRANCH   5  23
BRANCH   4  32
ATOM     32  C   UNL d   1      21.998 -17.920  -0.412  0.00  0.00     0.225 A 
ATOM     33  N   UNL d   1      21.441 -16.848  -0.987  0.00  0.00    -0.081 NA
ATOM     34  O   UNL d   1      20.121 -17.252  -1.272  0.00  0.00    -0.103 OA
ATOM     35  N   UNL d   1      19.904 -18.576  -0.896  0.00  0.00    -0.083 NA
ATOM     36  C   UNL d   1      21.051 -18.972  -0.351  0.00  0.00     0.201 A 
BRANCH  36  37
ATOM     37  N   UNL d   1      21.269 -20.209   0.143  0.00  0.00    -0.379 N 
ATOM     38  H   UNL d   1      20.690 -20.520   0.922  0.00  0.00     0.158 HD
ATOM     39  H   UNL d   1      22.201 -20.609   0.168  0.00  0.00     0.158 HD
ENDBRANCH  36  37
ENDBRANCH   4  32
TORSDOF 8
ENDMDL
MODEL 2
REMARK VINA RESULT:   -31.188      3.708      7.170
REMARK INTER + INTRA:         -34.853
REMARK INTER:                 -33.575
REMARK INTRA:                  -1.278
REMARK CONF_INDEPENDENT:        2.386
REMARK UNBOUND:                -1.278
REMARK  8 active torsions:
REMARK  status: ('A' for Active; 'I' for Inactive)
REMARK    1  A    between atoms: C_2  and  N_3 
REMARK    2  A    between atoms: C_2  and  C_26 
REMARK    3  A    between atoms: N_3  and  N_4 
REMARK       I    between atoms: N_4  and  C_5 
REMARK    4  A    between atoms: C_5  and  C_7 
REMARK    5  A    between atoms: N_10  and  C_11 
REMARK    6  A    between atoms: C_15  and  N_16 
REMARK    7  A    between atoms: C_17  and  C_18 
REMARK    8  A    between atoms: C_18  and  N_19 
ROOT
ATOM      1  C   UNL d   1      25.647 -17.530   0.129  0.00  0.00     0.170 C 
ATOM      2  N   UNL d   1      25.270 -18.558   0.980  0.00  0.00    -0.152 NA
ATOM      3  N   UNL d   1      23.936 -18.692   1.001  0.00  0.00     0.012 NA
ATOM      4  N   UNL d   1      23.376 -17.927   0.041  0.00  0.00    -0.215 N 
ATOM      5  C   UNL d   1      24.429 -17.219  -0.583  0.00  0.00     0.096 C 
ENDROOT
BRANCH   1   6
ATOM      6  C   UNL d   1      27.257 -17.103  -0.032  0.00  0.00     0.293 C 
ATOM      7  N   UNL d   1      28.073 -17.363  -1.352  0.00  0.00    -0.241 N 
ATOM      8  H   UNL d   1      27.523 -17.832  -2.039  0.00  0.00     0.192 HD
ATOM      9  O   UNL d   1      27.795 -16.652   1.031  0.00  0.00    -0.264 OA
BRANCH   7  10
ATOM     10  N   UNL d   1      29.700 -17.725  -1.593  0.00  0.00    -0.176 NA
BRANCH  10  11
ATOM     11  C   UNL d   1      30.576 -17.284  -2.606  0.00  0.00     0.061 C 
ATOM     12  C   UNL d   1      32.040 -16.902  -2.215  0.00  0.00     0.073 C 
BRANCH  11  13
ATOM     13  C   UNL d   1      30.509 -17.434  -4.284  0.00  0.00    -0.009 C 
ATOM     14  C   UNL d   1      30.769 -16.421  -5.294  0.00  0.00     0.014 C 
ATOM     15  C   UNL d   1      30.989 -16.765  -6.668  0.00  0.00     0.013 C 
ATOM     16  C   UNL d   1      31.038 -18.117  -7.060  0.00  0.00    -0.026 C 
ATOM     17  C   UNL d   1      31.173 -18.564  -8.393  0.00  0.00     0.012 C 
ATOM     18  C   UNL d   1      30.943 -19.092  -6.043  0.00  0.00    -0.025 C 
ATOM     19  C   UNL d   1      31.230 -19.935  -8.679  0.00  0.00     0.001 C 
ATOM     20  C   UNL d   1      31.271 -20.866  -7.646  0.00  0.00     0.001 C 
ATOM     21  C   UNL d   1      31.162 -20.437  -6.332  0.00  0.00     0.012 C 
ATOM     22  C   UNL d   1      30.634 -18.745  -4.721  0.00  0.00     0.026 C 
ENDBRANCH  11  13
ENDBRANCH  10  11
ENDBRANCH   7  10
ENDBRANCH   1   6
BRANCH   5  23
ATOM     23  C   UNL d   1      24.001 -16.282  -1.655  0.00  0.00     0.296 C 
BRANCH  23  24
ATOM     24  N   UNL d   1      25.006 -15.282  -1.972  0.00  0.00    -0.062 N 
ATOM     25  C   UNL d   1      25.456 -14.885  -0.678  0.00  0.00     0.235 C 
ATOM     26  C   UNL d   1      26.692 -14.176  -1.001  0.00  0.00     0.028 C 
ATOM     27  C   UNL d   1      27.868 -14.639  -1.861  0.00  0.00     0.004 C 
ATOM     28  C   UNL d   1      27.267 -14.741  -3.171  0.00  0.00     0.033 C 
ATOM     29  C   UNL d   1      26.098 -15.712  -3.015  0.00  0.00     0.184 C 
ATOM     30  C   UNL d   1      25.531 -15.764  -4.387  0.00  0.00     0.040 C 
ATOM     31  H   UNL d   1      24.549 -14.424  -2.303  0.00  0.00     0.280 HD
ENDBRANCH  23  24
ENDBRANCH   5  23
BRANCH   4  32
ATOM     32  C   UNL d   1      21.965 -17.893  -0.314  0.00  0.00     0.225 A 
ATOM     33  N   UNL d   1      21.425 -16.831  -0.923  0.00  0.00    -0.081 NA
ATOM     34  O   UNL d   1      20.125 -17.252  -1.270  0.00  0.00    -0.103 OA
ATOM     35  N   UNL d   1      19.905 -18.575  -0.895  0.00  0.00    -0.083 NA
ATOM     36  C   UNL d   1      21.027 -18.955  -0.292  0.00  0.00     0.201 A 
BRANCH  36  37
ATOM     37  N   UNL d   1      21.233 -20.186   0.221  0.00  0.00    -0.379 N 
ATOM     38  H   UNL d   1      20.639 -20.488   0.992  0.00  0.00     0.158 HD
ATOM     39  H   UNL d   1      22.164 -20.587   0.270  0.00  0.00     0.158 HD
ENDBRANCH  36  37
ENDBRANCH   4  32
TORSDOF 8
ENDMDL
MODEL 3
REMARK VINA RESULT:   -30.573      1.198      2.202
REMARK INTER + INTRA:         -34.666
REMARK INTER:                 -32.960
REMARK INTRA:                  -1.706
REMARK CONF_INDEPENDENT:        2.386
REMARK UNBOUND:                -1.706
REMARK  8 active torsions:
REMARK  status: ('A' for Active; 'I' for Inactive)
REMARK    1  A    between atoms: C_2  and  N_3 
REMARK    2  A    between atoms: C_2  and  C_26 
REMARK    3  A    between atoms: N_3  and  N_4 
REMARK       I    between atoms: N_4  and  C_5 
REMARK    4  A    between atoms: C_5  and  C_7 
REMARK    5  A    between atoms: N_10  and  C_11 
REMARK    6  A    between atoms: C_15  and  N_16 
REMARK    7  A    between atoms: C_17  and  C_18 
REMARK    8  A    between atoms: C_18  and  N_19 
ROOT
ATOM      1  C   UNL d   1      25.763 -17.698  -0.429  0.00  0.00     0.170 C 
ATOM      2  N   UNL d   1      25.471 -18.945   0.105  0.00  0.00    -0.152 NA
ATOM      3  N   UNL d   1      24.146 -19.112   0.224  0.00  0.00     0.012 NA
ATOM      4  N   UNL d   1      23.492 -18.105  -0.393  0.00  0.00    -0.215 N 
ATOM      5  C   UNL d   1      24.477 -17.216  -0.881  0.00  0.00     0.096 C 
ENDROOT
BRANCH   1   6
ATOM      6  C   UNL d   1      27.349 -17.204  -0.622  0.00  0.00     0.293 C 
ATOM      7  N   UNL d   1      28.213 -16.647   0.571  0.00  0.00    -0.241 N 
ATOM      8  H   UNL d   1      27.687 -16.601   1.417  0.00  0.00     0.192 HD
ATOM      9  O   UNL d   1      27.765 -17.211  -1.825  0.00  0.00    -0.264 OA
BRANCH   7  10
ATOM     10  N   UNL d   1      29.433 -15.487   0.605  0.00  0.00    -0.176 NA
BRANCH  10  11
ATOM     11  C   UNL d   1      29.898 -14.705   1.682  0.00  0.00     0.061 C 
ATOM     12  C   UNL d   1      31.429 -14.411   1.789  0.00  0.00     0.073 C 
BRANCH  11  13
ATOM     13  C   UNL d   1      29.093 -13.656   2.729  0.00  0.00    -0.009 C 
ATOM     14  C   UNL d   1      29.385 -13.372   4.125  0.00  0.00     0.014 C 
ATOM     15  C   UNL d   1      28.829 -12.232   4.794  0.00  0.00     0.013 C 
ATOM     16  C   UNL d   1      28.041 -11.307   4.080  0.00  0.00    -0.026 C 
ATOM     17  C   UNL d   1      27.385 -10.196   4.656  0.00  0.00     0.012 C 
ATOM     18  C   UNL d   1      27.898 -11.511   2.692  0.00  0.00    -0.025 C 
ATOM     19  C   UNL d   1      26.637  -9.322   3.856  0.00  0.00     0.001 C 
ATOM     20  C   UNL d   1      26.627  -9.471   2.473  0.00  0.00     0.001 C 
ATOM     21  C   UNL d   1      27.286 -10.546   1.895  0.00  0.00     0.012 C 
ATOM     22  C   UNL d   1      28.365 -12.676   2.069  0.00  0.00     0.026 C 
ENDBRANCH  11  13
ENDBRANCH  10  11
ENDBRANCH   7  10
ENDBRANCH   1   6
BRANCH   5  23
ATOM     23  C   UNL d   1      23.945 -16.009  -1.565  0.00  0.00     0.296 C 
BRANCH  23  24
ATOM     24  N   UNL d   1      24.932 -14.953  -1.708  0.00  0.00    -0.062 N 
ATOM     25  C   UNL d   1      25.534 -14.924  -0.415  0.00  0.00     0.235 C 
ATOM     26  C   UNL d   1      26.742 -14.144  -0.670  0.00  0.00     0.028 C 
ATOM     27  C   UNL d   1      27.804 -14.344  -1.752  0.00  0.00     0.004 C 
ATOM     28  C   UNL d   1      27.057 -14.086  -2.962  0.00  0.00     0.033 C 
ATOM     29  C   UNL d   1      25.890 -15.071  -2.947  0.00  0.00     0.184 C 
ATOM     30  C   UNL d   1      25.173 -14.748  -4.206  0.00  0.00     0.040 C 
ATOM     31  H   UNL d   1      24.462 -14.040  -1.737  0.00  0.00     0.280 HD
ENDBRANCH  23  24
ENDBRANCH   5  23
BRANCH   4  32
ATOM     32  C   UNL d   1      22.051 -18.000  -0.570  0.00  0.00     0.225 A 
ATOM     33  N   UNL d   1      21.493 -16.906  -1.101  0.00  0.00    -0.081 NA
ATOM     34  O   UNL d   1      20.141 -17.260  -1.287  0.00  0.00    -0.103 OA
ATOM     35  N   UNL d   1      19.904 -18.575  -0.895  0.00  0.00    -0.083 NA
ATOM     36  C   UNL d   1      21.072 -19.015  -0.439  0.00  0.00     0.201 A 
BRANCH  36  37
ATOM     37  N   UNL d   1      21.280 -20.261   0.037  0.00  0.00    -0.379 N 
ATOM     38  H   UNL d   1      22.242 -20.558   0.195  0.00  0.00     0.158 HD
ATOM     39  H   UNL d   1      20.675 -21.033  -0.225  0.00  0.00     0.158 HD
ENDBRANCH  36  37
ENDBRANCH   4  32
TORSDOF 8
ENDMDL
MODEL 4
REMARK VINA RESULT:   -30.265      3.316      5.754
REMARK INTER + INTRA:         -35.419
REMARK INTER:                 -32.652
REMARK INTRA:                  -2.767
REMARK CONF_INDEPENDENT:        2.386
REMARK UNBOUND:                -2.767
REMARK  8 active torsions:
REMARK  status: ('A' for Active; 'I' for Inactive)
REMARK    1  A    between atoms: C_2  and  N_3 
REMARK    2  A    between atoms: C_2  and  C_26 
REMARK    3  A    between atoms: N_3  and  N_4 
REMARK       I    between atoms: N_4  and  C_5 
REMARK    4  A    between atoms: C_5  and  C_7 
REMARK    5  A    between atoms: N_10  and  C_11 
REMARK    6  A    between atoms: C_15  and  N_16 
REMARK    7  A    between atoms: C_17  and  C_18 
REMARK    8  A    between atoms: C_18  and  N_19 
ROOT
ATOM      1  C   UNL d   1      25.693 -17.622  -0.106  0.00  0.00     0.170 C 
ATOM      2  N   UNL d   1      25.309 -18.511   0.887  0.00  0.00    -0.152 NA
ATOM      3  N   UNL d   1      23.973 -18.590   0.964  0.00  0.00     0.012 NA
ATOM      4  N   UNL d   1      23.408 -17.940  -0.075  0.00  0.00    -0.215 N 
ATOM      5  C   UNL d   1      24.462 -17.364  -0.819  0.00  0.00     0.096 C 
ENDROOT
BRANCH   1   6
ATOM      6  C   UNL d   1      27.310 -17.282  -0.369  0.00  0.00     0.293 C 
ATOM      7  N   UNL d   1      28.234 -16.654   0.739  0.00  0.00    -0.241 N 
ATOM      8  H   UNL d   1      27.727 -16.463   1.577  0.00  0.00     0.192 HD
ATOM      9  O   UNL d   1      27.704 -17.471  -1.566  0.00  0.00    -0.264 OA
BRANCH   7  10
ATOM     10  N   UNL d   1      29.541 -15.600   0.621  0.00  0.00    -0.176 NA
BRANCH  10  11
ATOM     11  C   UNL d   1      30.585 -15.567  -0.326  0.00  0.00     0.061 C 
ATOM     12  C   UNL d   1      31.902 -14.808   0.037  0.00  0.00     0.073 C 
BRANCH  11  13
ATOM     13  C   UNL d   1      30.891 -16.519  -1.683  0.00  0.00    -0.009 C 
ATOM     14  C   UNL d   1      30.992 -17.967  -1.768  0.00  0.00     0.014 C 
ATOM     15  C   UNL d   1      30.935 -18.654  -3.025  0.00  0.00     0.013 C 
ATOM     16  C   UNL d   1      30.696 -17.937  -4.214  0.00  0.00    -0.026 C 
ATOM     17  C   UNL d   1      30.696 -18.501  -5.509  0.00  0.00     0.012 C 
ATOM     18  C   UNL d   1      30.443 -16.553  -4.097  0.00  0.00    -0.025 C 
ATOM     19  C   UNL d   1      30.429 -17.705  -6.630  0.00  0.00     0.001 C 
ATOM     20  C   UNL d   1      30.049 -16.376  -6.472  0.00  0.00     0.001 C 
ATOM     21  C   UNL d   1      30.024 -15.816  -5.203  0.00  0.00     0.012 C 
ATOM     22  C   UNL d   1      30.595 -15.879  -2.878  0.00  0.00     0.026 C 
ENDBRANCH  11  13
ENDBRANCH  10  11
ENDBRANCH   7  10
ENDBRANCH   1   6
BRANCH   5  23
ATOM     23  C   UNL d   1      24.031 -16.564  -1.995  0.00  0.00     0.296 C 
BRANCH  23  24
ATOM     24  N   UNL d   1      24.911 -15.441  -2.275  0.00  0.00    -0.062 N 
ATOM     25  C   UNL d   1      25.277 -15.011  -0.965  0.00  0.00     0.235 C 
ATOM     26  C   UNL d   1      26.422 -14.148  -1.247  0.00  0.00     0.028 C 
ATOM     27  C   UNL d   1      27.667 -14.448  -2.082  0.00  0.00     0.004 C 
ATOM     28  C   UNL d   1      27.115 -14.605  -3.408  0.00  0.00     0.033 C 
ATOM     29  C   UNL d   1      26.074 -15.716  -3.294  0.00  0.00     0.184 C 
ATOM     30  C   UNL d   1      25.551 -15.818  -4.680  0.00  0.00     0.040 C 
ATOM     31  H   UNL d   1      24.359 -14.642  -2.607  0.00  0.00     0.280 HD
ENDBRANCH  23  24
ENDBRANCH   5  23
BRANCH   4  32
ATOM     32  C   UNL d   1      21.987 -17.901  -0.391  0.00  0.00     0.225 A 
ATOM     33  N   UNL d   1      21.442 -16.850  -1.014  0.00  0.00    -0.081 NA
ATOM     34  O   UNL d   1      20.128 -17.266  -1.313  0.00  0.00    -0.103 OA
ATOM     35  N   UNL d   1      19.904 -18.575  -0.895  0.00  0.00    -0.083 NA
ATOM     36  C   UNL d   1      21.040 -18.951  -0.313  0.00  0.00     0.201 A 
BRANCH  36  37
ATOM     37  N   UNL d   1      21.248 -20.169   0.228  0.00  0.00    -0.379 N 
ATOM     38  H   UNL d   1      20.707 -20.423   1.054  0.00  0.00     0.158 HD
ATOM     39  H   UNL d   1      22.166 -20.600   0.219  0.00  0.00     0.158 HD
ENDBRANCH  36  37
ENDBRANCH   4  32
TORSDOF 8
ENDMDL
MODEL 5
REMARK VINA RESULT:   -29.921      3.383      5.746
REMARK INTER + INTRA:         -34.739
REMARK INTER:                 -32.307
REMARK INTRA:                  -2.432
REMARK CONF_INDEPENDENT:        2.386
REMARK UNBOUND:                -2.432
REMARK  8 active torsions:
REMARK  status: ('A' for Active; 'I' for Inactive)
REMARK    1  A    between atoms: C_2  and  N_3 
REMARK    2  A    between atoms: C_2  and  C_26 
REMARK    3  A    between atoms: N_3  and  N_4 
REMARK       I    between atoms: N_4  and  C_5 
REMARK    4  A    between atoms: C_5  and  C_7 
REMARK    5  A    between atoms: N_10  and  C_11 
REMARK    6  A    between atoms: C_15  and  N_16 
REMARK    7  A    between atoms: C_17  and  C_18 
REMARK    8  A    between atoms: C_18  and  N_19 
ROOT
ATOM      1  C   UNL d   1      25.678 -17.634   0.001  0.00  0.00     0.170 C 
ATOM      2  N   UNL d   1      25.273 -18.513   0.994  0.00  0.00    -0.152 NA
ATOM      3  N   UNL d   1      23.935 -18.587   1.045  0.00  0.00     0.012 NA
ATOM      4  N   UNL d   1      23.392 -17.944  -0.009  0.00  0.00    -0.215 N 
ATOM      5  C   UNL d   1      24.463 -17.378  -0.738  0.00  0.00     0.096 C 
ENDROOT
BRANCH   1   6
ATOM      6  C   UNL d   1      27.301 -17.302  -0.234  0.00  0.00     0.293 C 
ATOM      7  N   UNL d   1      28.109 -16.327   0.701  0.00  0.00    -0.241 N 
ATOM      8  H   UNL d   1      27.528 -15.924   1.404  0.00  0.00     0.192 HD
ATOM      9  O   UNL d   1      27.800 -17.814  -1.288  0.00  0.00    -0.264 OA
BRANCH   7  10
ATOM     10  N   UNL d   1      29.390 -15.286   0.369  0.00  0.00    -0.176 NA
BRANCH  10  11
ATOM     11  C   UNL d   1      30.319 -15.316  -0.692  0.00  0.00     0.061 C 
ATOM     12  C   UNL d   1      31.840 -15.432  -0.354  0.00  0.00     0.073 C 
BRANCH  11  13
ATOM     13  C   UNL d   1      30.126 -15.641  -2.336  0.00  0.00    -0.009 C 
ATOM     14  C   UNL d   1      30.310 -14.741  -3.463  0.00  0.00     0.014 C 
ATOM     15  C   UNL d   1      30.426 -15.229  -4.806  0.00  0.00     0.013 C 
ATOM     16  C   UNL d   1      30.445 -16.616  -5.056  0.00  0.00    -0.026 C 
ATOM     17  C   UNL d   1      30.479 -17.202  -6.341  0.00  0.00     0.012 C 
ATOM     18  C   UNL d   1      30.425 -17.477  -3.938  0.00  0.00    -0.025 C 
ATOM     19  C   UNL d   1      30.514 -18.595  -6.484  0.00  0.00     0.001 C 
ATOM     20  C   UNL d   1      30.631 -19.413  -5.365  0.00  0.00     0.001 C 
ATOM     21  C   UNL d   1      30.621 -18.847  -4.098  0.00  0.00     0.012 C 
ATOM     22  C   UNL d   1      30.216 -16.991  -2.640  0.00  0.00     0.026 C 
ENDBRANCH  11  13
ENDBRANCH  10  11
ENDBRANCH   7  10
ENDBRANCH   1   6
BRANCH   5  23
ATOM     23  C   UNL d   1      24.057 -16.586  -1.929  0.00  0.00     0.296 C 
BRANCH  23  24
ATOM     24  N   UNL d   1      24.874 -15.401  -2.131  0.00  0.00    -0.062 N 
ATOM     25  C   UNL d   1      25.187 -15.019  -0.793  0.00  0.00     0.235 C 
ATOM     26  C   UNL d   1      26.283 -14.077  -1.005  0.00  0.00     0.028 C 
ATOM     27  C   UNL d   1      27.561 -14.260  -1.825  0.00  0.00     0.004 C 
ATOM     28  C   UNL d   1      27.046 -14.380  -3.169  0.00  0.00     0.033 C 
ATOM     29  C   UNL d   1      26.071 -15.554  -3.136  0.00  0.00     0.184 C 
ATOM     30  C   UNL d   1      25.583 -15.615  -4.537  0.00  0.00     0.040 C 
ATOM     31  H   UNL d   1      24.281 -14.619  -2.435  0.00  0.00     0.280 HD
ENDBRANCH  23  24
ENDBRANCH   5  23
BRANCH   4  32
ATOM     32  C   UNL d   1      21.978 -17.903  -0.353  0.00  0.00     0.225 A 
ATOM     33  N   UNL d   1      21.447 -16.853  -0.988  0.00  0.00    -0.081 NA
ATOM     34  O   UNL d   1      20.139 -17.267  -1.312  0.00  0.00    -0.103 OA
ATOM     35  N   UNL d   1      19.904 -18.575  -0.896  0.00  0.00    -0.083 NA
ATOM     36  C   UNL d   1      21.027 -18.951  -0.292  0.00  0.00     0.201 A 
BRANCH  36  37
ATOM     37  N   UNL d   1      21.223 -20.170   0.256  0.00  0.00    -0.379 N 
ATOM     38  H   UNL d   1      20.683 -20.412   1.086  0.00  0.00     0.158 HD
ATOM     39  H   UNL d   1      22.136 -20.612   0.245  0.00  0.00     0.158 HD
ENDBRANCH  36  37
ENDBRANCH   4  32
TORSDOF 8
ENDMDL
MODEL 6
REMARK VINA RESULT:   -28.869      3.425      6.220
REMARK INTER + INTRA:         -33.408
REMARK INTER:                 -31.255
REMARK INTRA:                  -2.153
REMARK CONF_INDEPENDENT:        2.386
REMARK UNBOUND:                -2.153
REMARK  8 active torsions:
REMARK  status: ('A' for Active; 'I' for Inactive)
REMARK    1  A    between atoms: C_2  and  N_3 
REMARK    2  A    between atoms: C_2  and  C_26 
REMARK    3  A    between atoms: N_3  and  N_4 
REMARK       I    between atoms: N_4  and  C_5 
REMARK    4  A    between atoms: C_5  and  C_7 
REMARK    5  A    between atoms: N_10  and  C_11 
REMARK    6  A    between atoms: C_15  and  N_16 
REMARK    7  A    between atoms: C_17  and  C_18 
REMARK    8  A    between atoms: C_18  and  N_19 
ROOT
ATOM      1  C   UNL d   1      25.815 -18.020  -0.527  0.00  0.00     0.170 C 
ATOM      2  N   UNL d   1      25.471 -19.308  -0.143  0.00  0.00    -0.152 NA
ATOM      3  N   UNL d   1      24.141 -19.426  -0.018  0.00  0.00     0.012 NA
ATOM      4  N   UNL d   1      23.528 -18.323  -0.495  0.00  0.00    -0.215 N 
ATOM      5  C   UNL d   1      24.547 -17.428  -0.891  0.00  0.00     0.096 C 
ENDROOT
BRANCH   1   6
ATOM      6  C   UNL d   1      27.420 -17.578  -0.690  0.00  0.00     0.293 C 
ATOM      7  N   UNL d   1      27.975 -16.867  -1.979  0.00  0.00    -0.241 N 
ATOM      8  H   UNL d   1      27.266 -16.754  -2.672  0.00  0.00     0.192 HD
ATOM      9  O   UNL d   1      28.175 -17.960   0.263  0.00  0.00    -0.264 OA
BRANCH   7  10
ATOM     10  N   UNL d   1      29.481 -16.952  -2.727  0.00  0.00    -0.176 NA
BRANCH  10  11
ATOM     11  C   UNL d   1      29.875 -16.506  -4.005  0.00  0.00     0.061 C 
ATOM     12  C   UNL d   1      30.770 -17.440  -4.882  0.00  0.00     0.073 C 
BRANCH  11  13
ATOM     13  C   UNL d   1      29.265 -15.289  -5.000  0.00  0.00    -0.009 C 
ATOM     14  C   UNL d   1      27.928 -15.161  -5.558  0.00  0.00     0.014 C 
ATOM     15  C   UNL d   1      27.458 -13.927  -6.114  0.00  0.00     0.013 C 
ATOM     16  C   UNL d   1      28.265 -12.772  -6.058  0.00  0.00    -0.026 C 
ATOM     17  C   UNL d   1      27.932 -11.529  -6.640  0.00  0.00     0.012 C 
ATOM     18  C   UNL d   1      29.495 -12.873  -5.373  0.00  0.00    -0.025 C 
ATOM     19  C   UNL d   1      28.796 -10.433  -6.513  0.00  0.00     0.001 C 
ATOM     20  C   UNL d   1      29.934 -10.524  -5.718  0.00  0.00     0.001 C 
ATOM     21  C   UNL d   1      30.259 -11.735  -5.124  0.00  0.00     0.012 C 
ATOM     22  C   UNL d   1      29.984 -14.105  -4.919  0.00  0.00     0.026 C 
ENDBRANCH  11  13
ENDBRANCH  10  11
ENDBRANCH   7  10
ENDBRANCH   1   6
BRANCH   5  23
ATOM     23  C   UNL d   1      24.063 -16.123  -1.413  0.00  0.00     0.296 C 
BRANCH  23  24
ATOM     24  N   UNL d   1      25.125 -15.302  -1.969  0.00  0.00    -0.062 N 
ATOM     25  C   UNL d   1      24.514 -14.770  -3.143  0.00  0.00     0.235 C 
ATOM     26  C   UNL d   1      25.428 -13.685  -3.486  0.00  0.00     0.028 C 
ATOM     27  C   UNL d   1      25.957 -12.558  -2.597  0.00  0.00     0.004 C 
ATOM     28  C   UNL d   1      26.748 -13.279  -1.627  0.00  0.00     0.033 C 
ATOM     29  C   UNL d   1      25.796 -14.282  -0.980  0.00  0.00     0.184 C 
ATOM     30  C   UNL d   1      26.671 -14.983  -0.007  0.00  0.00     0.040 C 
ATOM     31  H   UNL d   1      25.854 -15.904  -2.371  0.00  0.00     0.280 HD
ENDBRANCH  23  24
ENDBRANCH   5  23
BRANCH   4  32
ATOM     32  C   UNL d   1      22.091 -18.132  -0.629  0.00  0.00     0.225 A 
ATOM     33  N   UNL d   1      21.584 -17.001  -1.134  0.00  0.00    -0.081 NA
ATOM     34  O   UNL d   1      20.209 -17.272  -1.283  0.00  0.00    -0.103 OA
ATOM     35  N   UNL d   1      19.905 -18.575  -0.896  0.00  0.00    -0.083 NA
ATOM     36  C   UNL d   1      21.058 -19.089  -0.478  0.00  0.00     0.201 A 
BRANCH  36  37
ATOM     37  N   UNL d   1      21.205 -20.350  -0.019  0.00  0.00    -0.379 N 
ATOM     38  H   UNL d   1      22.132 -20.641   0.288  0.00  0.00     0.158 HD
ATOM     39  H   UNL d   1      20.667 -21.117  -0.407  0.00  0.00     0.158 HD
ENDBRANCH  36  37
ENDBRANCH   4  32
TORSDOF 8
ENDMDL
MODEL 7
REMARK VINA RESULT:   -28.566      1.791      2.938
REMARK INTER + INTRA:         -33.075
REMARK INTER:                 -30.952
REMARK INTRA:                  -2.123
REMARK CONF_INDEPENDENT:        2.386
REMARK UNBOUND:                -2.123
REMARK  8 active torsions:
REMARK  status: ('A' for Active; 'I' for Inactive)
REMARK    1  A    between atoms: C_2  and  N_3 
REMARK    2  A    between atoms: C_2  and  C_26 
REMARK    3  A    between atoms: N_3  and  N_4 
REMARK       I    between atoms: N_4  and  C_5 
REMARK    4  A    between atoms: C_5  and  C_7 
REMARK    5  A    between atoms: N_10  and  C_11 
REMARK    6  A    between atoms: C_15  and  N_16 
REMARK    7  A    between atoms: C_17  and  C_18 
REMARK    8  A    between atoms: C_18  and  N_19 
ROOT
ATOM      1  C   UNL d   1      25.754 -17.715  -0.317  0.00  0.00     0.170 C 
ATOM      2  N   UNL d   1      25.444 -18.937   0.263  0.00  0.00    -0.152 NA
ATOM      3  N   UNL d   1      24.116 -19.090   0.363  0.00  0.00     0.012 NA
ATOM      4  N   UNL d   1      23.480 -18.107  -0.309  0.00  0.00    -0.215 N 
ATOM      5  C   UNL d   1      24.481 -17.245  -0.814  0.00  0.00     0.096 C 
ENDROOT
BRANCH   1   6
ATOM      6  C   UNL d   1      27.347 -17.238  -0.499  0.00  0.00     0.293 C 
ATOM      7  N   UNL d   1      28.025 -17.071  -1.910  0.00  0.00    -0.241 N 
ATOM      8  H   UNL d   1      27.401 -17.315  -2.649  0.00  0.00     0.192 HD
ATOM      9  O   UNL d   1      27.996 -17.126   0.592  0.00  0.00    -0.264 OA
BRANCH   7  10
ATOM     10  N   UNL d   1      29.613 -17.320  -2.410  0.00  0.00    -0.176 NA
BRANCH  10  11
ATOM     11  C   UNL d   1      30.799 -16.696  -1.973  0.00  0.00     0.061 C 
ATOM     12  C   UNL d   1      32.145 -17.071  -2.674  0.00  0.00     0.073 C 
BRANCH  11  13
ATOM     13  C   UNL d   1      31.057 -15.295  -1.070  0.00  0.00    -0.009 C 
ATOM     14  C   UNL d   1      31.501 -13.990  -1.532  0.00  0.00     0.014 C 
ATOM     15  C   UNL d   1      31.368 -12.817  -0.719  0.00  0.00     0.013 C 
ATOM     16  C   UNL d   1      30.723 -12.893   0.532  0.00  0.00    -0.026 C 
ATOM     17  C   UNL d   1      30.605 -11.819   1.443  0.00  0.00     0.012 C 
ATOM     18  C   UNL d   1      30.157 -14.133   0.897  0.00  0.00    -0.025 C 
ATOM     19  C   UNL d   1      29.927 -11.990   2.657  0.00  0.00     0.001 C 
ATOM     20  C   UNL d   1      29.263 -13.183   2.928  0.00  0.00     0.001 C 
ATOM     21  C   UNL d   1      29.353 -14.237   2.030  0.00  0.00     0.012 C 
ATOM     22  C   UNL d   1      30.376 -15.291   0.139  0.00  0.00     0.026 C 
ENDBRANCH  11  13
ENDBRANCH  10  11
ENDBRANCH   7  10
ENDBRANCH   1   6
BRANCH   5  23
ATOM     23  C   UNL d   1      23.969 -16.065  -1.559  0.00  0.00     0.296 C 
BRANCH  23  24
ATOM     24  N   UNL d   1      24.937 -14.985  -1.649  0.00  0.00    -0.062 N 
ATOM     25  C   UNL d   1      25.525 -14.996  -0.349  0.00  0.00     0.235 C 
ATOM     26  C   UNL d   1      26.720 -14.183  -0.559  0.00  0.00     0.028 C 
ATOM     27  C   UNL d   1      27.796 -14.318  -1.637  0.00  0.00     0.004 C 
ATOM     28  C   UNL d   1      27.057 -14.027  -2.844  0.00  0.00     0.033 C 
ATOM     29  C   UNL d   1      25.910 -15.034  -2.881  0.00  0.00     0.184 C 
ATOM     30  C   UNL d   1      25.199 -14.675  -4.134  0.00  0.00     0.040 C 
ATOM     31  H   UNL d   1      24.449 -14.081  -1.646  0.00  0.00     0.280 HD
ENDBRANCH  23  24
ENDBRANCH   5  23
BRANCH   4  32
ATOM     32  C   UNL d   1      22.044 -18.002  -0.519  0.00  0.00     0.225 A 
ATOM     33  N   UNL d   1      21.498 -16.906  -1.058  0.00  0.00    -0.081 NA
ATOM     34  O   UNL d   1      20.151 -17.259  -1.277  0.00  0.00    -0.103 OA
ATOM     35  N   UNL d   1      19.905 -18.576  -0.895  0.00  0.00    -0.083 NA
ATOM     36  C   UNL d   1      21.063 -19.018  -0.414  0.00  0.00     0.201 A 
BRANCH  36  37
ATOM     37  N   UNL d   1      21.259 -20.265   0.063  0.00  0.00    -0.379 N 
ATOM     38  H   UNL d   1      22.142 -20.463   0.532  0.00  0.00     0.158 HD
ATOM     39  H   UNL d   1      20.886 -21.077  -0.417  0.00  0.00     0.158 HD
ENDBRANCH  36  37
ENDBRANCH   4  32
TORSDOF 8
ENDMDL
MODEL 8
REMARK VINA RESULT:   -28.460      3.521      6.220
REMARK INTER + INTRA:         -33.030
REMARK INTER:                 -30.847
REMARK INTRA:                  -2.183
REMARK CONF_INDEPENDENT:        2.386
REMARK UNBOUND:                -2.183
REMARK  8 active torsions:
REMARK  status: ('A' for Active; 'I' for Inactive)
REMARK    1  A    between atoms: C_2  and  N_3 
REMARK    2  A    between atoms: C_2  and  C_26 
REMARK    3  A    between atoms: N_3  and  N_4 
REMARK       I    between atoms: N_4  and  C_5 
REMARK    4  A    between atoms: C_5  and  C_7 
REMARK    5  A    between atoms: N_10  and  C_11 
REMARK    6  A    between atoms: C_15  and  N_16 
REMARK    7  A    between atoms: C_17  and  C_18 
REMARK    8  A    between atoms: C_18  and  N_19 
ROOT
ATOM      1  C   UNL d   1      25.599 -17.579   0.436  0.00  0.00     0.170 C 
ATOM      2  N   UNL d   1      25.115 -18.490   1.363  0.00  0.00    -0.152 NA
ATOM      3  N   UNL d   1      23.780 -18.584   1.283  0.00  0.00     0.012 NA
ATOM      4  N   UNL d   1      23.330 -17.922   0.197  0.00  0.00    -0.215 N 
ATOM      5  C   UNL d   1      24.456 -17.322  -0.411  0.00  0.00     0.096 C 
ENDROOT
BRANCH   1   6
ATOM      6  C   UNL d   1      27.231 -17.218   0.367  0.00  0.00     0.293 C 
ATOM      7  N   UNL d   1      28.198 -17.869  -0.691  0.00  0.00    -0.241 N 
ATOM      8  H   UNL d   1      27.722 -18.529  -1.268  0.00  0.00     0.192 HD
ATOM      9  O   UNL d   1      27.647 -16.462   1.303  0.00  0.00    -0.264 OA
BRANCH   7  10
ATOM     10  N   UNL d   1      29.827 -18.284  -0.592  0.00  0.00    -0.176 NA
BRANCH  10  11
ATOM     11  C   UNL d   1      30.897 -17.924  -1.437  0.00  0.00     0.061 C 
ATOM     12  C   UNL d   1      32.355 -18.243  -0.976  0.00  0.00     0.073 C 
BRANCH  11  13
ATOM     13  C   UNL d   1      30.943 -17.542  -3.079  0.00  0.00    -0.009 C 
ATOM     14  C   UNL d   1      30.757 -18.425  -4.219  0.00  0.00     0.014 C 
ATOM     15  C   UNL d   1      30.504 -17.915  -5.534  0.00  0.00     0.013 C 
ATOM     16  C   UNL d   1      30.349 -16.529  -5.738  0.00  0.00    -0.026 C 
ATOM     17  C   UNL d   1      30.173 -15.916  -6.999  0.00  0.00     0.012 C 
ATOM     18  C   UNL d   1      30.375 -15.698  -4.598  0.00  0.00    -0.025 C 
ATOM     19  C   UNL d   1      30.010 -14.528  -7.096  0.00  0.00     0.001 C 
ATOM     20  C   UNL d   1      29.903 -13.752  -5.946  0.00  0.00     0.001 C 
ATOM     21  C   UNL d   1      30.052 -14.347  -4.701  0.00  0.00     0.012 C 
ATOM     22  C   UNL d   1      30.717 -16.197  -3.334  0.00  0.00     0.026 C 
ENDBRANCH  11  13
ENDBRANCH  10  11
ENDBRANCH   7  10
ENDBRANCH   1   6
BRANCH   5  23
ATOM     23  C   UNL d   1      24.154 -16.505  -1.615  0.00  0.00     0.296 C 
BRANCH  23  24
ATOM     24  N   UNL d   1      25.332 -15.876  -2.188  0.00  0.00    -0.062 N 
ATOM     25  C   UNL d   1      25.156 -16.117  -3.583  0.00  0.00     0.235 C 
ATOM     26  C   UNL d   1      26.118 -15.186  -4.166  0.00  0.00     0.028 C 
ATOM     27  C   UNL d   1      26.293 -13.691  -3.897  0.00  0.00     0.004 C 
ATOM     28  C   UNL d   1      26.710 -13.677  -2.514  0.00  0.00     0.033 C 
ATOM     29  C   UNL d   1      25.606 -14.395  -1.741  0.00  0.00     0.184 C 
ATOM     30  C   UNL d   1      26.101 -14.347  -0.342  0.00  0.00     0.040 C 
ATOM     31  H   UNL d   1      26.162 -16.445  -1.984  0.00  0.00     0.280 HD
ENDBRANCH  23  24
ENDBRANCH   5  23
BRANCH   4  32
ATOM     32  C   UNL d   1      21.955 -17.892  -0.281  0.00  0.00     0.225 A 
ATOM     33  N   UNL d   1      21.535 -16.950  -1.133  0.00  0.00    -0.081 NA
ATOM     34  O   UNL d   1      20.240 -17.368  -1.503  0.00  0.00    -0.103 OA
ATOM     35  N   UNL d   1      19.905 -18.575  -0.895  0.00  0.00    -0.083 NA
ATOM     36  C   UNL d   1      20.951 -18.880  -0.133  0.00  0.00     0.201 A 
BRANCH  36  37
ATOM     37  N   UNL d   1      21.036 -19.990   0.630  0.00  0.00    -0.379 N 
ATOM     38  H   UNL d   1      21.145 -19.871   1.636  0.00  0.00     0.158 HD
ATOM     39  H   UNL d   1      21.490 -20.830   0.288  0.00  0.00     0.158 HD
ENDBRANCH  36  37
ENDBRANCH   4  32
TORSDOF 8
ENDMDL
MODEL 9
REMARK VINA RESULT:   -28.410      3.118      5.428
REMARK INTER + INTRA:         -33.817
REMARK INTER:                 -30.797
REMARK INTRA:                  -3.020
REMARK CONF_INDEPENDENT:        2.386
REMARK UNBOUND:                -3.020
REMARK  8 active torsions:
REMARK  status: ('A' for Active; 'I' for Inactive)
REMARK    1  A    between atoms: C_2  and  N_3 
REMARK    2  A    between atoms: C_2  and  C_26 
REMARK    3  A    between atoms: N_3  and  N_4 
REMARK       I    between atoms: N_4  and  C_5 
REMARK    4  A    between atoms: C_5  and  C_7 
REMARK    5  A    between atoms: N_10  and  C_11 
REMARK    6  A    between atoms: C_15  and  N_16 
REMARK    7  A    between atoms: C_17  and  C_18 
REMARK    8  A    between atoms: C_18  and  N_19 
ROOT
ATOM      1  C   UNL d   1      25.791 -17.865  -0.375  0.00  0.00     0.170 C 
ATOM      2  N   UNL d   1      25.469 -19.173  -0.041  0.00  0.00    -0.152 NA
ATOM      3  N   UNL d   1      24.140 -19.332   0.029  0.00  0.00     0.012 NA
ATOM      4  N   UNL d   1      23.514 -18.232  -0.439  0.00  0.00    -0.215 N 
ATOM      5  C   UNL d   1      24.522 -17.298  -0.770  0.00  0.00     0.096 C 
ENDROOT
BRANCH   1   6
ATOM      6  C   UNL d   1      27.388 -17.376  -0.464  0.00  0.00     0.293 C 
ATOM      7  N   UNL d   1      28.151 -16.752   0.763  0.00  0.00    -0.241 N 
ATOM      8  H   UNL d   1      27.557 -16.661   1.559  0.00  0.00     0.192 HD
ATOM      9  O   UNL d   1      27.901 -17.449  -1.627  0.00  0.00    -0.264 OA
BRANCH   7  10
ATOM     10  N   UNL d   1      29.365 -15.587   0.833  0.00  0.00    -0.176 NA
BRANCH  10  11
ATOM     11  C   UNL d   1      30.374 -15.285  -0.105  0.00  0.00     0.061 C 
ATOM     12  C   UNL d   1      31.757 -15.999   0.028  0.00  0.00     0.073 C 
BRANCH  11  13
ATOM     13  C   UNL d   1      30.303 -14.569  -1.630  0.00  0.00    -0.009 C 
ATOM     14  C   UNL d   1      31.387 -13.994  -2.410  0.00  0.00     0.014 C 
ATOM     15  C   UNL d   1      31.243 -13.715  -3.809  0.00  0.00     0.013 C 
ATOM     16  C   UNL d   1      30.058 -14.071  -4.484  0.00  0.00    -0.026 C 
ATOM     17  C   UNL d   1      29.783 -13.775  -5.837  0.00  0.00     0.012 C 
ATOM     18  C   UNL d   1      29.078 -14.771  -3.748  0.00  0.00    -0.025 C 
ATOM     19  C   UNL d   1      28.579 -14.189  -6.423  0.00  0.00     0.001 C 
ATOM     20  C   UNL d   1      27.693 -14.994  -5.713  0.00  0.00     0.001 C 
ATOM     21  C   UNL d   1      27.964 -15.310  -4.390  0.00  0.00     0.012 C 
ATOM     22  C   UNL d   1      29.190 -14.953  -2.363  0.00  0.00     0.026 C 
ENDBRANCH  11  13
ENDBRANCH  10  11
ENDBRANCH   7  10
ENDBRANCH   1   6
BRANCH   5  23
ATOM     23  C   UNL d   1      24.020 -15.992  -1.272  0.00  0.00     0.296 C 
BRANCH  23  24
ATOM     24  N   UNL d   1      25.045 -15.207  -1.941  0.00  0.00    -0.062 N 
ATOM     25  C   UNL d   1      24.389 -14.816  -3.145  0.00  0.00     0.235 C 
ATOM     26  C   UNL d   1      25.264 -13.750  -3.625  0.00  0.00     0.028 C 
ATOM     27  C   UNL d   1      25.784 -12.524  -2.874  0.00  0.00     0.004 C 
ATOM     28  C   UNL d   1      26.620 -13.121  -1.858  0.00  0.00     0.033 C 
ATOM     29  C   UNL d   1      25.713 -14.074  -1.083  0.00  0.00     0.184 C 
ATOM     30  C   UNL d   1      26.632 -14.648  -0.068  0.00  0.00     0.040 C 
ATOM     31  H   UNL d   1      25.779 -15.830  -2.299  0.00  0.00     0.280 HD
ENDBRANCH  23  24
ENDBRANCH   5  23
BRANCH   4  32
ATOM     32  C   UNL d   1      22.078 -18.075  -0.622  0.00  0.00     0.225 A 
ATOM     33  N   UNL d   1      21.569 -17.004  -1.241  0.00  0.00    -0.081 NA
ATOM     34  O   UNL d   1      20.201 -17.309  -1.395  0.00  0.00    -0.103 OA
ATOM     35  N   UNL d   1      19.905 -18.575  -0.895  0.00  0.00    -0.083 NA
ATOM     36  C   UNL d   1      21.054 -19.030  -0.405  0.00  0.00     0.201 A 
BRANCH  36  37
ATOM     37  N   UNL d   1      21.206 -20.240   0.173  0.00  0.00    -0.379 N 
ATOM     38  H   UNL d   1      22.140 -20.506   0.483  0.00  0.00     0.158 HD
ATOM     39  H   UNL d   1      20.655 -21.038  -0.124  0.00  0.00     0.158 HD
ENDBRANCH  36  37
ENDBRANCH   4  32
TORSDOF 8
ENDMDL
