MODEL 1
REMARK VINA RESULT:   -10.294      0.000      0.000
REMARK INTER + INTRA:         -14.410
REMARK INTER:                 -12.681
REMARK INTRA:                  -1.730
REMARK CONF_INDEPENDENT:        2.386
REMARK UNBOUND:                -1.730
REMARK  8 active torsions:
REMARK  status: ('A' for Active; 'I' for Inactive)
REMARK    1  A    between atoms: C_2  and  C_3 
REMARK       I    between atoms: C_2  and  N_19 
REMARK    2  A    between atoms: C_3  and  C_4 
REMARK    3  A    between atoms: C_4  and  C_5 
REMARK    4  A    between atoms: C_8  and  C_9 
REMARK       I    between atoms: C_9  and  N_11 
REMARK    5  A    between atoms: N_11  and  C_12 
REMARK    6  A    between atoms: N_19  and  C_20 
REMARK    7  A    between atoms: C_20  and  C_21 
REMARK    8  A    between atoms: C_21  and  C_22 
ROOT
ATOM      1  C   UNL d   1      27.912 -16.723   0.175  0.00  0.00     0.105 C 
ENDROOT
BRANCH   1   2
ATOM      2  C   UNL d   1      27.633 -15.260  -0.100  0.00  0.00     0.217 C 
ATOM      3  O   UNL d   1      27.267 -14.816  -1.171  0.00  0.00    -0.274 OA
ATOM      4  N   UNL d   1      27.820 -14.412   0.956  0.00  0.00    -0.361 N 
ATOM      5  H   UNL d   1      27.618 -13.443   0.722  0.00  0.00     0.162 HD
BRANCH   4   6
ATOM      6  C   UNL d   1      28.238 -14.807   2.277  0.00  0.00     0.127 C 
BRANCH   6   7
ATOM      7  C   UNL d   1      27.415 -14.119   3.328  0.00  0.00     0.056 C 
BRANCH   7   8
ATOM      8  C   UNL d   1      27.979 -14.081   4.707  0.00  0.00    -0.048 A 
ATOM      9  C   UNL d   1      28.174 -12.901   5.289  0.00  0.00    -0.004 A 
ATOM     10  C   UNL d   1      27.928 -11.595   4.797  0.00  0.00     0.037 A 
ATOM     11  C   UNL d   1      28.804 -13.166   6.582  0.00  0.00     0.038 A 
ATOM     12  C   UNL d   1      28.371 -10.559   5.512  0.00  0.00     0.035 A 
ATOM     13 CL   UNL d   1      28.302  -8.986   4.824  0.00  0.00    -0.084 Cl
ATOM     14  C   UNL d   1      28.958 -10.759   6.830  0.00  0.00     0.026 A 
ATOM     15  C   UNL d   1      29.188 -11.976   7.377  0.00  0.00     0.031 A 
ATOM     16  N   UNL d   1      28.917 -14.424   6.796  0.00  0.00    -0.385 N 
ATOM     17  C   UNL d   1      28.412 -15.199   5.613  0.00  0.00     0.155 A 
ATOM     18  H   UNL d   1      29.293 -14.805   7.664  0.00  0.00     0.160 HD
ENDBRANCH   7   8
ENDBRANCH   6   7
ENDBRANCH   4   6
ENDBRANCH   1   2
BRANCH   1  19
ATOM     19  C   UNL d   1      26.647 -17.455   0.591  0.00  0.00     0.041 C 
BRANCH  19  20
ATOM     20  C   UNL d   1      25.597 -17.354  -0.514  0.00  0.00     0.135 C 
ATOM     21  N   UNL d   1      24.891 -16.066  -0.547  0.00  0.00    -0.245 NA
ATOM     22  N   UNL d   1      23.455 -16.247  -0.903  0.00  0.00    -0.237 NA
ATOM     23  H   UNL d   1      25.381 -15.409  -1.160  0.00  0.00     0.142 HD
ATOM     24  C   UNL d   1      23.173 -17.680  -1.140  0.00  0.00     0.226 C 
ATOM     25  H   UNL d   1      23.209 -15.722  -1.748  0.00  0.00     0.142 HD
ATOM     26  S   UNL d   1      24.402 -18.649  -0.279  0.00  0.00    -0.117 SA
BRANCH  24  27
ATOM     27  C   UNL d   1      21.785 -18.170  -0.727  0.00  0.00     0.251 C 
ATOM     28  O   UNL d   1      20.789 -17.655  -1.249  0.00  0.00    -0.270 OA
ATOM     29  N   UNL d   1      21.705 -19.131   0.264  0.00  0.00    -0.325 N 
ATOM     30  H   UNL d   1      22.545 -19.391   0.767  0.00  0.00     0.169 HD
BRANCH  29  31
ATOM     31  C   UNL d   1      20.476 -19.706   0.647  0.00  0.00     0.034 A 
ATOM     32  C   UNL d   1      20.136 -19.804   1.996  0.00  0.00     0.029 A 
ATOM     33  C   UNL d   1      18.935 -20.420   2.369  0.00  0.00     0.002 A 
ATOM     34  C   UNL d   1      18.064 -20.914   1.398  0.00  0.00     0.000 A 
ATOM     35  C   UNL d   1      18.400 -20.820   0.051  0.00  0.00     0.002 A 
ATOM     36  C   UNL d   1      19.600 -20.217  -0.320  0.00  0.00     0.029 A 
ENDBRANCH  29  31
ENDBRANCH  24  27
ENDBRANCH  19  20
ENDBRANCH   1  19
TORSDOF 8
ENDMDL
MODEL 2
REMARK VINA RESULT:   -10.042      5.555      7.633
REMARK INTER + INTRA:         -13.501
REMARK INTER:                 -12.428
REMARK INTRA:                  -1.073
REMARK CONF_INDEPENDENT:        2.386
REMARK UNBOUND:                -1.073
REMARK  8 active torsions:
REMARK  status: ('A' for Active; 'I' for Inactive)
REMARK    1  A    between atoms: C_2  and  C_3 
REMARK       I    between atoms: C_2  and  N_19 
REMARK    2  A    between atoms: C_3  and  C_4 
REMARK    3  A    between atoms: C_4  and  C_5 
REMARK    4  A    between atoms: C_8  and  C_9 
REMARK       I    between atoms: C_9  and  N_11 
REMARK    5  A    between atoms: N_11  and  C_12 
REMARK    6  A    between atoms: N_19  and  C_20 
REMARK    7  A    between atoms: C_20  and  C_21 
REMARK    8  A    between atoms: C_21  and  C_22 
ROOT
ATOM      1  C   UNL d   1      26.041 -14.321  -2.401  0.00  0.00     0.105 C 
ENDROOT
BRANCH   1   2
ATOM      2  C   UNL d   1      25.515 -13.756  -3.704  0.00  0.00     0.217 C 
ATOM      3  O   UNL d   1      24.507 -14.141  -4.267  0.00  0.00    -0.274 OA
ATOM      4  N   UNL d   1      26.253 -12.747  -4.255  0.00  0.00    -0.361 N 
ATOM      5  H   UNL d   1      25.858 -12.401  -5.126  0.00  0.00     0.162 HD
BRANCH   4   6
ATOM      6  C   UNL d   1      27.456 -12.190  -3.688  0.00  0.00     0.127 C 
BRANCH   6   7
ATOM      7  C   UNL d   1      28.593 -13.168  -3.775  0.00  0.00     0.056 C 
BRANCH   7   8
ATOM      8  C   UNL d   1      28.835 -13.801  -5.103  0.00  0.00    -0.048 A 
ATOM      9  C   UNL d   1      29.522 -14.940  -5.154  0.00  0.00    -0.004 A 
ATOM     10  C   UNL d   1      30.100 -15.700  -4.107  0.00  0.00     0.037 A 
ATOM     11  C   UNL d   1      29.673 -15.278  -6.569  0.00  0.00     0.038 A 
ATOM     12  C   UNL d   1      30.891 -16.723  -4.434  0.00  0.00     0.035 A 
ATOM     13 CL   UNL d   1      31.792 -17.503  -3.198  0.00  0.00    -0.084 Cl
ATOM     14  C   UNL d   1      31.037 -17.138  -5.823  0.00  0.00     0.026 A 
ATOM     15  C   UNL d   1      30.484 -16.481  -6.869  0.00  0.00     0.031 A 
ATOM     16  N   UNL d   1      29.059 -14.438  -7.318  0.00  0.00    -0.385 N 
ATOM     17  C   UNL d   1      28.439 -13.356  -6.481  0.00  0.00     0.155 A 
ATOM     18  H   UNL d   1      29.014 -14.531  -8.332  0.00  0.00     0.160 HD
ENDBRANCH   7   8
ENDBRANCH   6   7
ENDBRANCH   4   6
ENDBRANCH   1   2
BRANCH   1  19
ATOM     19  C   UNL d   1      26.042 -15.840  -2.422  0.00  0.00     0.041 C 
BRANCH  19  20
ATOM     20  C   UNL d   1      25.471 -16.381  -1.112  0.00  0.00     0.135 C 
ATOM     21  N   UNL d   1      26.013 -17.690  -0.723  0.00  0.00    -0.245 NA
ATOM     22  N   UNL d   1      24.965 -18.543  -0.094  0.00  0.00    -0.237 NA
ATOM     23  H   UNL d   1      26.843 -17.569  -0.136  0.00  0.00     0.142 HD
ATOM     24  C   UNL d   1      23.686 -17.803  -0.031  0.00  0.00     0.226 C 
ATOM     25  H   UNL d   1      25.228 -18.822   0.856  0.00  0.00     0.142 HD
ATOM     26  S   UNL d   1      23.707 -16.528  -1.282  0.00  0.00    -0.117 SA
BRANCH  24  27
ATOM     27  C   UNL d   1      22.416 -18.636  -0.203  0.00  0.00     0.251 C 
ATOM     28  O   UNL d   1      22.212 -19.198  -1.286  0.00  0.00    -0.270 OA
ATOM     29  N   UNL d   1      21.516 -18.673   0.846  0.00  0.00    -0.325 N 
ATOM     30  H   UNL d   1      21.660 -18.061   1.640  0.00  0.00     0.169 HD
BRANCH  29  31
ATOM     31  C   UNL d   1      20.363 -19.484   0.812  0.00  0.00     0.034 A 
ATOM     32  C   UNL d   1      19.677 -19.679  -0.387  0.00  0.00     0.029 A 
ATOM     33  C   UNL d   1      18.507 -20.447  -0.402  0.00  0.00     0.002 A 
ATOM     34  C   UNL d   1      18.035 -21.039   0.770  0.00  0.00     0.000 A 
ATOM     35  C   UNL d   1      18.715 -20.844   1.967  0.00  0.00     0.002 A 
ATOM     36  C   UNL d   1      19.875 -20.072   1.985  0.00  0.00     0.029 A 
ENDBRANCH  29  31
ENDBRANCH  24  27
ENDBRANCH  19  20
ENDBRANCH   1  19
TORSDOF 8
ENDMDL
MODEL 3
REMARK VINA RESULT:    -9.924      6.387      8.332
REMARK INTER + INTRA:         -13.201
REMARK INTER:                 -12.310
REMARK INTRA:                  -0.891
REMARK CONF_INDEPENDENT:        2.386
REMARK UNBOUND:                -0.891
REMARK  8 active torsions:
REMARK  status: ('A' for Active; 'I' for Inactive)
REMARK    1  A    between atoms: C_2  and  C_3 
REMARK       I    between atoms: C_2  and  N_19 
REMARK    2  A    between atoms: C_3  and  C_4 
REMARK    3  A    between atoms: C_4  and  C_5 
REMARK    4  A    between atoms: C_8  and  C_9 
REMARK       I    between atoms: C_9  and  N_11 
REMARK    5  A    between atoms: N_11  and  C_12 
REMARK    6  A    between atoms: N_19  and  C_20 
REMARK    7  A    between atoms: C_20  and  C_21 
REMARK    8  A    between atoms: C_21  and  C_22 
ROOT
ATOM      1  C   UNL d   1      26.294 -14.055  -2.771  0.00  0.00     0.105 C 
ENDROOT
BRANCH   1   2
ATOM      2  C   UNL d   1      25.375 -13.672  -3.911  0.00  0.00     0.217 C 
ATOM      3  O   UNL d   1      24.641 -14.445  -4.497  0.00  0.00    -0.274 OA
ATOM      4  N   UNL d   1      25.404 -12.356  -4.279  0.00  0.00    -0.361 N 
ATOM      5  H   UNL d   1      24.769 -12.149  -5.047  0.00  0.00     0.162 HD
BRANCH   4   6
ATOM      6  C   UNL d   1      26.215 -11.337  -3.663  0.00  0.00     0.127 C 
BRANCH   6   7
ATOM      7  C   UNL d   1      25.659  -9.969  -3.941  0.00  0.00     0.056 C 
BRANCH   7   8
ATOM      8  C   UNL d   1      26.089  -9.313  -5.209  0.00  0.00    -0.048 A 
ATOM      9  C   UNL d   1      25.362  -8.307  -5.689  0.00  0.00    -0.004 A 
ATOM     10  C   UNL d   1      24.179  -7.717  -5.178  0.00  0.00     0.037 A 
ATOM     11  C   UNL d   1      25.966  -7.921  -6.964  0.00  0.00     0.038 A 
ATOM     12  C   UNL d   1      23.540  -6.827  -5.939  0.00  0.00     0.035 A 
ATOM     13 CL   UNL d   1      21.985  -6.283  -5.452  0.00  0.00    -0.084 Cl
ATOM     14  C   UNL d   1      24.120  -6.366  -7.194  0.00  0.00     0.026 A 
ATOM     15  C   UNL d   1      25.264  -6.859  -7.722  0.00  0.00     0.031 A 
ATOM     16  N   UNL d   1      27.026  -8.600  -7.203  0.00  0.00    -0.385 N 
ATOM     17  C   UNL d   1      27.253  -9.606  -6.111  0.00  0.00     0.155 A 
ATOM     18  H   UNL d   1      27.609  -8.444  -8.024  0.00  0.00     0.160 HD
ENDBRANCH   7   8
ENDBRANCH   6   7
ENDBRANCH   4   6
ENDBRANCH   1   2
BRANCH   1  19
ATOM     19  C   UNL d   1      26.468 -15.562  -2.688  0.00  0.00     0.041 C 
BRANCH  19  20
ATOM     20  C   UNL d   1      25.926 -16.080  -1.357  0.00  0.00     0.135 C 
ATOM     21  N   UNL d   1      26.538 -17.341  -0.916  0.00  0.00    -0.245 NA
ATOM     22  N   UNL d   1      25.537 -18.223  -0.252  0.00  0.00    -0.237 NA
ATOM     23  H   UNL d   1      27.360 -17.152  -0.336  0.00  0.00     0.142 HD
ATOM     24  C   UNL d   1      24.220 -17.551  -0.216  0.00  0.00     0.226 C 
ATOM     25  H   UNL d   1      25.815 -18.449   0.709  0.00  0.00     0.142 HD
ATOM     26  S   UNL d   1      24.173 -16.328  -1.518  0.00  0.00    -0.117 SA
BRANCH  24  27
ATOM     27  C   UNL d   1      22.997 -18.457  -0.352  0.00  0.00     0.251 C 
ATOM     28  O   UNL d   1      22.987 -19.318  -1.240  0.00  0.00    -0.270 OA
ATOM     29  N   UNL d   1      21.924 -18.230   0.490  0.00  0.00    -0.325 N 
ATOM     30  H   UNL d   1      21.927 -17.408   1.081  0.00  0.00     0.169 HD
BRANCH  29  31
ATOM     31  C   UNL d   1      20.791 -19.070   0.497  0.00  0.00     0.034 A 
ATOM     32  C   UNL d   1      20.084 -19.306  -0.682  0.00  0.00     0.029 A 
ATOM     33  C   UNL d   1      18.933 -20.103  -0.657  0.00  0.00     0.002 A 
ATOM     34  C   UNL d   1      18.502 -20.683   0.537  0.00  0.00     0.000 A 
ATOM     35  C   UNL d   1      19.203 -20.448   1.715  0.00  0.00     0.002 A 
ATOM     36  C   UNL d   1      20.343 -19.647   1.692  0.00  0.00     0.029 A 
ENDBRANCH  29  31
ENDBRANCH  24  27
ENDBRANCH  19  20
ENDBRANCH   1  19
TORSDOF 8
ENDMDL
MODEL 4
REMARK VINA RESULT:    -9.655      4.676      6.874
REMARK INTER + INTRA:         -13.797
REMARK INTER:                 -12.041
REMARK INTRA:                  -1.756
REMARK CONF_INDEPENDENT:        2.386
REMARK UNBOUND:                -1.756
REMARK  8 active torsions:
REMARK  status: ('A' for Active; 'I' for Inactive)
REMARK    1  A    between atoms: C_2  and  C_3 
REMARK       I    between atoms: C_2  and  N_19 
REMARK    2  A    between atoms: C_3  and  C_4 
REMARK    3  A    between atoms: C_4  and  C_5 
REMARK    4  A    between atoms: C_8  and  C_9 
REMARK       I    between atoms: C_9  and  N_11 
REMARK    5  A    between atoms: N_11  and  C_12 
REMARK    6  A    between atoms: N_19  and  C_20 
REMARK    7  A    between atoms: C_20  and  C_21 
REMARK    8  A    between atoms: C_21  and  C_22 
ROOT
ATOM      1  C   UNL d   1      27.575 -16.849   0.110  0.00  0.00     0.105 C 
ENDROOT
BRANCH   1   2
ATOM      2  C   UNL d   1      27.158 -15.454  -0.304  0.00  0.00     0.217 C 
ATOM      3  O   UNL d   1      26.593 -14.657   0.422  0.00  0.00    -0.274 OA
ATOM      4  N   UNL d   1      27.452 -15.105  -1.592  0.00  0.00    -0.361 N 
ATOM      5  H   UNL d   1      27.155 -14.159  -1.820  0.00  0.00     0.162 HD
BRANCH   4   6
ATOM      6  C   UNL d   1      28.127 -15.944  -2.549  0.00  0.00     0.127 C 
BRANCH   6   7
ATOM      7  C   UNL d   1      27.584 -15.726  -3.932  0.00  0.00     0.056 C 
BRANCH   7   8
ATOM      8  C   UNL d   1      26.602 -14.617  -4.101  0.00  0.00    -0.048 A 
ATOM      9  C   UNL d   1      26.856 -13.667  -4.997  0.00  0.00    -0.004 A 
ATOM     10  C   UNL d   1      27.963 -13.513  -5.868  0.00  0.00     0.037 A 
ATOM     11  C   UNL d   1      25.779 -12.684  -4.887  0.00  0.00     0.038 A 
ATOM     12  C   UNL d   1      28.069 -12.375  -6.557  0.00  0.00     0.035 A 
ATOM     13 CL   UNL d   1      29.517 -12.064  -7.427  0.00  0.00    -0.084 Cl
ATOM     14  C   UNL d   1      27.003 -11.383  -6.527  0.00  0.00     0.026 A 
ATOM     15  C   UNL d   1      25.901 -11.483  -5.747  0.00  0.00     0.031 A 
ATOM     16  N   UNL d   1      24.897 -13.051  -4.032  0.00  0.00    -0.385 N 
ATOM     17  C   UNL d   1      25.306 -14.347  -3.392  0.00  0.00     0.155 A 
ATOM     18  H   UNL d   1      24.049 -12.516  -3.849  0.00  0.00     0.160 HD
ENDBRANCH   7   8
ENDBRANCH   6   7
ENDBRANCH   4   6
ENDBRANCH   1   2
BRANCH   1  19
ATOM     19  C   UNL d   1      26.369 -17.696   0.481  0.00  0.00     0.041 C 
BRANCH  19  20
ATOM     20  C   UNL d   1      25.253 -17.493  -0.543  0.00  0.00     0.135 C 
ATOM     21  N   UNL d   1      24.541 -16.216  -0.401  0.00  0.00    -0.245 NA
ATOM     22  N   UNL d   1      23.087 -16.374  -0.687  0.00  0.00    -0.237 NA
ATOM     23  H   UNL d   1      24.991 -15.495  -0.972  0.00  0.00     0.142 HD
ATOM     24  C   UNL d   1      22.796 -17.778  -1.052  0.00  0.00     0.226 C 
ATOM     25  H   UNL d   1      22.788 -15.768  -1.457  0.00  0.00     0.142 HD
ATOM     26  S   UNL d   1      24.080 -18.817  -0.369  0.00  0.00    -0.117 SA
BRANCH  24  27
ATOM     27  C   UNL d   1      21.438 -18.322  -0.608  0.00  0.00     0.251 C 
ATOM     28  O   UNL d   1      20.410 -17.823  -1.082  0.00  0.00    -0.270 OA
ATOM     29  N   UNL d   1      21.420 -19.311   0.357  0.00  0.00    -0.325 N 
ATOM     30  H   UNL d   1      22.283 -19.560   0.825  0.00  0.00     0.169 HD
BRANCH  29  31
ATOM     31  C   UNL d   1      20.221 -19.934   0.763  0.00  0.00     0.034 A 
ATOM     32  C   UNL d   1      19.414 -20.582  -0.171  0.00  0.00     0.029 A 
ATOM     33  C   UNL d   1      18.203 -21.156   0.233  0.00  0.00     0.002 A 
ATOM     34  C   UNL d   1      17.809 -21.105   1.570  0.00  0.00     0.000 A 
ATOM     35  C   UNL d   1      18.610 -20.457   2.505  0.00  0.00     0.002 A 
ATOM     36  C   UNL d   1      19.811 -19.877   2.101  0.00  0.00     0.029 A 
ENDBRANCH  29  31
ENDBRANCH  24  27
ENDBRANCH  19  20
ENDBRANCH   1  19
TORSDOF 8
ENDMDL
MODEL 5
REMARK VINA RESULT:    -9.361      4.836      7.723
REMARK INTER + INTRA:         -13.407
REMARK INTER:                 -11.748
REMARK INTRA:                  -1.659
REMARK CONF_INDEPENDENT:        2.386
REMARK UNBOUND:                -1.659
REMARK  8 active torsions:
REMARK  status: ('A' for Active; 'I' for Inactive)
REMARK    1  A    between atoms: C_2  and  C_3 
REMARK       I    between atoms: C_2  and  N_19 
REMARK    2  A    between atoms: C_3  and  C_4 
REMARK    3  A    between atoms: C_4  and  C_5 
REMARK    4  A    between atoms: C_8  and  C_9 
REMARK       I    between atoms: C_9  and  N_11 
REMARK    5  A    between atoms: N_11  and  C_12 
REMARK    6  A    between atoms: N_19  and  C_20 
REMARK    7  A    between atoms: C_20  and  C_21 
REMARK    8  A    between atoms: C_21  and  C_22 
ROOT
ATOM      1  C   UNL d   1      27.157 -16.024   0.542  0.00  0.00     0.105 C 
ENDROOT
BRANCH   1   2
ATOM      2  C   UNL d   1      27.465 -15.267  -0.732  0.00  0.00     0.217 C 
ATOM      3  O   UNL d   1      26.902 -14.247  -1.084  0.00  0.00    -0.274 OA
ATOM      4  N   UNL d   1      28.449 -15.800  -1.516  0.00  0.00    -0.361 N 
ATOM      5  H   UNL d   1      28.620 -15.255  -2.358  0.00  0.00     0.162 HD
BRANCH   4   6
ATOM      6  C   UNL d   1      29.201 -16.991  -1.212  0.00  0.00     0.127 C 
BRANCH   6   7
ATOM      7  C   UNL d   1      30.440 -17.074  -2.058  0.00  0.00     0.056 C 
BRANCH   7   8
ATOM      8  C   UNL d   1      30.278 -16.805  -3.516  0.00  0.00    -0.048 A 
ATOM      9  C   UNL d   1      30.450 -17.807  -4.375  0.00  0.00    -0.004 A 
ATOM     10  C   UNL d   1      30.781 -19.163  -4.134  0.00  0.00     0.037 A 
ATOM     11  C   UNL d   1      30.313 -17.240  -5.716  0.00  0.00     0.038 A 
ATOM     12  C   UNL d   1      31.066 -19.938  -5.182  0.00  0.00     0.035 A 
ATOM     13 CL   UNL d   1      31.703 -21.508  -4.904  0.00  0.00    -0.084 Cl
ATOM     14  C   UNL d   1      30.897 -19.444  -6.542  0.00  0.00     0.026 A 
ATOM     15  C   UNL d   1      30.547 -18.172  -6.844  0.00  0.00     0.031 A 
ATOM     16  N   UNL d   1      30.011 -15.996  -5.668  0.00  0.00    -0.385 N 
ATOM     17  C   UNL d   1      29.956 -15.531  -4.241  0.00  0.00     0.155 A 
ATOM     18  H   UNL d   1      29.832 -15.438  -6.503  0.00  0.00     0.160 HD
ENDBRANCH   7   8
ENDBRANCH   6   7
ENDBRANCH   4   6
ENDBRANCH   1   2
BRANCH   1  19
ATOM     19  C   UNL d   1      26.594 -17.402   0.240  0.00  0.00     0.041 C 
BRANCH  19  20
ATOM     20  C   UNL d   1      25.470 -17.294  -0.790  0.00  0.00     0.135 C 
ATOM     21  N   UNL d   1      24.733 -16.025  -0.734  0.00  0.00    -0.245 NA
ATOM     22  N   UNL d   1      23.281 -16.231  -1.002  0.00  0.00    -0.237 NA
ATOM     23  H   UNL d   1      25.166 -15.336  -1.356  0.00  0.00     0.142 HD
ATOM     24  C   UNL d   1      23.018 -17.663  -1.267  0.00  0.00     0.226 C 
ATOM     25  H   UNL d   1      22.967 -15.686  -1.811  0.00  0.00     0.142 HD
ATOM     26  S   UNL d   1      24.325 -18.626  -0.520  0.00  0.00    -0.117 SA
BRANCH  24  27
ATOM     27  C   UNL d   1      21.673 -18.202  -0.781  0.00  0.00     0.251 C 
ATOM     28  O   UNL d   1      20.633 -17.744  -1.270  0.00  0.00    -0.270 OA
ATOM     29  N   UNL d   1      21.679 -19.140   0.235  0.00  0.00    -0.325 N 
ATOM     30  H   UNL d   1      22.551 -19.351   0.706  0.00  0.00     0.169 HD
BRANCH  29  31
ATOM     31  C   UNL d   1      20.494 -19.757   0.686  0.00  0.00     0.034 A 
ATOM     32  C   UNL d   1      19.553 -20.226  -0.230  0.00  0.00     0.029 A 
ATOM     33  C   UNL d   1      18.359 -20.795   0.227  0.00  0.00     0.002 A 
ATOM     34  C   UNL d   1      18.114 -20.918   1.595  0.00  0.00     0.000 A 
ATOM     35  C   UNL d   1      19.049 -20.449   2.512  0.00  0.00     0.002 A 
ATOM     36  C   UNL d   1      20.234 -19.874   2.057  0.00  0.00     0.029 A 
ENDBRANCH  29  31
ENDBRANCH  24  27
ENDBRANCH  19  20
ENDBRANCH   1  19
TORSDOF 8
ENDMDL
MODEL 6
REMARK VINA RESULT:    -9.328      5.155      7.837
REMARK INTER + INTRA:         -13.205
REMARK INTER:                 -11.714
REMARK INTRA:                  -1.491
REMARK CONF_INDEPENDENT:        2.386
REMARK UNBOUND:                -1.491
REMARK  8 active torsions:
REMARK  status: ('A' for Active; 'I' for Inactive)
REMARK    1  A    between atoms: C_2  and  C_3 
REMARK       I    between atoms: C_2  and  N_19 
REMARK    2  A    between atoms: C_3  and  C_4 
REMARK    3  A    between atoms: C_4  and  C_5 
REMARK    4  A    between atoms: C_8  and  C_9 
REMARK       I    between atoms: C_9  and  N_11 
REMARK    5  A    between atoms: N_11  and  C_12 
REMARK    6  A    between atoms: N_19  and  C_20 
REMARK    7  A    between atoms: C_20  and  C_21 
REMARK    8  A    between atoms: C_21  and  C_22 
ROOT
ATOM      1  C   UNL d   1      26.488 -15.702  -3.112  0.00  0.00     0.105 C 
ENDROOT
BRANCH   1   2
ATOM      2  C   UNL d   1      25.941 -15.139  -4.407  0.00  0.00     0.217 C 
ATOM      3  O   UNL d   1      24.780 -14.823  -4.587  0.00  0.00    -0.274 OA
ATOM      4  N   UNL d   1      26.847 -14.993  -5.419  0.00  0.00    -0.361 N 
ATOM      5  H   UNL d   1      26.432 -14.610  -6.265  0.00  0.00     0.162 HD
BRANCH   4   6
ATOM      6  C   UNL d   1      28.249 -15.315  -5.335  0.00  0.00     0.127 C 
BRANCH   6   7
ATOM      7  C   UNL d   1      29.094 -14.095  -5.569  0.00  0.00     0.056 C 
BRANCH   7   8
ATOM      8  C   UNL d   1      28.636 -13.153  -6.630  0.00  0.00    -0.048 A 
ATOM      9  C   UNL d   1      27.829 -12.150  -6.292  0.00  0.00    -0.004 A 
ATOM     10  C   UNL d   1      27.295 -11.802  -5.027  0.00  0.00     0.037 A 
ATOM     11  C   UNL d   1      27.484 -11.452  -7.529  0.00  0.00     0.038 A 
ATOM     12  C   UNL d   1      26.366 -10.846  -4.977  0.00  0.00     0.035 A 
ATOM     13 CL   UNL d   1      25.531 -10.575  -3.501  0.00  0.00    -0.084 Cl
ATOM     14  C   UNL d   1      26.020 -10.080  -6.167  0.00  0.00     0.026 A 
ATOM     15  C   UNL d   1      26.519 -10.334  -7.400  0.00  0.00     0.031 A 
ATOM     16  N   UNL d   1      28.096 -11.955  -8.536  0.00  0.00    -0.385 N 
ATOM     17  C   UNL d   1      28.920 -13.134  -8.104  0.00  0.00     0.155 A 
ATOM     18  H   UNL d   1      28.016 -11.574  -9.478  0.00  0.00     0.160 HD
ENDBRANCH   7   8
ENDBRANCH   6   7
ENDBRANCH   4   6
ENDBRANCH   1   2
BRANCH   1  19
ATOM     19  C   UNL d   1      25.881 -15.001  -1.908  0.00  0.00     0.041 C 
BRANCH  19  20
ATOM     20  C   UNL d   1      25.605 -16.013  -0.797  0.00  0.00     0.135 C 
ATOM     21  N   UNL d   1      26.240 -17.320  -1.013  0.00  0.00    -0.245 NA
ATOM     22  N   UNL d   1      25.361 -18.430  -0.547  0.00  0.00    -0.237 NA
ATOM     23  H   UNL d   1      27.172 -17.335  -0.590  0.00  0.00     0.142 HD
ATOM     24  C   UNL d   1      24.110 -17.878   0.018  0.00  0.00     0.226 C 
ATOM     25  H   UNL d   1      25.821 -18.997   0.172  0.00  0.00     0.142 HD
ATOM     26  S   UNL d   1      23.848 -16.250  -0.673  0.00  0.00    -0.117 SA
BRANCH  24  27
ATOM     27  C   UNL d   1      22.847 -18.711  -0.199  0.00  0.00     0.251 C 
ATOM     28  O   UNL d   1      22.788 -19.463  -1.179  0.00  0.00    -0.270 OA
ATOM     29  N   UNL d   1      21.796 -18.537   0.682  0.00  0.00    -0.325 N 
ATOM     30  H   UNL d   1      21.842 -17.789   1.363  0.00  0.00     0.169 HD
BRANCH  29  31
ATOM     31  C   UNL d   1      20.628 -19.324   0.614  0.00  0.00     0.034 A 
ATOM     32  C   UNL d   1      19.862 -19.344  -0.551  0.00  0.00     0.029 A 
ATOM     33  C   UNL d   1      18.678 -20.091  -0.594  0.00  0.00     0.002 A 
ATOM     34  C   UNL d   1      18.273 -20.836   0.514  0.00  0.00     0.000 A 
ATOM     35  C   UNL d   1      19.034 -20.817   1.678  0.00  0.00     0.002 A 
ATOM     36  C   UNL d   1      20.206 -20.066   1.725  0.00  0.00     0.029 A 
ENDBRANCH  29  31
ENDBRANCH  24  27
ENDBRANCH  19  20
ENDBRANCH   1  19
TORSDOF 8
ENDMDL
MODEL 7
REMARK VINA RESULT:    -9.068      4.529      6.566
REMARK INTER + INTRA:         -13.652
REMARK INTER:                 -11.454
REMARK INTRA:                  -2.198
REMARK CONF_INDEPENDENT:        2.386
REMARK UNBOUND:                -2.198
REMARK  8 active torsions:
REMARK  status: ('A' for Active; 'I' for Inactive)
REMARK    1  A    between atoms: C_2  and  C_3 
REMARK       I    between atoms: C_2  and  N_19 
REMARK    2  A    between atoms: C_3  and  C_4 
REMARK    3  A    between atoms: C_4  and  C_5 
REMARK    4  A    between atoms: C_8  and  C_9 
REMARK       I    between atoms: C_9  and  N_11 
REMARK    5  A    between atoms: N_11  and  C_12 
REMARK    6  A    between atoms: N_19  and  C_20 
REMARK    7  A    between atoms: C_20  and  C_21 
REMARK    8  A    between atoms: C_21  and  C_22 
ROOT
ATOM      1  C   UNL d   1      27.821 -17.319   0.190  0.00  0.00     0.105 C 
ENDROOT
BRANCH   1   2
ATOM      2  C   UNL d   1      27.778 -15.894  -0.319  0.00  0.00     0.217 C 
ATOM      3  O   UNL d   1      26.978 -15.053   0.047  0.00  0.00    -0.274 OA
ATOM      4  N   UNL d   1      28.719 -15.569  -1.255  0.00  0.00    -0.361 N 
ATOM      5  H   UNL d   1      28.650 -14.602  -1.562  0.00  0.00     0.162 HD
BRANCH   4   6
ATOM      6  C   UNL d   1      29.729 -16.462  -1.764  0.00  0.00     0.127 C 
BRANCH   6   7
ATOM      7  C   UNL d   1      29.387 -16.923  -3.152  0.00  0.00     0.056 C 
BRANCH   7   8
ATOM      8  C   UNL d   1      29.344 -15.880  -4.217  0.00  0.00    -0.048 A 
ATOM      9  C   UNL d   1      28.274 -15.094  -4.301  0.00  0.00    -0.004 A 
ATOM     10  C   UNL d   1      27.098 -15.073  -3.512  0.00  0.00     0.037 A 
ATOM     11  C   UNL d   1      28.472 -14.237  -5.470  0.00  0.00     0.038 A 
ATOM     12  C   UNL d   1      26.088 -14.296  -3.906  0.00  0.00     0.035 A 
ATOM     13 CL   UNL d   1      24.572 -14.436  -3.111  0.00  0.00    -0.084 Cl
ATOM     14  C   UNL d   1      26.245 -13.384  -5.031  0.00  0.00     0.026 A 
ATOM     15  C   UNL d   1      27.354 -13.324  -5.805  0.00  0.00     0.031 A 
ATOM     16  N   UNL d   1      29.614 -14.444  -6.013  0.00  0.00    -0.385 N 
ATOM     17  C   UNL d   1      30.338 -15.544  -5.291  0.00  0.00     0.155 A 
ATOM     18  H   UNL d   1      29.949 -13.911  -6.815  0.00  0.00     0.160 HD
ENDBRANCH   7   8
ENDBRANCH   6   7
ENDBRANCH   4   6
ENDBRANCH   1   2
BRANCH   1  19
ATOM     19  C   UNL d   1      26.462 -17.760   0.705  0.00  0.00     0.041 C 
BRANCH  19  20
ATOM     20  C   UNL d   1      25.393 -17.512  -0.359  0.00  0.00     0.135 C 
ATOM     21  N   UNL d   1      24.502 -16.385  -0.055  0.00  0.00    -0.245 NA
ATOM     22  N   UNL d   1      23.105 -16.669  -0.489  0.00  0.00    -0.237 NA
ATOM     23  H   UNL d   1      24.881 -15.519  -0.448  0.00  0.00     0.142 HD
ATOM     24  C   UNL d   1      23.036 -18.005  -1.120  0.00  0.00     0.226 C 
ATOM     25  H   UNL d   1      22.772 -15.973  -1.163  0.00  0.00     0.142 HD
ATOM     26  S   UNL d   1      24.408 -18.983  -0.524  0.00  0.00    -0.117 SA
BRANCH  24  27
ATOM     27  C   UNL d   1      21.744 -18.790  -0.898  0.00  0.00     0.251 C 
ATOM     28  O   UNL d   1      21.182 -19.305  -1.873  0.00  0.00    -0.270 OA
ATOM     29  N   UNL d   1      21.224 -18.836   0.382  0.00  0.00    -0.325 N 
ATOM     30  H   UNL d   1      21.638 -18.258   1.104  0.00  0.00     0.169 HD
BRANCH  29  31
ATOM     31  C   UNL d   1      20.086 -19.607   0.698  0.00  0.00     0.034 A 
ATOM     32  C   UNL d   1      19.866 -20.032   2.008  0.00  0.00     0.029 A 
ATOM     33  C   UNL d   1      18.760 -20.837   2.303  0.00  0.00     0.002 A 
ATOM     34  C   UNL d   1      17.861 -21.197   1.299  0.00  0.00     0.000 A 
ATOM     35  C   UNL d   1      18.078 -20.778  -0.010  0.00  0.00     0.002 A 
ATOM     36  C   UNL d   1      19.185 -19.985  -0.306  0.00  0.00     0.029 A 
ENDBRANCH  29  31
ENDBRANCH  24  27
ENDBRANCH  19  20
ENDBRANCH   1  19
TORSDOF 8
ENDMDL
MODEL 8
REMARK VINA RESULT:    -8.542      4.560      6.187
REMARK INTER + INTRA:         -13.219
REMARK INTER:                 -10.928
REMARK INTRA:                  -2.291
REMARK CONF_INDEPENDENT:        2.386
REMARK UNBOUND:                -2.291
REMARK  8 active torsions:
REMARK  status: ('A' for Active; 'I' for Inactive)
REMARK    1  A    between atoms: C_2  and  C_3 
REMARK       I    between atoms: C_2  and  N_19 
REMARK    2  A    between atoms: C_3  and  C_4 
REMARK    3  A    between atoms: C_4  and  C_5 
REMARK    4  A    between atoms: C_8  and  C_9 
REMARK       I    between atoms: C_9  and  N_11 
REMARK    5  A    between atoms: N_11  and  C_12 
REMARK    6  A    between atoms: N_19  and  C_20 
REMARK    7  A    between atoms: C_20  and  C_21 
REMARK    8  A    between atoms: C_21  and  C_22 
ROOT
ATOM      1  C   UNL d   1      27.939 -15.818   0.156  0.00  0.00     0.105 C 
ENDROOT
BRANCH   1   2
ATOM      2  C   UNL d   1      28.995 -16.246  -0.842  0.00  0.00     0.217 C 
ATOM      3  O   UNL d   1      29.064 -17.353  -1.343  0.00  0.00    -0.274 OA
ATOM      4  N   UNL d   1      29.917 -15.294  -1.175  0.00  0.00    -0.361 N 
ATOM      5  H   UNL d   1      30.601 -15.629  -1.849  0.00  0.00     0.162 HD
BRANCH   4   6
ATOM      6  C   UNL d   1      29.942 -13.946  -0.667  0.00  0.00     0.127 C 
BRANCH   6   7
ATOM      7  C   UNL d   1      29.312 -12.993  -1.643  0.00  0.00     0.056 C 
BRANCH   7   8
ATOM      8  C   UNL d   1      27.920 -13.298  -2.079  0.00  0.00    -0.048 A 
ATOM      9  C   UNL d   1      27.736 -13.997  -3.196  0.00  0.00    -0.004 A 
ATOM     10  C   UNL d   1      28.688 -14.530  -4.100  0.00  0.00     0.037 A 
ATOM     11  C   UNL d   1      26.292 -14.071  -3.415  0.00  0.00     0.038 A 
ATOM     12  C   UNL d   1      28.245 -15.049  -5.247  0.00  0.00     0.035 A 
ATOM     13 CL   UNL d   1      29.385 -15.477  -6.458  0.00  0.00    -0.084 Cl
ATOM     14  C   UNL d   1      26.818 -15.196  -5.497  0.00  0.00     0.026 A 
ATOM     15  C   UNL d   1      25.854 -14.743  -4.661  0.00  0.00     0.031 A 
ATOM     16  N   UNL d   1      25.646 -13.515  -2.458  0.00  0.00    -0.385 N 
ATOM     17  C   UNL d   1      26.603 -12.925  -1.461  0.00  0.00     0.155 A 
ATOM     18  H   UNL d   1      24.627 -13.505  -2.411  0.00  0.00     0.160 HD
ENDBRANCH   7   8
ENDBRANCH   6   7
ENDBRANCH   4   6
ENDBRANCH   1   2
BRANCH   1  19
ATOM     19  C   UNL d   1      27.011 -16.971   0.501  0.00  0.00     0.041 C 
BRANCH  19  20
ATOM     20  C   UNL d   1      25.991 -17.174  -0.619  0.00  0.00     0.135 C 
ATOM     21  N   UNL d   1      25.301 -15.943  -1.025  0.00  0.00    -0.245 NA
ATOM     22  N   UNL d   1      23.873 -16.209  -1.359  0.00  0.00    -0.237 NA
ATOM     23  H   UNL d   1      25.815 -15.482  -1.781  0.00  0.00     0.142 HD
ATOM     24  C   UNL d   1      23.580 -17.651  -1.199  0.00  0.00     0.226 C 
ATOM     25  H   UNL d   1      23.655 -15.937  -2.322  0.00  0.00     0.142 HD
ATOM     26  S   UNL d   1      24.775 -18.349  -0.069  0.00  0.00    -0.117 SA
BRANCH  24  27
ATOM     27  C   UNL d   1      22.176 -18.003  -0.706  0.00  0.00     0.251 C 
ATOM     28  O   UNL d   1      21.257 -17.197  -0.896  0.00  0.00    -0.270 OA
ATOM     29  N   UNL d   1      22.011 -19.186  -0.011  0.00  0.00    -0.325 N 
ATOM     30  H   UNL d   1      22.829 -19.720   0.255  0.00  0.00     0.169 HD
BRANCH  29  31
ATOM     31  C   UNL d   1      20.740 -19.635   0.404  0.00  0.00     0.034 A 
ATOM     32  C   UNL d   1      20.358 -19.525   1.741  0.00  0.00     0.029 A 
ATOM     33  C   UNL d   1      19.114 -20.017   2.153  0.00  0.00     0.002 A 
ATOM     34  C   UNL d   1      18.242 -20.594   1.229  0.00  0.00     0.000 A 
ATOM     35  C   UNL d   1      18.620 -20.707  -0.105  0.00  0.00     0.002 A 
ATOM     36  C   UNL d   1      19.863 -20.227  -0.513  0.00  0.00     0.029 A 
ENDBRANCH  29  31
ENDBRANCH  24  27
ENDBRANCH  19  20
ENDBRANCH   1  19
TORSDOF 8
ENDMDL
MODEL 9
REMARK VINA RESULT:    -8.317      4.341      8.849
REMARK INTER + INTRA:         -13.657
REMARK INTER:                 -10.703
REMARK INTRA:                  -2.953
REMARK CONF_INDEPENDENT:        2.386
REMARK UNBOUND:                -2.953
REMARK  8 active torsions:
REMARK  status: ('A' for Active; 'I' for Inactive)
REMARK    1  A    between atoms: C_2  and  C_3 
REMARK       I    between atoms: C_2  and  N_19 
REMARK    2  A    between atoms: C_3  and  C_4 
REMARK    3  A    between atoms: C_4  and  C_5 
REMARK    4  A    between atoms: C_8  and  C_9 
REMARK       I    between atoms: C_9  and  N_11 
REMARK    5  A    between atoms: N_11  and  C_12 
REMARK    6  A    between atoms: N_19  and  C_20 
REMARK    7  A    between atoms: C_20  and  C_21 
REMARK    8  A    between atoms: C_21  and  C_22 
ROOT
ATOM      1  C   UNL d   1      28.188 -14.858  -3.867  0.00  0.00     0.105 C 
ENDROOT
BRANCH   1   2
ATOM      2  C   UNL d   1      27.228 -14.759  -5.033  0.00  0.00     0.217 C 
ATOM      3  O   UNL d   1      27.444 -15.200  -6.146  0.00  0.00    -0.274 OA
ATOM      4  N   UNL d   1      26.048 -14.121  -4.776  0.00  0.00    -0.361 N 
ATOM      5  H   UNL d   1      25.436 -14.082  -5.589  0.00  0.00     0.162 HD
BRANCH   4   6
ATOM      6  C   UNL d   1      25.661 -13.565  -3.504  0.00  0.00     0.127 C 
BRANCH   6   7
ATOM      7  C   UNL d   1      24.831 -14.543  -2.722  0.00  0.00     0.056 C 
BRANCH   7   8
ATOM      8  C   UNL d   1      25.539 -15.353  -1.690  0.00  0.00    -0.048 A 
ATOM      9  C   UNL d   1      24.934 -16.427  -1.191  0.00  0.00    -0.004 A 
ATOM     10  C   UNL d   1      23.657 -16.968  -1.483  0.00  0.00     0.037 A 
ATOM     11  C   UNL d   1      25.816 -16.967  -0.157  0.00  0.00     0.038 A 
ATOM     12  C   UNL d   1      23.204 -17.963  -0.719  0.00  0.00     0.035 A 
ATOM     13 CL   UNL d   1      21.573 -18.469  -0.896  0.00  0.00    -0.084 Cl
ATOM     14  C   UNL d   1      24.058 -18.575   0.291  0.00  0.00     0.026 A 
ATOM     15  C   UNL d   1      25.300 -18.134   0.597  0.00  0.00     0.031 A 
ATOM     16  N   UNL d   1      26.911 -16.304  -0.085  0.00  0.00    -0.385 N 
ATOM     17  C   UNL d   1      26.887 -15.158  -1.056  0.00  0.00     0.155 A 
ATOM     18  H   UNL d   1      27.669 -16.557   0.548  0.00  0.00     0.160 HD
ENDBRANCH   7   8
ENDBRANCH   6   7
ENDBRANCH   4   6
ENDBRANCH   1   2
BRANCH   1  19
ATOM     19  C   UNL d   1      28.997 -16.144  -3.928  0.00  0.00     0.041 C 
BRANCH  19  20
ATOM     20  C   UNL d   1      29.862 -16.278  -2.676  0.00  0.00     0.135 C 
ATOM     21  N   UNL d   1      29.323 -17.214  -1.679  0.00  0.00    -0.245 NA
ATOM     22  N   UNL d   1      29.570 -16.726  -0.293  0.00  0.00    -0.237 NA
ATOM     23  H   UNL d   1      29.684 -18.157  -1.848  0.00  0.00     0.142 HD
ATOM     24  C   UNL d   1      30.308 -15.444  -0.335  0.00  0.00     0.226 C 
ATOM     25  H   UNL d   1      30.117 -17.400   0.251  0.00  0.00     0.142 HD
ATOM     26  S   UNL d   1      30.018 -14.676  -1.922  0.00  0.00    -0.117 SA
BRANCH  24  27
ATOM     27  C   UNL d   1      29.972 -14.437   0.765  0.00  0.00     0.251 C 
ATOM     28  O   UNL d   1      30.489 -13.314   0.725  0.00  0.00    -0.270 OA
ATOM     29  N   UNL d   1      29.150 -14.851   1.796  0.00  0.00    -0.325 N 
ATOM     30  H   UNL d   1      28.894 -15.830   1.860  0.00  0.00     0.169 HD
BRANCH  29  31
ATOM     31  C   UNL d   1      28.716 -13.967   2.805  0.00  0.00     0.034 A 
ATOM     32  C   UNL d   1      28.684 -14.381   4.136  0.00  0.00     0.029 A 
ATOM     33  C   UNL d   1      28.206 -13.513   5.125  0.00  0.00     0.002 A 
ATOM     34  C   UNL d   1      27.785 -12.225   4.790  0.00  0.00     0.000 A 
ATOM     35  C   UNL d   1      27.812 -11.810   3.463  0.00  0.00     0.002 A 
ATOM     36  C   UNL d   1      28.278 -12.677   2.477  0.00  0.00     0.029 A 
ENDBRANCH  29  31
ENDBRANCH  24  27
ENDBRANCH  19  20
ENDBRANCH   1  19
TORSDOF 8
ENDMDL
