MODEL 1
REMARK VINA RESULT:   -10.956      0.000      0.000
REMARK INTER + INTRA:         -17.284
REMARK INTER:                 -14.237
REMARK INTRA:                  -3.047
REMARK CONF_INDEPENDENT:        3.281
REMARK UNBOUND:                -3.047
REMARK  11 active torsions:
REMARK  status: ('A' for Active; 'I' for Inactive)
REMARK    1  A    between atoms: O_2  and  C_3 
REMARK    2  A    between atoms: C_6  and  C_7 
REMARK    3  A    between atoms: C_10  and  S_11 
REMARK    4  A    between atoms: S_11  and  C_12 
REMARK    5  A    between atoms: C_12  and  C_13 
REMARK       I    between atoms: C_13  and  N_15 
REMARK    6  A    between atoms: N_15  and  N_16 
REMARK    7  A    between atoms: C_17  and  C_18 
REMARK    8  A    between atoms: C_22  and  O_23 
REMARK    9  A    between atoms: O_23  and  C_24 
REMARK   10  A    between atoms: N_31  and  C_32 
REMARK   11  A    between atoms: C_35  and  O_36 
ROOT
ATOM      1  C   UNL d   1      26.079 -17.169  -0.281  0.00  0.00     0.169 A 
ATOM      2  N   UNL d   1      26.941 -17.766   0.523  0.00  0.00    -0.128 NA
ATOM      3  N   UNL d   1      28.222 -17.310   0.210  0.00  0.00    -0.122 NA
ATOM      4  C   UNL d   1      28.131 -16.420  -0.764  0.00  0.00     0.197 A 
ATOM      5  N   UNL d   1      26.797 -16.321  -1.110  0.00  0.00    -0.271 N 
ENDROOT
BRANCH   4   6
ATOM      6  S   UNL d   1      29.502 -15.459  -1.347  0.00  0.00    -0.080 SA
BRANCH   6   7
ATOM      7  C   UNL d   1      30.725 -15.273  -0.010  0.00  0.00     0.187 C 
BRANCH   7   8
ATOM      8  C   UNL d   1      30.367 -14.446   1.206  0.00  0.00     0.247 C 
ATOM      9  O   UNL d   1      31.026 -13.455   1.549  0.00  0.00    -0.271 OA
ATOM     10  N   UNL d   1      29.180 -14.853   1.862  0.00  0.00    -0.247 N 
ATOM     11  H   UNL d   1      28.620 -15.653   1.569  0.00  0.00     0.192 HD
BRANCH  10  12
ATOM     12  N   UNL d   1      28.775 -14.111   2.943  0.00  0.00    -0.184 NA
ATOM     13  C   UNL d   1      29.281 -14.319   4.114  0.00  0.00     0.150 C 
BRANCH  13  14
ATOM     14  C   UNL d   1      28.833 -13.489   5.265  0.00  0.00    -0.014 A 
ATOM     15  C   UNL d   1      28.459 -12.152   5.114  0.00  0.00     0.013 A 
ATOM     16  C   UNL d   1      28.143 -11.386   6.247  0.00  0.00     0.004 A 
ATOM     17  C   UNL d   1      28.170 -11.965   7.520  0.00  0.00     0.037 A 
ATOM     18  C   UNL d   1      28.528 -13.308   7.667  0.00  0.00     0.076 A 
ATOM     19  C   UNL d   1      28.828 -14.067   6.532  0.00  0.00     0.050 A 
BRANCH  18  20
ATOM     20  O   UNL d   1      28.543 -13.805   8.954  0.00  0.00    -0.311 OA
BRANCH  20  21
ATOM     21  C   UNL d   1      29.697 -14.392   9.428  0.00  0.00     0.076 A 
ATOM     22  C   UNL d   1      30.905 -13.923   8.913  0.00  0.00     0.037 A 
ATOM     23  C   UNL d   1      32.102 -14.522   9.305  0.00  0.00     0.003 A 
ATOM     24  C   UNL d   1      32.099 -15.532  10.269  0.00  0.00     0.000 A 
ATOM     25  C   UNL d   1      30.892 -15.991  10.796  0.00  0.00     0.003 A 
ATOM     26  C   UNL d   1      29.689 -15.451  10.342  0.00  0.00     0.037 A 
ENDBRANCH  20  21
ENDBRANCH  18  20
ENDBRANCH  13  14
ENDBRANCH  10  12
ENDBRANCH   7   8
ENDBRANCH   6   7
ENDBRANCH   4   6
BRANCH   5  27
ATOM     27  C   UNL d   1      26.203 -15.458  -2.023  0.00  0.00     0.043 C 
ATOM     28  C   UNL d   1      25.806 -15.950  -3.262  0.00  0.00     0.033 C 
ATOM     29  C   UNL d   1      25.535 -15.028  -4.264  0.00  0.00     0.039 C 
ATOM     30  C   UNL d   1      25.478 -13.663  -3.966  0.00  0.00     0.068 C 
ATOM     31  C   UNL d   1      25.769 -13.210  -2.674  0.00  0.00     0.039 C 
ATOM     32  C   UNL d   1      26.150 -14.107  -1.693  0.00  0.00     0.033 C 
BRANCH  30  33
ATOM     33  O   UNL d   1      25.154 -12.856  -5.020  0.00  0.00    -0.356 OA
ATOM     34  C   UNL d   1      25.902 -11.646  -5.095  0.00  0.00     0.210 C 
ENDBRANCH  30  33
ENDBRANCH   5  27
BRANCH   1  35
ATOM     35  C   UNL d   1      24.617 -17.380  -0.412  0.00  0.00     0.012 A 
ATOM     36  C   UNL d   1      23.715 -16.323  -0.573  0.00  0.00     0.018 A 
ATOM     37  C   UNL d   1      22.337 -16.574  -0.732  0.00  0.00     0.037 A 
ATOM     38  C   UNL d   1      21.836 -17.878  -0.804  0.00  0.00     0.068 A 
ATOM     39  C   UNL d   1      22.728 -18.937  -0.691  0.00  0.00     0.037 A 
ATOM     40  C   UNL d   1      24.098 -18.687  -0.491  0.00  0.00     0.018 A 
BRANCH  38  41
ATOM     41  O   UNL d   1      20.506 -17.993  -1.101  0.00  0.00    -0.356 OA
ATOM     42  C   UNL d   1      19.876 -19.240  -0.816  0.00  0.00     0.210 C 
ENDBRANCH  38  41
ENDBRANCH   1  35
TORSDOF 11
ENDMDL
MODEL 2
REMARK VINA RESULT:   -10.915      2.871      9.908
REMARK INTER + INTRA:         -17.078
REMARK INTER:                 -14.196
REMARK INTRA:                  -2.882
REMARK CONF_INDEPENDENT:        3.281
REMARK UNBOUND:                -2.882
REMARK  11 active torsions:
REMARK  status: ('A' for Active; 'I' for Inactive)
REMARK    1  A    between atoms: O_2  and  C_3 
REMARK    2  A    between atoms: C_6  and  C_7 
REMARK    3  A    between atoms: C_10  and  S_11 
REMARK    4  A    between atoms: S_11  and  C_12 
REMARK    5  A    between atoms: C_12  and  C_13 
REMARK       I    between atoms: C_13  and  N_15 
REMARK    6  A    between atoms: N_15  and  N_16 
REMARK    7  A    between atoms: C_17  and  C_18 
REMARK    8  A    between atoms: C_22  and  O_23 
REMARK    9  A    between atoms: O_23  and  C_24 
REMARK   10  A    between atoms: N_31  and  C_32 
REMARK   11  A    between atoms: C_35  and  O_36 
ROOT
ATOM      1  C   UNL d   1      28.039 -13.327   1.096  0.00  0.00     0.169 A 
ATOM      2  N   UNL d   1      28.314 -14.275   0.218  0.00  0.00    -0.128 NA
ATOM      3  N   UNL d   1      27.885 -13.845  -1.039  0.00  0.00    -0.122 NA
ATOM      4  C   UNL d   1      27.375 -12.631  -0.923  0.00  0.00     0.197 A 
ATOM      5  N   UNL d   1      27.439 -12.282   0.412  0.00  0.00    -0.271 N 
ENDROOT
BRANCH   4   6
ATOM      6  S   UNL d   1      26.873 -11.640  -2.306  0.00  0.00    -0.080 SA
BRANCH   6   7
ATOM      7  C   UNL d   1      26.604 -12.712  -3.753  0.00  0.00     0.187 C 
BRANCH   7   8
ATOM      8  C   UNL d   1      25.767 -13.964  -3.599  0.00  0.00     0.247 C 
ATOM      9  O   UNL d   1      25.495 -14.700  -4.556  0.00  0.00    -0.271 OA
ATOM     10  N   UNL d   1      25.397 -14.258  -2.264  0.00  0.00    -0.247 N 
ATOM     11  H   UNL d   1      25.640 -13.670  -1.468  0.00  0.00     0.192 HD
BRANCH  10  12
ATOM     12  N   UNL d   1      24.681 -15.409  -2.051  0.00  0.00    -0.184 NA
ATOM     13  C   UNL d   1      24.723 -16.013  -0.909  0.00  0.00     0.150 C 
BRANCH  13  14
ATOM     14  C   UNL d   1      23.924 -17.251  -0.702  0.00  0.00    -0.014 A 
ATOM     15  C   UNL d   1      24.518 -18.511  -0.615  0.00  0.00     0.013 A 
ATOM     16  C   UNL d   1      23.710 -19.656  -0.523  0.00  0.00     0.004 A 
ATOM     17  C   UNL d   1      22.317 -19.535  -0.485  0.00  0.00     0.037 A 
ATOM     18  C   UNL d   1      21.725 -18.271  -0.555  0.00  0.00     0.076 A 
ATOM     19  C   UNL d   1      22.538 -17.135  -0.633  0.00  0.00     0.050 A 
BRANCH  18  20
ATOM     20  O   UNL d   1      20.347 -18.232  -0.524  0.00  0.00    -0.311 OA
BRANCH  20  21
ATOM     21  C   UNL d   1      19.669 -19.211   0.171  0.00  0.00     0.076 A 
ATOM     22  C   UNL d   1      18.797 -20.017  -0.557  0.00  0.00     0.037 A 
ATOM     23  C   UNL d   1      18.034 -20.981   0.102  0.00  0.00     0.003 A 
ATOM     24  C   UNL d   1      18.202 -21.194   1.471  0.00  0.00     0.000 A 
ATOM     25  C   UNL d   1      19.086 -20.398   2.198  0.00  0.00     0.003 A 
ATOM     26  C   UNL d   1      19.787 -19.377   1.556  0.00  0.00     0.037 A 
ENDBRANCH  20  21
ENDBRANCH  18  20
ENDBRANCH  13  14
ENDBRANCH  10  12
ENDBRANCH   7   8
ENDBRANCH   6   7
ENDBRANCH   4   6
BRANCH   5  27
ATOM     27  C   UNL d   1      27.099 -11.072   1.006  0.00  0.00     0.043 C 
ATOM     28  C   UNL d   1      27.671  -9.898   0.528  0.00  0.00     0.033 C 
ATOM     29  C   UNL d   1      27.588  -8.768   1.331  0.00  0.00     0.039 C 
ATOM     30  C   UNL d   1      26.791  -8.779   2.480  0.00  0.00     0.068 C 
ATOM     31  C   UNL d   1      26.131  -9.950   2.870  0.00  0.00     0.039 C 
ATOM     32  C   UNL d   1      26.294 -11.115   2.141  0.00  0.00     0.033 C 
BRANCH  30  33
ATOM     33  O   UNL d   1      26.747  -7.597   3.163  0.00  0.00    -0.356 OA
ATOM     34  C   UNL d   1      27.769  -7.437   4.143  0.00  0.00     0.210 C 
ENDBRANCH  30  33
ENDBRANCH   5  27
BRANCH   1  35
ATOM     35  C   UNL d   1      28.209 -13.336   2.570  0.00  0.00     0.012 A 
ATOM     36  C   UNL d   1      29.240 -12.643   3.212  0.00  0.00     0.018 A 
ATOM     37  C   UNL d   1      29.341 -12.649   4.619  0.00  0.00     0.037 A 
ATOM     38  C   UNL d   1      28.382 -13.284   5.416  0.00  0.00     0.068 A 
ATOM     39  C   UNL d   1      27.328 -13.937   4.791  0.00  0.00     0.037 A 
ATOM     40  C   UNL d   1      27.250 -13.966   3.387  0.00  0.00     0.018 A 
BRANCH  38  41
ATOM     41  O   UNL d   1      28.510 -13.101   6.766  0.00  0.00    -0.356 OA
ATOM     42  C   UNL d   1      29.257 -14.074   7.492  0.00  0.00     0.210 C 
ENDBRANCH  38  41
ENDBRANCH   1  35
TORSDOF 11
ENDMDL
MODEL 3
REMARK VINA RESULT:   -10.021      1.824      4.014
REMARK INTER + INTRA:         -16.361
REMARK INTER:                 -13.302
REMARK INTRA:                  -3.058
REMARK CONF_INDEPENDENT:        3.281
REMARK UNBOUND:                -3.058
REMARK  11 active torsions:
REMARK  status: ('A' for Active; 'I' for Inactive)
REMARK    1  A    between atoms: O_2  and  C_3 
REMARK    2  A    between atoms: C_6  and  C_7 
REMARK    3  A    between atoms: C_10  and  S_11 
REMARK    4  A    between atoms: S_11  and  C_12 
REMARK    5  A    between atoms: C_12  and  C_13 
REMARK       I    between atoms: C_13  and  N_15 
REMARK    6  A    between atoms: N_15  and  N_16 
REMARK    7  A    between atoms: C_17  and  C_18 
REMARK    8  A    between atoms: C_22  and  O_23 
REMARK    9  A    between atoms: O_23  and  C_24 
REMARK   10  A    between atoms: N_31  and  C_32 
REMARK   11  A    between atoms: C_35  and  O_36 
ROOT
ATOM      1  C   UNL d   1      26.189 -17.245  -0.448  0.00  0.00     0.169 A 
ATOM      2  N   UNL d   1      27.077 -17.882   0.294  0.00  0.00    -0.128 NA
ATOM      3  N   UNL d   1      28.353 -17.476  -0.103  0.00  0.00    -0.122 NA
ATOM      4  C   UNL d   1      28.233 -16.579  -1.067  0.00  0.00     0.197 A 
ATOM      5  N   UNL d   1      26.885 -16.423  -1.322  0.00  0.00    -0.271 N 
ENDROOT
BRANCH   4   6
ATOM      6  S   UNL d   1      29.601 -15.672  -1.738  0.00  0.00    -0.080 SA
BRANCH   6   7
ATOM      7  C   UNL d   1      30.853 -15.412  -0.441  0.00  0.00     0.187 C 
BRANCH   7   8
ATOM      8  C   UNL d   1      30.525 -14.509   0.730  0.00  0.00     0.247 C 
ATOM      9  O   UNL d   1      31.074 -13.412   0.891  0.00  0.00    -0.271 OA
ATOM     10  N   UNL d   1      29.489 -14.989   1.566  0.00  0.00    -0.247 N 
ATOM     11  H   UNL d   1      29.015 -15.880   1.423  0.00  0.00     0.192 HD
BRANCH  10  12
ATOM     12  N   UNL d   1      29.110 -14.191   2.616  0.00  0.00    -0.184 NA
ATOM     13  C   UNL d   1      29.506 -14.450   3.820  0.00  0.00     0.150 C 
BRANCH  13  14
ATOM     14  C   UNL d   1      29.092 -13.558   4.936  0.00  0.00    -0.014 A 
ATOM     15  C   UNL d   1      29.023 -14.005   6.257  0.00  0.00     0.013 A 
ATOM     16  C   UNL d   1      28.528 -13.153   7.256  0.00  0.00     0.004 A 
ATOM     17  C   UNL d   1      28.136 -11.848   6.938  0.00  0.00     0.037 A 
ATOM     18  C   UNL d   1      28.221 -11.396   5.618  0.00  0.00     0.076 A 
ATOM     19  C   UNL d   1      28.728 -12.248   4.633  0.00  0.00     0.050 A 
BRANCH  18  20
ATOM     20  O   UNL d   1      27.805 -10.103   5.381  0.00  0.00    -0.311 OA
BRANCH  20  21
ATOM     21  C   UNL d   1      27.584  -9.702   4.081  0.00  0.00     0.076 A 
ATOM     22  C   UNL d   1      26.280  -9.801   3.599  0.00  0.00     0.037 A 
ATOM     23  C   UNL d   1      26.008  -9.473   2.271  0.00  0.00     0.003 A 
ATOM     24  C   UNL d   1      27.019  -8.970   1.450  0.00  0.00     0.000 A 
ATOM     25  C   UNL d   1      28.320  -8.856   1.937  0.00  0.00     0.003 A 
ATOM     26  C   UNL d   1      28.612  -9.264   3.238  0.00  0.00     0.037 A 
ENDBRANCH  20  21
ENDBRANCH  18  20
ENDBRANCH  13  14
ENDBRANCH  10  12
ENDBRANCH   7   8
ENDBRANCH   6   7
ENDBRANCH   4   6
BRANCH   5  27
ATOM     27  C   UNL d   1      26.267 -15.531  -2.191  0.00  0.00     0.043 C 
ATOM     28  C   UNL d   1      25.949 -15.950  -3.478  0.00  0.00     0.033 C 
ATOM     29  C   UNL d   1      25.652 -14.972  -4.419  0.00  0.00     0.039 C 
ATOM     30  C   UNL d   1      25.494 -13.640  -4.021  0.00  0.00     0.068 C 
ATOM     31  C   UNL d   1      25.707 -13.271  -2.688  0.00  0.00     0.039 C 
ATOM     32  C   UNL d   1      26.112 -14.216  -1.762  0.00  0.00     0.033 C 
BRANCH  30  33
ATOM     33  O   UNL d   1      25.154 -12.776  -5.023  0.00  0.00    -0.356 OA
ATOM     34  C   UNL d   1      26.075 -11.708  -5.226  0.00  0.00     0.210 C 
ENDBRANCH  30  33
ENDBRANCH   5  27
BRANCH   1  35
ATOM     35  C   UNL d   1      24.714 -17.395  -0.482  0.00  0.00     0.012 A 
ATOM     36  C   UNL d   1      23.848 -16.300  -0.579  0.00  0.00     0.018 A 
ATOM     37  C   UNL d   1      22.453 -16.493  -0.646  0.00  0.00     0.037 A 
ATOM     38  C   UNL d   1      21.895 -17.776  -0.688  0.00  0.00     0.068 A 
ATOM     39  C   UNL d   1      22.748 -18.871  -0.638  0.00  0.00     0.037 A 
ATOM     40  C   UNL d   1      24.137 -18.678  -0.529  0.00  0.00     0.018 A 
BRANCH  38  41
ATOM     41  O   UNL d   1      20.544 -17.834  -0.895  0.00  0.00    -0.356 OA
ATOM     42  C   UNL d   1      19.928 -19.119  -0.842  0.00  0.00     0.210 C 
ENDBRANCH  38  41
ENDBRANCH   1  35
TORSDOF 11
ENDMDL
MODEL 4
REMARK VINA RESULT:    -9.851      4.585      5.715
REMARK INTER + INTRA:         -15.871
REMARK INTER:                 -13.132
REMARK INTRA:                  -2.739
REMARK CONF_INDEPENDENT:        3.281
REMARK UNBOUND:                -2.739
REMARK  11 active torsions:
REMARK  status: ('A' for Active; 'I' for Inactive)
REMARK    1  A    between atoms: O_2  and  C_3 
REMARK    2  A    between atoms: C_6  and  C_7 
REMARK    3  A    between atoms: C_10  and  S_11 
REMARK    4  A    between atoms: S_11  and  C_12 
REMARK    5  A    between atoms: C_12  and  C_13 
REMARK       I    between atoms: C_13  and  N_15 
REMARK    6  A    between atoms: N_15  and  N_16 
REMARK    7  A    between atoms: C_17  and  C_18 
REMARK    8  A    between atoms: C_22  and  O_23 
REMARK    9  A    between atoms: O_23  and  C_24 
REMARK   10  A    between atoms: N_31  and  C_32 
REMARK   11  A    between atoms: C_35  and  O_36 
ROOT
ATOM      1  C   UNL d   1      26.303 -17.613  -0.428  0.00  0.00     0.169 A 
ATOM      2  N   UNL d   1      27.152 -18.406   0.202  0.00  0.00    -0.128 NA
ATOM      3  N   UNL d   1      28.449 -18.025  -0.145  0.00  0.00    -0.122 NA
ATOM      4  C   UNL d   1      28.384 -16.989  -0.964  0.00  0.00     0.197 A 
ATOM      5  N   UNL d   1      27.047 -16.715  -1.178  0.00  0.00    -0.271 N 
ENDROOT
BRANCH   4   6
ATOM      6  S   UNL d   1      29.804 -16.078  -1.509  0.00  0.00    -0.080 SA
BRANCH   6   7
ATOM      7  C   UNL d   1      30.774 -15.545  -0.064  0.00  0.00     0.187 C 
BRANCH   7   8
ATOM      8  C   UNL d   1      31.875 -16.445   0.459  0.00  0.00     0.247 C 
ATOM      9  O   UNL d   1      32.974 -16.004   0.818  0.00  0.00    -0.271 OA
ATOM     10  N   UNL d   1      31.509 -17.808   0.574  0.00  0.00    -0.247 N 
ATOM     11  H   UNL d   1      30.596 -18.172   0.304  0.00  0.00     0.192 HD
BRANCH  10  12
ATOM     12  N   UNL d   1      32.446 -18.666   1.090  0.00  0.00    -0.184 NA
ATOM     13  C   UNL d   1      32.484 -18.920   2.358  0.00  0.00     0.150 C 
BRANCH  13  14
ATOM     14  C   UNL d   1      33.502 -19.866   2.887  0.00  0.00    -0.014 A 
ATOM     15  C   UNL d   1      34.709 -20.105   2.226  0.00  0.00     0.013 A 
ATOM     16  C   UNL d   1      35.588 -21.084   2.714  0.00  0.00     0.004 A 
ATOM     17  C   UNL d   1      35.276 -21.796   3.877  0.00  0.00     0.037 A 
ATOM     18  C   UNL d   1      34.076 -21.544   4.547  0.00  0.00     0.076 A 
ATOM     19  C   UNL d   1      33.212 -20.557   4.061  0.00  0.00     0.050 A 
BRANCH  18  20
ATOM     20  O   UNL d   1      33.832 -22.293   5.679  0.00  0.00    -0.311 OA
BRANCH  20  21
ATOM     21  C   UNL d   1      34.549 -22.022   6.824  0.00  0.00     0.076 A 
ATOM     22  C   UNL d   1      34.861 -23.102   7.648  0.00  0.00     0.037 A 
ATOM     23  C   UNL d   1      35.527 -22.882   8.853  0.00  0.00     0.003 A 
ATOM     24  C   UNL d   1      35.953 -21.597   9.196  0.00  0.00     0.000 A 
ATOM     25  C   UNL d   1      35.656 -20.518   8.364  0.00  0.00     0.003 A 
ATOM     26  C   UNL d   1      34.915 -20.724   7.200  0.00  0.00     0.037 A 
ENDBRANCH  20  21
ENDBRANCH  18  20
ENDBRANCH  13  14
ENDBRANCH  10  12
ENDBRANCH   7   8
ENDBRANCH   6   7
ENDBRANCH   4   6
BRANCH   5  27
ATOM     27  C   UNL d   1      26.483 -15.669  -1.899  0.00  0.00     0.043 C 
ATOM     28  C   UNL d   1      25.833 -15.943  -3.097  0.00  0.00     0.033 C 
ATOM     29  C   UNL d   1      25.582 -14.879  -3.953  0.00  0.00     0.039 C 
ATOM     30  C   UNL d   1      25.805 -13.566  -3.525  0.00  0.00     0.068 C 
ATOM     31  C   UNL d   1      26.353 -13.319  -2.261  0.00  0.00     0.039 C 
ATOM     32  C   UNL d   1      26.712 -14.375  -1.441  0.00  0.00     0.033 C 
BRANCH  30  33
ATOM     33  O   UNL d   1      25.475 -12.600  -4.433  0.00  0.00    -0.356 OA
ATOM     34  C   UNL d   1      25.536 -11.268  -3.933  0.00  0.00     0.210 C 
ENDBRANCH  30  33
ENDBRANCH   5  27
BRANCH   1  35
ATOM     35  C   UNL d   1      24.822 -17.666  -0.467  0.00  0.00     0.012 A 
ATOM     36  C   UNL d   1      24.029 -16.516  -0.547  0.00  0.00     0.018 A 
ATOM     37  C   UNL d   1      22.624 -16.617  -0.620  0.00  0.00     0.037 A 
ATOM     38  C   UNL d   1      21.984 -17.860  -0.684  0.00  0.00     0.068 A 
ATOM     39  C   UNL d   1      22.764 -19.008  -0.651  0.00  0.00     0.037 A 
ATOM     40  C   UNL d   1      24.162 -18.909  -0.536  0.00  0.00     0.018 A 
BRANCH  38  41
ATOM     41  O   UNL d   1      20.633 -17.826  -0.895  0.00  0.00    -0.356 OA
ATOM     42  C   UNL d   1      19.939 -19.072  -0.895  0.00  0.00     0.210 C 
ENDBRANCH  38  41
ENDBRANCH   1  35
TORSDOF 11
ENDMDL
MODEL 5
REMARK VINA RESULT:    -9.719      1.835      2.676
REMARK INTER + INTRA:         -15.908
REMARK INTER:                 -13.000
REMARK INTRA:                  -2.908
REMARK CONF_INDEPENDENT:        3.281
REMARK UNBOUND:                -2.908
REMARK  11 active torsions:
REMARK  status: ('A' for Active; 'I' for Inactive)
REMARK    1  A    between atoms: O_2  and  C_3 
REMARK    2  A    between atoms: C_6  and  C_7 
REMARK    3  A    between atoms: C_10  and  S_11 
REMARK    4  A    between atoms: S_11  and  C_12 
REMARK    5  A    between atoms: C_12  and  C_13 
REMARK       I    between atoms: C_13  and  N_15 
REMARK    6  A    between atoms: N_15  and  N_16 
REMARK    7  A    between atoms: C_17  and  C_18 
REMARK    8  A    between atoms: C_22  and  O_23 
REMARK    9  A    between atoms: O_23  and  C_24 
REMARK   10  A    between atoms: N_31  and  C_32 
REMARK   11  A    between atoms: C_35  and  O_36 
ROOT
ATOM      1  C   UNL d   1      25.864 -17.330  -0.134  0.00  0.00     0.169 A 
ATOM      2  N   UNL d   1      26.649 -17.906   0.758  0.00  0.00    -0.128 NA
ATOM      3  N   UNL d   1      27.938 -17.393   0.605  0.00  0.00    -0.122 NA
ATOM      4  C   UNL d   1      27.925 -16.492  -0.362  0.00  0.00     0.197 A 
ATOM      5  N   UNL d   1      26.638 -16.440  -0.862  0.00  0.00    -0.271 N 
ENDROOT
BRANCH   4   6
ATOM      6  S   UNL d   1      29.314 -15.466  -0.767  0.00  0.00    -0.080 SA
BRANCH   6   7
ATOM      7  C   UNL d   1      28.988 -13.760  -0.220  0.00  0.00     0.187 C 
BRANCH   7   8
ATOM      8  C   UNL d   1      28.877 -13.468   1.262  0.00  0.00     0.247 C 
ATOM      9  O   UNL d   1      28.760 -12.318   1.702  0.00  0.00    -0.271 OA
ATOM     10  N   UNL d   1      28.838 -14.621   2.082  0.00  0.00    -0.247 N 
ATOM     11  H   UNL d   1      28.908 -15.573   1.723  0.00  0.00     0.192 HD
BRANCH  10  12
ATOM     12  N   UNL d   1      28.687 -14.425   3.432  0.00  0.00    -0.184 NA
ATOM     13  C   UNL d   1      29.438 -13.585   4.066  0.00  0.00     0.150 C 
BRANCH  13  14
ATOM     14  C   UNL d   1      29.242 -13.381   5.526  0.00  0.00    -0.014 A 
ATOM     15  C   UNL d   1      29.196 -14.449   6.425  0.00  0.00     0.013 A 
ATOM     16  C   UNL d   1      28.905 -14.208   7.777  0.00  0.00     0.004 A 
ATOM     17  C   UNL d   1      28.696 -12.902   8.232  0.00  0.00     0.037 A 
ATOM     18  C   UNL d   1      28.759 -11.833   7.334  0.00  0.00     0.076 A 
ATOM     19  C   UNL d   1      29.063 -12.081   5.992  0.00  0.00     0.050 A 
BRANCH  18  20
ATOM     20  O   UNL d   1      28.530 -10.577   7.854  0.00  0.00    -0.311 OA
BRANCH  20  21
ATOM     21  C   UNL d   1      29.579  -9.894   8.432  0.00  0.00     0.076 A 
ATOM     22  C   UNL d   1      30.075  -8.791   7.740  0.00  0.00     0.037 A 
ATOM     23  C   UNL d   1      31.178  -8.099   8.241  0.00  0.00     0.003 A 
ATOM     24  C   UNL d   1      31.732  -8.459   9.471  0.00  0.00     0.000 A 
ATOM     25  C   UNL d   1      31.226  -9.552  10.172  0.00  0.00     0.003 A 
ATOM     26  C   UNL d   1      30.178 -10.297   9.631  0.00  0.00     0.037 A 
ENDBRANCH  20  21
ENDBRANCH  18  20
ENDBRANCH  13  14
ENDBRANCH  10  12
ENDBRANCH   7   8
ENDBRANCH   6   7
ENDBRANCH   4   6
BRANCH   5  27
ATOM     27  C   UNL d   1      26.120 -15.586  -1.828  0.00  0.00     0.043 C 
ATOM     28  C   UNL d   1      25.852 -16.082  -3.099  0.00  0.00     0.033 C 
ATOM     29  C   UNL d   1      25.663 -15.164  -4.123  0.00  0.00     0.039 C 
ATOM     30  C   UNL d   1      25.556 -13.800  -3.832  0.00  0.00     0.068 C 
ATOM     31  C   UNL d   1      25.714 -13.344  -2.519  0.00  0.00     0.039 C 
ATOM     32  C   UNL d   1      26.014 -14.236  -1.505  0.00  0.00     0.033 C 
BRANCH  30  33
ATOM     33  O   UNL d   1      25.321 -12.997  -4.913  0.00  0.00    -0.356 OA
ATOM     34  C   UNL d   1      26.311 -11.998  -5.138  0.00  0.00     0.210 C 
ENDBRANCH  30  33
ENDBRANCH   5  27
BRANCH   1  35
ATOM     35  C   UNL d   1      24.437 -17.597  -0.440  0.00  0.00     0.012 A 
ATOM     36  C   UNL d   1      23.915 -18.892  -0.525  0.00  0.00     0.018 A 
ATOM     37  C   UNL d   1      22.543 -19.097  -0.781  0.00  0.00     0.037 A 
ATOM     38  C   UNL d   1      21.653 -18.023  -0.890  0.00  0.00     0.068 A 
ATOM     39  C   UNL d   1      22.152 -16.733  -0.763  0.00  0.00     0.037 A 
ATOM     40  C   UNL d   1      23.527 -16.527  -0.548  0.00  0.00     0.018 A 
BRANCH  38  41
ATOM     41  O   UNL d   1      20.329 -18.352  -0.997  0.00  0.00    -0.356 OA
ATOM     42  C   UNL d   1      19.820 -19.326  -0.089  0.00  0.00     0.210 C 
ENDBRANCH  38  41
ENDBRANCH   1  35
TORSDOF 11
ENDMDL
MODEL 6
REMARK VINA RESULT:    -9.610      5.932      9.045
REMARK INTER + INTRA:         -15.853
REMARK INTER:                 -12.891
REMARK INTRA:                  -2.962
REMARK CONF_INDEPENDENT:        3.281
REMARK UNBOUND:                -2.962
REMARK  11 active torsions:
REMARK  status: ('A' for Active; 'I' for Inactive)
REMARK    1  A    between atoms: O_2  and  C_3 
REMARK    2  A    between atoms: C_6  and  C_7 
REMARK    3  A    between atoms: C_10  and  S_11 
REMARK    4  A    between atoms: S_11  and  C_12 
REMARK    5  A    between atoms: C_12  and  C_13 
REMARK       I    between atoms: C_13  and  N_15 
REMARK    6  A    between atoms: N_15  and  N_16 
REMARK    7  A    between atoms: C_17  and  C_18 
REMARK    8  A    between atoms: C_22  and  O_23 
REMARK    9  A    between atoms: O_23  and  C_24 
REMARK   10  A    between atoms: N_31  and  C_32 
REMARK   11  A    between atoms: C_35  and  O_36 
ROOT
ATOM      1  C   UNL d   1      26.035 -17.433  -0.352  0.00  0.00     0.169 A 
ATOM      2  N   UNL d   1      26.841 -18.124   0.434  0.00  0.00    -0.128 NA
ATOM      3  N   UNL d   1      28.146 -17.674   0.230  0.00  0.00    -0.122 NA
ATOM      4  C   UNL d   1      28.124 -16.696  -0.660  0.00  0.00     0.197 A 
ATOM      5  N   UNL d   1      26.813 -16.532  -1.062  0.00  0.00    -0.271 N 
ENDROOT
BRANCH   4   6
ATOM      6  S   UNL d   1      29.544 -15.721  -1.082  0.00  0.00    -0.080 SA
BRANCH   6   7
ATOM      7  C   UNL d   1      30.727 -16.744  -2.015  0.00  0.00     0.187 C 
BRANCH   7   8
ATOM      8  C   UNL d   1      30.659 -18.251  -1.887  0.00  0.00     0.247 C 
ATOM      9  O   UNL d   1      30.862 -19.006  -2.847  0.00  0.00    -0.271 OA
ATOM     10  N   UNL d   1      30.427 -18.716  -0.570  0.00  0.00    -0.247 N 
ATOM     11  H   UNL d   1      30.284 -18.100   0.229  0.00  0.00     0.192 HD
BRANCH  10  12
ATOM     12  N   UNL d   1      30.405 -20.075  -0.380  0.00  0.00    -0.184 NA
ATOM     13  C   UNL d   1      31.505 -20.752  -0.325  0.00  0.00     0.150 C 
BRANCH  13  14
ATOM     14  C   UNL d   1      31.452 -22.222  -0.102  0.00  0.00    -0.014 A 
ATOM     15  C   UNL d   1      32.451 -22.904   0.595  0.00  0.00     0.013 A 
ATOM     16  C   UNL d   1      32.404 -24.304   0.686  0.00  0.00     0.004 A 
ATOM     17  C   UNL d   1      31.343 -25.013   0.113  0.00  0.00     0.037 A 
ATOM     18  C   UNL d   1      30.335 -24.327  -0.570  0.00  0.00     0.076 A 
ATOM     19  C   UNL d   1      30.383 -22.932  -0.645  0.00  0.00     0.050 A 
BRANCH  18  20
ATOM     20  O   UNL d   1      29.330 -25.095  -1.119  0.00  0.00    -0.311 OA
BRANCH  20  21
ATOM     21  C   UNL d   1      29.413 -25.449  -2.448  0.00  0.00     0.076 A 
ATOM     22  C   UNL d   1      30.570 -25.080  -3.132  0.00  0.00     0.037 A 
ATOM     23  C   UNL d   1      30.684 -25.353  -4.495  0.00  0.00     0.003 A 
ATOM     24  C   UNL d   1      29.680 -26.064  -5.155  0.00  0.00     0.000 A 
ATOM     25  C   UNL d   1      28.529 -26.447  -4.468  0.00  0.00     0.003 A 
ATOM     26  C   UNL d   1      28.376 -26.101  -3.126  0.00  0.00     0.037 A 
ENDBRANCH  20  21
ENDBRANCH  18  20
ENDBRANCH  13  14
ENDBRANCH  10  12
ENDBRANCH   7   8
ENDBRANCH   6   7
ENDBRANCH   4   6
BRANCH   5  27
ATOM     27  C   UNL d   1      26.285 -15.573  -1.919  0.00  0.00     0.043 C 
ATOM     28  C   UNL d   1      25.895 -15.950  -3.199  0.00  0.00     0.033 C 
ATOM     29  C   UNL d   1      25.695 -14.943  -4.135  0.00  0.00     0.039 C 
ATOM     30  C   UNL d   1      25.700 -13.603  -3.735  0.00  0.00     0.068 C 
ATOM     31  C   UNL d   1      25.981 -13.263  -2.407  0.00  0.00     0.039 C 
ATOM     32  C   UNL d   1      26.292 -14.250  -1.489  0.00  0.00     0.033 C 
BRANCH  30  33
ATOM     33  O   UNL d   1      25.442 -12.704  -4.731  0.00  0.00    -0.356 OA
ATOM     34  C   UNL d   1      26.369 -11.625  -4.814  0.00  0.00     0.210 C 
ENDBRANCH  30  33
ENDBRANCH   5  27
BRANCH   1  35
ATOM     35  C   UNL d   1      24.578 -17.593  -0.576  0.00  0.00     0.012 A 
ATOM     36  C   UNL d   1      23.964 -18.847  -0.673  0.00  0.00     0.018 A 
ATOM     37  C   UNL d   1      22.569 -18.951  -0.848  0.00  0.00     0.037 A 
ATOM     38  C   UNL d   1      21.748 -17.818  -0.861  0.00  0.00     0.068 A 
ATOM     39  C   UNL d   1      22.341 -16.570  -0.720  0.00  0.00     0.037 A 
ATOM     40  C   UNL d   1      23.737 -16.463  -0.587  0.00  0.00     0.018 A 
BRANCH  38  41
ATOM     41  O   UNL d   1      20.401 -18.055  -0.895  0.00  0.00    -0.356 OA
ATOM     42  C   UNL d   1      19.951 -19.341  -0.476  0.00  0.00     0.210 C 
ENDBRANCH  38  41
ENDBRANCH   1  35
TORSDOF 11
ENDMDL
MODEL 7
REMARK VINA RESULT:    -9.538      6.141      9.541
REMARK INTER + INTRA:         -16.378
REMARK INTER:                 -12.819
REMARK INTRA:                  -3.559
REMARK CONF_INDEPENDENT:        3.281
REMARK UNBOUND:                -3.559
REMARK  11 active torsions:
REMARK  status: ('A' for Active; 'I' for Inactive)
REMARK    1  A    between atoms: O_2  and  C_3 
REMARK    2  A    between atoms: C_6  and  C_7 
REMARK    3  A    between atoms: C_10  and  S_11 
REMARK    4  A    between atoms: S_11  and  C_12 
REMARK    5  A    between atoms: C_12  and  C_13 
REMARK       I    between atoms: C_13  and  N_15 
REMARK    6  A    between atoms: N_15  and  N_16 
REMARK    7  A    between atoms: C_17  and  C_18 
REMARK    8  A    between atoms: C_22  and  O_23 
REMARK    9  A    between atoms: O_23  and  C_24 
REMARK   10  A    between atoms: N_31  and  C_32 
REMARK   11  A    between atoms: C_35  and  O_36 
ROOT
ATOM      1  C   UNL d   1      25.978 -17.750  -0.418  0.00  0.00     0.169 A 
ATOM      2  N   UNL d   1      26.808 -18.580   0.188  0.00  0.00    -0.128 NA
ATOM      3  N   UNL d   1      28.113 -18.214  -0.144  0.00  0.00    -0.122 NA
ATOM      4  C   UNL d   1      28.071 -17.152  -0.930  0.00  0.00     0.197 A 
ATOM      5  N   UNL d   1      26.741 -16.844  -1.138  0.00  0.00    -0.271 N 
ENDROOT
BRANCH   4   6
ATOM      6  S   UNL d   1      29.511 -16.252  -1.443  0.00  0.00    -0.080 SA
BRANCH   6   7
ATOM      7  C   UNL d   1      29.767 -16.486  -3.231  0.00  0.00     0.187 C 
BRANCH   7   8
ATOM      8  C   UNL d   1      29.097 -15.536  -4.202  0.00  0.00     0.247 C 
ATOM      9  O   UNL d   1      28.292 -15.926  -5.058  0.00  0.00    -0.271 OA
ATOM     10  N   UNL d   1      29.407 -14.171  -3.992  0.00  0.00    -0.247 N 
ATOM     11  H   UNL d   1      30.049 -13.843  -3.272  0.00  0.00     0.192 HD
BRANCH  10  12
ATOM     12  N   UNL d   1      28.791 -13.256  -4.808  0.00  0.00    -0.184 NA
ATOM     13  C   UNL d   1      28.932 -13.314  -6.092  0.00  0.00     0.150 C 
BRANCH  13  14
ATOM     14  C   UNL d   1      28.240 -12.318  -6.952  0.00  0.00    -0.014 A 
ATOM     15  C   UNL d   1      28.806 -11.838  -8.135  0.00  0.00     0.013 A 
ATOM     16  C   UNL d   1      28.157 -10.822  -8.855  0.00  0.00     0.004 A 
ATOM     17  C   UNL d   1      26.932 -10.315  -8.410  0.00  0.00     0.037 A 
ATOM     18  C   UNL d   1      26.358 -10.808  -7.235  0.00  0.00     0.076 A 
ATOM     19  C   UNL d   1      27.005 -11.829  -6.532  0.00  0.00     0.050 A 
BRANCH  18  20
ATOM     20  O   UNL d   1      25.156 -10.250  -6.854  0.00  0.00    -0.311 OA
BRANCH  20  21
ATOM     21  C   UNL d   1      25.166  -9.095  -6.103  0.00  0.00     0.076 A 
ATOM     22  C   UNL d   1      23.963  -8.400  -5.993  0.00  0.00     0.037 A 
ATOM     23  C   UNL d   1      23.925  -7.189  -5.301  0.00  0.00     0.003 A 
ATOM     24  C   UNL d   1      25.067  -6.716  -4.652  0.00  0.00     0.000 A 
ATOM     25  C   UNL d   1      26.267  -7.419  -4.748  0.00  0.00     0.003 A 
ATOM     26  C   UNL d   1      26.327  -8.585  -5.511  0.00  0.00     0.037 A 
ENDBRANCH  20  21
ENDBRANCH  18  20
ENDBRANCH  13  14
ENDBRANCH  10  12
ENDBRANCH   7   8
ENDBRANCH   6   7
ENDBRANCH   4   6
BRANCH   5  27
ATOM     27  C   UNL d   1      26.201 -15.764  -1.826  0.00  0.00     0.043 C 
ATOM     28  C   UNL d   1      25.712 -15.955  -3.113  0.00  0.00     0.033 C 
ATOM     29  C   UNL d   1      25.496 -14.828  -3.895  0.00  0.00     0.039 C 
ATOM     30  C   UNL d   1      25.585 -13.553  -3.329  0.00  0.00     0.068 C 
ATOM     31  C   UNL d   1      25.967 -13.400  -1.991  0.00  0.00     0.039 C 
ATOM     32  C   UNL d   1      26.295 -14.509  -1.231  0.00  0.00     0.033 C 
BRANCH  30  33
ATOM     33  O   UNL d   1      25.304 -12.523  -4.181  0.00  0.00    -0.356 OA
ATOM     34  C   UNL d   1      25.592 -11.227  -3.664  0.00  0.00     0.210 C 
ENDBRANCH  30  33
ENDBRANCH   5  27
BRANCH   1  35
ATOM     35  C   UNL d   1      24.495 -17.771  -0.462  0.00  0.00     0.012 A 
ATOM     36  C   UNL d   1      23.727 -16.604  -0.505  0.00  0.00     0.018 A 
ATOM     37  C   UNL d   1      22.320 -16.673  -0.584  0.00  0.00     0.037 A 
ATOM     38  C   UNL d   1      21.655 -17.899  -0.691  0.00  0.00     0.068 A 
ATOM     39  C   UNL d   1      22.411 -19.065  -0.695  0.00  0.00     0.037 A 
ATOM     40  C   UNL d   1      23.811 -18.997  -0.574  0.00  0.00     0.018 A 
BRANCH  38  41
ATOM     41  O   UNL d   1      20.305 -17.832  -0.903  0.00  0.00    -0.356 OA
ATOM     42  C   UNL d   1      19.551 -19.026  -0.711  0.00  0.00     0.210 C 
ENDBRANCH  38  41
ENDBRANCH   1  35
TORSDOF 11
ENDMDL
MODEL 8
REMARK VINA RESULT:    -9.290      2.126      9.987
REMARK INTER + INTRA:         -16.105
REMARK INTER:                 -12.571
REMARK INTRA:                  -3.533
REMARK CONF_INDEPENDENT:        3.281
REMARK UNBOUND:                -3.533
REMARK  11 active torsions:
REMARK  status: ('A' for Active; 'I' for Inactive)
REMARK    1  A    between atoms: O_2  and  C_3 
REMARK    2  A    between atoms: C_6  and  C_7 
REMARK    3  A    between atoms: C_10  and  S_11 
REMARK    4  A    between atoms: S_11  and  C_12 
REMARK    5  A    between atoms: C_12  and  C_13 
REMARK       I    between atoms: C_13  and  N_15 
REMARK    6  A    between atoms: N_15  and  N_16 
REMARK    7  A    between atoms: C_17  and  C_18 
REMARK    8  A    between atoms: C_22  and  O_23 
REMARK    9  A    between atoms: O_23  and  C_24 
REMARK   10  A    between atoms: N_31  and  C_32 
REMARK   11  A    between atoms: C_35  and  O_36 
ROOT
ATOM      1  C   UNL d   1      27.754 -12.851   1.698  0.00  0.00     0.169 A 
ATOM      2  N   UNL d   1      26.686 -12.313   1.134  0.00  0.00    -0.128 NA
ATOM      3  N   UNL d   1      26.973 -12.075  -0.211  0.00  0.00    -0.122 NA
ATOM      4  C   UNL d   1      28.203 -12.491  -0.464  0.00  0.00     0.197 A 
ATOM      5  N   UNL d   1      28.730 -12.967   0.721  0.00  0.00    -0.271 N 
ENDROOT
BRANCH   4   6
ATOM      6  S   UNL d   1      28.908 -12.539  -2.090  0.00  0.00    -0.080 SA
BRANCH   6   7
ATOM      7  C   UNL d   1      27.666 -13.156  -3.271  0.00  0.00     0.187 C 
BRANCH   7   8
ATOM      8  C   UNL d   1      26.905 -14.424  -2.946  0.00  0.00     0.247 C 
ATOM      9  O   UNL d   1      26.791 -15.353  -3.756  0.00  0.00    -0.271 OA
ATOM     10  N   UNL d   1      26.411 -14.485  -1.620  0.00  0.00    -0.247 N 
ATOM     11  H   UNL d   1      26.524 -13.734  -0.941  0.00  0.00     0.192 HD
BRANCH  10  12
ATOM     12  N   UNL d   1      25.756 -15.632  -1.248  0.00  0.00    -0.184 NA
ATOM     13  C   UNL d   1      24.467 -15.709  -1.317  0.00  0.00     0.150 C 
BRANCH  13  14
ATOM     14  C   UNL d   1      23.785 -16.970  -0.920  0.00  0.00    -0.014 A 
ATOM     15  C   UNL d   1      24.494 -18.133  -0.614  0.00  0.00     0.013 A 
ATOM     16  C   UNL d   1      23.799 -19.322  -0.347  0.00  0.00     0.004 A 
ATOM     17  C   UNL d   1      22.400 -19.338  -0.353  0.00  0.00     0.037 A 
ATOM     18  C   UNL d   1      21.692 -18.169  -0.643  0.00  0.00     0.076 A 
ATOM     19  C   UNL d   1      22.392 -16.986  -0.895  0.00  0.00     0.050 A 
BRANCH  18  20
ATOM     20  O   UNL d   1      20.316 -18.266  -0.642  0.00  0.00    -0.311 OA
BRANCH  20  21
ATOM     21  C   UNL d   1      19.717 -19.241   0.127  0.00  0.00     0.076 A 
ATOM     22  C   UNL d   1      18.801 -20.077  -0.509  0.00  0.00     0.037 A 
ATOM     23  C   UNL d   1      18.114 -21.040   0.230  0.00  0.00     0.003 A 
ATOM     24  C   UNL d   1      18.402 -21.221   1.584  0.00  0.00     0.000 A 
ATOM     25  C   UNL d   1      19.330 -20.396   2.218  0.00  0.00     0.003 A 
ATOM     26  C   UNL d   1      19.955 -19.377   1.499  0.00  0.00     0.037 A 
ENDBRANCH  20  21
ENDBRANCH  18  20
ENDBRANCH  13  14
ENDBRANCH  10  12
ENDBRANCH   7   8
ENDBRANCH   6   7
ENDBRANCH   4   6
BRANCH   5  27
ATOM     27  C   UNL d   1      29.958 -13.582   0.935  0.00  0.00     0.043 C 
ATOM     28  C   UNL d   1      30.054 -14.964   0.817  0.00  0.00     0.033 C 
ATOM     29  C   UNL d   1      31.177 -15.580   1.355  0.00  0.00     0.039 C 
ATOM     30  C   UNL d   1      32.247 -14.809   1.818  0.00  0.00     0.068 C 
ATOM     31  C   UNL d   1      32.165 -13.411   1.813  0.00  0.00     0.039 C 
ATOM     32  C   UNL d   1      31.007 -12.786   1.384  0.00  0.00     0.033 C 
BRANCH  30  33
ATOM     33  O   UNL d   1      33.316 -15.524   2.278  0.00  0.00    -0.356 OA
ATOM     34  C   UNL d   1      34.323 -14.744   2.917  0.00  0.00     0.210 C 
ENDBRANCH  30  33
ENDBRANCH   5  27
BRANCH   1  35
ATOM     35  C   UNL d   1      27.989 -13.198   3.120  0.00  0.00     0.012 A 
ATOM     36  C   UNL d   1      27.908 -14.511   3.598  0.00  0.00     0.018 A 
ATOM     37  C   UNL d   1      28.177 -14.799   4.952  0.00  0.00     0.037 A 
ATOM     38  C   UNL d   1      28.597 -13.804   5.840  0.00  0.00     0.068 A 
ATOM     39  C   UNL d   1      28.726 -12.504   5.367  0.00  0.00     0.037 A 
ATOM     40  C   UNL d   1      28.417 -12.209   4.027  0.00  0.00     0.018 A 
BRANCH  38  41
ATOM     41  O   UNL d   1      28.963 -14.231   7.088  0.00  0.00    -0.356 OA
ATOM     42  C   UNL d   1      30.331 -14.074   7.459  0.00  0.00     0.210 C 
ENDBRANCH  38  41
ENDBRANCH   1  35
TORSDOF 11
ENDMDL
MODEL 9
REMARK VINA RESULT:    -8.097      5.518     10.128
REMARK INTER + INTRA:         -15.850
REMARK INTER:                 -11.378
REMARK INTRA:                  -4.472
REMARK CONF_INDEPENDENT:        3.281
REMARK UNBOUND:                -4.472
REMARK  11 active torsions:
REMARK  status: ('A' for Active; 'I' for Inactive)
REMARK    1  A    between atoms: O_2  and  C_3 
REMARK    2  A    between atoms: C_6  and  C_7 
REMARK    3  A    between atoms: C_10  and  S_11 
REMARK    4  A    between atoms: S_11  and  C_12 
REMARK    5  A    between atoms: C_12  and  C_13 
REMARK       I    between atoms: C_13  and  N_15 
REMARK    6  A    between atoms: N_15  and  N_16 
REMARK    7  A    between atoms: C_17  and  C_18 
REMARK    8  A    between atoms: C_22  and  O_23 
REMARK    9  A    between atoms: O_23  and  C_24 
REMARK   10  A    between atoms: N_31  and  C_32 
REMARK   11  A    between atoms: C_35  and  O_36 
ROOT
ATOM      1  C   UNL d   1      29.274 -15.063  -1.451  0.00  0.00     0.169 A 
ATOM      2  N   UNL d   1      29.726 -13.885  -1.843  0.00  0.00    -0.128 NA
ATOM      3  N   UNL d   1      28.640 -13.116  -2.264  0.00  0.00    -0.122 NA
ATOM      4  C   UNL d   1      27.533 -13.821  -2.104  0.00  0.00     0.197 A 
ATOM      5  N   UNL d   1      27.898 -15.059  -1.612  0.00  0.00    -0.271 N 
ENDROOT
BRANCH   4   6
ATOM      6  S   UNL d   1      25.905 -13.161  -2.350  0.00  0.00    -0.080 SA
BRANCH   6   7
ATOM      7  C   UNL d   1      25.261 -13.719  -3.959  0.00  0.00     0.187 C 
BRANCH   7   8
ATOM      8  C   UNL d   1      26.017 -14.782  -4.728  0.00  0.00     0.247 C 
ATOM      9  O   UNL d   1      25.440 -15.670  -5.368  0.00  0.00    -0.271 OA
ATOM     10  N   UNL d   1      27.424 -14.622  -4.715  0.00  0.00    -0.247 N 
ATOM     11  H   UNL d   1      27.903 -13.877  -4.211  0.00  0.00     0.192 HD
BRANCH  10  12
ATOM     12  N   UNL d   1      28.163 -15.525  -5.437  0.00  0.00    -0.184 NA
ATOM     13  C   UNL d   1      29.296 -15.960  -4.989  0.00  0.00     0.150 C 
BRANCH  13  14
ATOM     14  C   UNL d   1      30.069 -16.950  -5.785  0.00  0.00    -0.014 A 
ATOM     15  C   UNL d   1      30.791 -16.586  -6.923  0.00  0.00     0.013 A 
ATOM     16  C   UNL d   1      31.418 -17.576  -7.696  0.00  0.00     0.004 A 
ATOM     17  C   UNL d   1      31.350 -18.919  -7.312  0.00  0.00     0.037 A 
ATOM     18  C   UNL d   1      30.640 -19.280  -6.163  0.00  0.00     0.076 A 
ATOM     19  C   UNL d   1      30.030 -18.286  -5.392  0.00  0.00     0.050 A 
BRANCH  18  20
ATOM     20  O   UNL d   1      30.608 -20.624  -5.856  0.00  0.00    -0.311 OA
BRANCH  20  21
ATOM     21  C   UNL d   1      31.032 -21.033  -4.610  0.00  0.00     0.076 A 
ATOM     22  C   UNL d   1      32.168 -20.413  -4.092  0.00  0.00     0.037 A 
ATOM     23  C   UNL d   1      32.685 -20.830  -2.866  0.00  0.00     0.003 A 
ATOM     24  C   UNL d   1      32.022 -21.807  -2.120  0.00  0.00     0.000 A 
ATOM     25  C   UNL d   1      30.876 -22.416  -2.630  0.00  0.00     0.003 A 
ATOM     26  C   UNL d   1      30.407 -22.061  -3.895  0.00  0.00     0.037 A 
ENDBRANCH  20  21
ENDBRANCH  18  20
ENDBRANCH  13  14
ENDBRANCH  10  12
ENDBRANCH   7   8
ENDBRANCH   6   7
ENDBRANCH   4   6
BRANCH   5  27
ATOM     27  C   UNL d   1      27.076 -16.105  -1.209  0.00  0.00     0.043 C 
ATOM     28  C   UNL d   1      26.012 -16.482  -2.021  0.00  0.00     0.033 C 
ATOM     29  C   UNL d   1      25.023 -17.279  -1.459  0.00  0.00     0.039 C 
ATOM     30  C   UNL d   1      25.206 -17.832  -0.187  0.00  0.00     0.068 C 
ATOM     31  C   UNL d   1      26.350 -17.524   0.559  0.00  0.00     0.039 C 
ATOM     32  C   UNL d   1      27.290 -16.642   0.057  0.00  0.00     0.033 C 
BRANCH  30  33
ATOM     33  O   UNL d   1      24.190 -18.638   0.242  0.00  0.00    -0.356 OA
ATOM     34  C   UNL d   1      23.076 -18.714  -0.642  0.00  0.00     0.210 C 
ENDBRANCH  30  33
ENDBRANCH   5  27
BRANCH   1  35
ATOM     35  C   UNL d   1      30.032 -16.258  -1.008  0.00  0.00     0.012 A 
ATOM     36  C   UNL d   1      30.026 -17.461  -1.722  0.00  0.00     0.018 A 
ATOM     37  C   UNL d   1      30.793 -18.560  -1.282  0.00  0.00     0.037 A 
ATOM     38  C   UNL d   1      31.631 -18.465  -0.167  0.00  0.00     0.068 A 
ATOM     39  C   UNL d   1      31.681 -17.261   0.524  0.00  0.00     0.037 A 
ATOM     40  C   UNL d   1      30.885 -16.178   0.111  0.00  0.00     0.018 A 
BRANCH  38  41
ATOM     41  O   UNL d   1      32.429 -19.550   0.076  0.00  0.00    -0.356 OA
ATOM     42  C   UNL d   1      32.399 -20.104   1.389  0.00  0.00     0.210 C 
ENDBRANCH  38  41
ENDBRANCH   1  35
TORSDOF 11
ENDMDL
