MODEL 1
REMARK VINA RESULT:    -8.221      0.000      0.000
REMARK INTER + INTRA:         -14.617
REMARK INTER:                 -10.607
REMARK INTRA:                  -4.009
REMARK CONF_INDEPENDENT:        2.386
REMARK UNBOUND:                -4.009
REMARK  8 active torsions:
REMARK  status: ('A' for Active; 'I' for Inactive)
REMARK    1  A    between atoms: C_2  and  C_3 
REMARK       I    between atoms: C_2  and  N_19 
REMARK    2  A    between atoms: C_3  and  C_4 
REMARK    3  A    between atoms: C_5  and  C_4 
REMARK    4  A    between atoms: C_8  and  C_9 
REMARK       I    between atoms: C_9  and  N_11 
REMARK    5  A    between atoms: N_11  and  C_12 
REMARK    6  A    between atoms: N_19  and  C_20 
REMARK    7  A    between atoms: C_20  and  C_21 
REMARK    8  A    between atoms: C_21  and  C_22 
ROOT
ATOM      1  C   UNL d   1      27.716  -9.833   1.314  0.00  0.00     0.105 C 
ENDROOT
BRANCH   1   2
ATOM      2  C   UNL d   1      26.743 -10.654   2.136  0.00  0.00     0.217 C 
ATOM      3  O   UNL d   1      26.102 -10.231   3.099  0.00  0.00    -0.274 OA
ATOM      4  N   UNL d   1      26.573 -11.949   1.752  0.00  0.00    -0.361 N 
ATOM      5  H   UNL d   1      25.918 -12.461   2.340  0.00  0.00     0.162 HD
BRANCH   4   6
ATOM      6  C   UNL d   1      27.250 -12.567   0.644  0.00  0.00     0.127 C 
BRANCH   6   7
ATOM      7  C   UNL d   1      26.407 -13.646   0.021  0.00  0.00     0.056 C 
BRANCH   7   8
ATOM      8  C   UNL d   1      26.948 -15.029   0.149  0.00  0.00    -0.048 A 
ATOM      9  C   UNL d   1      26.172 -16.082  -0.099  0.00  0.00    -0.004 A 
ATOM     10  C   UNL d   1      24.803 -16.162  -0.462  0.00  0.00     0.037 C 
ATOM     11  C   UNL d   1      26.993 -17.263   0.175  0.00  0.00     0.038 A 
ATOM     12  C   UNL d   1      24.212 -17.360  -0.401  0.00  0.00     0.035 C 
ATOM     13 CL   UNL d   1      22.501 -17.460  -0.526  0.00  0.00    -0.084 Cl
ATOM     14  C   UNL d   1      24.988 -18.569  -0.158  0.00  0.00     0.026 C 
ATOM     15  C   UNL d   1      26.316 -18.573   0.103  0.00  0.00     0.031 C 
ATOM     16  N   UNL d   1      28.197 -16.946   0.469  0.00  0.00    -0.385 N 
ATOM     17  C   UNL d   1      28.319 -15.463   0.588  0.00  0.00     0.155 A 
ATOM     18  H   UNL d   1      28.935 -17.638   0.601  0.00  0.00     0.160 HD
ENDBRANCH   7   8
ENDBRANCH   6   7
ENDBRANCH   4   6
ENDBRANCH   1   2
BRANCH   1  19
ATOM     19  C   UNL d   1      28.791  -9.230   2.191  0.00  0.00     0.041 C 
BRANCH  19  20
ATOM     20  C   UNL d   1      28.405  -7.846   2.740  0.00  0.00     0.135 C 
ATOM     21  N   UNL d   1      27.030  -7.834   3.270  0.00  0.00    -0.245 NA
ATOM     22  N   UNL d   1      27.028  -8.085   4.731  0.00  0.00    -0.237 NA
ATOM     23  H   UNL d   1      26.435  -8.489   2.760  0.00  0.00     0.142 HD
ATOM     24  C   UNL d   1      28.403  -8.248   5.260  0.00  0.00     0.226 C 
ATOM     25  H   UNL d   1      26.422  -8.853   5.011  0.00  0.00     0.142 HD
ATOM     26  S   UNL d   1      29.468  -7.347   4.107  0.00  0.00    -0.117 SA
BRANCH  24  27
ATOM     27  C   UNL d   1      28.808  -9.748   5.326  0.00  0.00     0.251 C 
ATOM     28  O   UNL d   1      29.986 -10.107   5.378  0.00  0.00    -0.270 OA
ATOM     29  N   UNL d   1      27.766 -10.669   5.290  0.00  0.00    -0.325 N 
ATOM     30  H   UNL d   1      26.812 -10.364   5.144  0.00  0.00     0.169 HD
BRANCH  29  31
ATOM     31  C   UNL d   1      28.010 -12.063   5.348  0.00  0.00     0.034 A 
ATOM     32  C   UNL d   1      28.517 -12.634   6.516  0.00  0.00     0.029 A 
ATOM     33  C   UNL d   1      28.791 -14.007   6.558  0.00  0.00     0.002 A 
ATOM     34  C   UNL d   1      28.531 -14.817   5.451  0.00  0.00     0.000 A 
ATOM     35  C   UNL d   1      28.025 -14.251   4.287  0.00  0.00     0.002 A 
ATOM     36  C   UNL d   1      27.771 -12.884   4.238  0.00  0.00     0.029 A 
ENDBRANCH  29  31
ENDBRANCH  24  27
ENDBRANCH  19  20
ENDBRANCH   1  19
TORSDOF 8
ENDMDL
MODEL 2
REMARK VINA RESULT:    -8.127      6.614      9.647
REMARK INTER + INTRA:         -14.563
REMARK INTER:                 -10.514
REMARK INTRA:                  -4.050
REMARK CONF_INDEPENDENT:        2.386
REMARK UNBOUND:                -4.050
REMARK  8 active torsions:
REMARK  status: ('A' for Active; 'I' for Inactive)
REMARK    1  A    between atoms: C_2  and  C_3 
REMARK       I    between atoms: C_2  and  N_19 
REMARK    2  A    between atoms: C_3  and  C_4 
REMARK    3  A    between atoms: C_5  and  C_4 
REMARK    4  A    between atoms: C_8  and  C_9 
REMARK       I    between atoms: C_9  and  N_11 
REMARK    5  A    between atoms: N_11  and  C_12 
REMARK    6  A    between atoms: N_19  and  C_20 
REMARK    7  A    between atoms: C_20  and  C_21 
REMARK    8  A    between atoms: C_21  and  C_22 
ROOT
ATOM      1  C   UNL d   1      28.278 -15.265  -4.064  0.00  0.00     0.105 C 
ENDROOT
BRANCH   1   2
ATOM      2  C   UNL d   1      27.408 -14.862  -5.238  0.00  0.00     0.217 C 
ATOM      3  O   UNL d   1      27.601 -15.200  -6.407  0.00  0.00    -0.274 OA
ATOM      4  N   UNL d   1      26.334 -14.078  -4.949  0.00  0.00    -0.361 N 
ATOM      5  H   UNL d   1      25.787 -13.826  -5.770  0.00  0.00     0.162 HD
BRANCH   4   6
ATOM      6  C   UNL d   1      25.989 -13.620  -3.631  0.00  0.00     0.127 C 
BRANCH   6   7
ATOM      7  C   UNL d   1      25.117 -14.616  -2.916  0.00  0.00     0.056 C 
BRANCH   7   8
ATOM      8  C   UNL d   1      25.796 -15.402  -1.847  0.00  0.00    -0.048 A 
ATOM      9  C   UNL d   1      25.221 -16.492  -1.343  0.00  0.00    -0.004 A 
ATOM     10  C   UNL d   1      23.966 -17.094  -1.622  0.00  0.00     0.037 C 
ATOM     11  C   UNL d   1      26.118 -16.975  -0.292  0.00  0.00     0.038 A 
ATOM     12  C   UNL d   1      23.530 -18.042  -0.786  0.00  0.00     0.035 C 
ATOM     13 CL   UNL d   1      21.900 -18.575  -0.895  0.00  0.00    -0.084 Cl
ATOM     14  C   UNL d   1      24.394 -18.575   0.260  0.00  0.00     0.026 C 
ATOM     15  C   UNL d   1      25.638 -18.111   0.520  0.00  0.00     0.031 C 
ATOM     16  N   UNL d   1      27.195 -16.286  -0.235  0.00  0.00    -0.385 N 
ATOM     17  C   UNL d   1      27.103 -15.119  -1.160  0.00  0.00     0.155 A 
ATOM     18  H   UNL d   1      27.976 -16.532   0.374  0.00  0.00     0.160 HD
ENDBRANCH   7   8
ENDBRANCH   6   7
ENDBRANCH   4   6
ENDBRANCH   1   2
BRANCH   1  19
ATOM     19  C   UNL d   1      29.694 -14.761  -4.241  0.00  0.00     0.041 C 
BRANCH  19  20
ATOM     20  C   UNL d   1      30.622 -15.806  -4.885  0.00  0.00     0.135 C 
ATOM     21  N   UNL d   1      29.931 -16.574  -5.936  0.00  0.00    -0.245 NA
ATOM     22  N   UNL d   1      30.174 -15.973  -7.270  0.00  0.00    -0.237 NA
ATOM     23  H   UNL d   1      28.936 -16.671  -5.725  0.00  0.00     0.142 HD
ATOM     24  C   UNL d   1      31.062 -14.791  -7.184  0.00  0.00     0.226 C 
ATOM     25  H   UNL d   1      29.319 -15.768  -7.784  0.00  0.00     0.142 HD
ATOM     26  S   UNL d   1      32.043 -15.037  -5.684  0.00  0.00    -0.117 SA
BRANCH  24  27
ATOM     27  C   UNL d   1      30.241 -13.473  -7.094  0.00  0.00     0.251 C 
ATOM     28  O   UNL d   1      30.654 -12.483  -6.488  0.00  0.00    -0.270 OA
ATOM     29  N   UNL d   1      28.993 -13.482  -7.710  0.00  0.00    -0.325 N 
ATOM     30  H   UNL d   1      28.623 -14.333  -8.114  0.00  0.00     0.169 HD
BRANCH  29  31
ATOM     31  C   UNL d   1      28.155 -12.340  -7.698  0.00  0.00     0.034 A 
ATOM     32  C   UNL d   1      27.785 -11.760  -6.485  0.00  0.00     0.029 A 
ATOM     33  C   UNL d   1      26.927 -10.652  -6.474  0.00  0.00     0.002 A 
ATOM     34  C   UNL d   1      26.464 -10.103  -7.672  0.00  0.00     0.000 A 
ATOM     35  C   UNL d   1      26.832 -10.678  -8.882  0.00  0.00     0.002 A 
ATOM     36  C   UNL d   1      27.668 -11.790  -8.892  0.00  0.00     0.029 A 
ENDBRANCH  29  31
ENDBRANCH  24  27
ENDBRANCH  19  20
ENDBRANCH   1  19
TORSDOF 8
ENDMDL
MODEL 3
REMARK VINA RESULT:    -7.971      3.973      8.587
REMARK INTER + INTRA:         -13.777
REMARK INTER:                 -10.358
REMARK INTRA:                  -3.419
REMARK CONF_INDEPENDENT:        2.386
REMARK UNBOUND:                -3.419
REMARK  8 active torsions:
REMARK  status: ('A' for Active; 'I' for Inactive)
REMARK    1  A    between atoms: C_2  and  C_3 
REMARK       I    between atoms: C_2  and  N_19 
REMARK    2  A    between atoms: C_3  and  C_4 
REMARK    3  A    between atoms: C_5  and  C_4 
REMARK    4  A    between atoms: C_8  and  C_9 
REMARK       I    between atoms: C_9  and  N_11 
REMARK    5  A    between atoms: N_11  and  C_12 
REMARK    6  A    between atoms: N_19  and  C_20 
REMARK    7  A    between atoms: C_20  and  C_21 
REMARK    8  A    between atoms: C_21  and  C_22 
ROOT
ATOM      1  C   UNL d   1      27.162 -13.189   0.938  0.00  0.00     0.105 C 
ENDROOT
BRANCH   1   2
ATOM      2  C   UNL d   1      27.762 -14.523   1.334  0.00  0.00     0.217 C 
ATOM      3  O   UNL d   1      28.189 -15.366   0.545  0.00  0.00    -0.274 OA
ATOM      4  N   UNL d   1      27.832 -14.779   2.670  0.00  0.00    -0.361 N 
ATOM      5  H   UNL d   1      28.233 -15.690   2.885  0.00  0.00     0.162 HD
BRANCH   4   6
ATOM      6  C   UNL d   1      27.379 -13.881   3.697  0.00  0.00     0.127 C 
BRANCH   6   7
ATOM      7  C   UNL d   1      28.158 -14.070   4.971  0.00  0.00     0.056 C 
BRANCH   7   8
ATOM      8  C   UNL d   1      28.359 -12.835   5.782  0.00  0.00    -0.048 A 
ATOM      9  C   UNL d   1      28.780 -12.918   7.042  0.00  0.00    -0.004 A 
ATOM     10  C   UNL d   1      29.073 -14.046   7.852  0.00  0.00     0.037 C 
ATOM     11  C   UNL d   1      28.812 -11.545   7.549  0.00  0.00     0.038 A 
ATOM     12  C   UNL d   1      29.234 -13.846   9.164  0.00  0.00     0.035 C 
ATOM     13 CL   UNL d   1      29.278 -15.199  10.222  0.00  0.00    -0.084 Cl
ATOM     14  C   UNL d   1      29.298 -12.498   9.716  0.00  0.00     0.026 C 
ATOM     15  C   UNL d   1      29.122 -11.375   8.983  0.00  0.00     0.031 C 
ATOM     16  N   UNL d   1      28.527 -10.695   6.636  0.00  0.00    -0.385 N 
ATOM     17  C   UNL d   1      28.103 -11.405   5.394  0.00  0.00     0.155 A 
ATOM     18  H   UNL d   1      28.588  -9.687   6.781  0.00  0.00     0.160 HD
ENDBRANCH   7   8
ENDBRANCH   6   7
ENDBRANCH   4   6
ENDBRANCH   1   2
BRANCH   1  19
ATOM     19  C   UNL d   1      26.655 -13.225  -0.487  0.00  0.00     0.041 C 
BRANCH  19  20
ATOM     20  C   UNL d   1      27.718 -12.789  -1.509  0.00  0.00     0.135 C 
ATOM     21  N   UNL d   1      28.767 -13.811  -1.673  0.00  0.00    -0.245 NA
ATOM     22  N   UNL d   1      28.459 -14.700  -2.820  0.00  0.00    -0.237 NA
ATOM     23  H   UNL d   1      28.914 -14.329  -0.805  0.00  0.00     0.142 HD
ATOM     24  C   UNL d   1      27.204 -14.301  -3.499  0.00  0.00     0.226 C 
ATOM     25  H   UNL d   1      28.460 -15.689  -2.578  0.00  0.00     0.142 HD
ATOM     26  S   UNL d   1      27.010 -12.537  -3.146  0.00  0.00    -0.117 SA
BRANCH  24  27
ATOM     27  C   UNL d   1      25.988 -15.106  -2.958  0.00  0.00     0.251 C 
ATOM     28  O   UNL d   1      24.892 -15.095  -3.520  0.00  0.00    -0.270 OA
ATOM     29  N   UNL d   1      26.197 -15.820  -1.782  0.00  0.00    -0.325 N 
ATOM     30  H   UNL d   1      27.070 -15.738  -1.277  0.00  0.00     0.169 HD
BRANCH  29  31
ATOM     31  C   UNL d   1      25.166 -16.595  -1.195  0.00  0.00     0.034 A 
ATOM     32  C   UNL d   1      25.476 -17.793  -0.551  0.00  0.00     0.029 A 
ATOM     33  C   UNL d   1      24.451 -18.575  -0.003  0.00  0.00     0.002 A 
ATOM     34  C   UNL d   1      23.123 -18.149  -0.068  0.00  0.00     0.000 A 
ATOM     35  C   UNL d   1      22.811 -16.956  -0.707  0.00  0.00     0.002 A 
ATOM     36  C   UNL d   1      23.827 -16.188  -1.269  0.00  0.00     0.029 A 
ENDBRANCH  29  31
ENDBRANCH  24  27
ENDBRANCH  19  20
ENDBRANCH   1  19
TORSDOF 8
ENDMDL
MODEL 4
REMARK VINA RESULT:    -7.741      4.849      6.624
REMARK INTER + INTRA:         -13.636
REMARK INTER:                 -10.127
REMARK INTRA:                  -3.509
REMARK CONF_INDEPENDENT:        2.386
REMARK UNBOUND:                -3.509
REMARK  8 active torsions:
REMARK  status: ('A' for Active; 'I' for Inactive)
REMARK    1  A    between atoms: C_2  and  C_3 
REMARK       I    between atoms: C_2  and  N_19 
REMARK    2  A    between atoms: C_3  and  C_4 
REMARK    3  A    between atoms: C_5  and  C_4 
REMARK    4  A    between atoms: C_8  and  C_9 
REMARK       I    between atoms: C_9  and  N_11 
REMARK    5  A    between atoms: N_11  and  C_12 
REMARK    6  A    between atoms: N_19  and  C_20 
REMARK    7  A    between atoms: C_20  and  C_21 
REMARK    8  A    between atoms: C_21  and  C_22 
ROOT
ATOM      1  C   UNL d   1      26.630 -11.222  -5.069  0.00  0.00     0.105 C 
ENDROOT
BRANCH   1   2
ATOM      2  C   UNL d   1      25.729 -11.405  -3.865  0.00  0.00     0.217 C 
ATOM      3  O   UNL d   1      25.155 -10.493  -3.269  0.00  0.00    -0.274 OA
ATOM      4  N   UNL d   1      25.549 -12.685  -3.437  0.00  0.00    -0.361 N 
ATOM      5  H   UNL d   1      24.945 -12.755  -2.620  0.00  0.00     0.162 HD
BRANCH   4   6
ATOM      6  C   UNL d   1      26.151 -13.841  -4.044  0.00  0.00     0.127 C 
BRANCH   6   7
ATOM      7  C   UNL d   1      25.538 -15.114  -3.526  0.00  0.00     0.056 C 
BRANCH   7   8
ATOM      8  C   UNL d   1      26.226 -15.717  -2.349  0.00  0.00    -0.048 A 
ATOM      9  C   UNL d   1      25.599 -16.609  -1.586  0.00  0.00    -0.004 A 
ATOM     10  C   UNL d   1      24.279 -17.126  -1.654  0.00  0.00     0.037 C 
ATOM     11  C   UNL d   1      26.530 -16.944  -0.506  0.00  0.00     0.038 A 
ATOM     12  C   UNL d   1      23.829 -17.824  -0.607  0.00  0.00     0.035 C 
ATOM     13 CL   UNL d   1      22.155 -18.200  -0.504  0.00  0.00    -0.084 Cl
ATOM     14  C   UNL d   1      24.721 -18.205   0.482  0.00  0.00     0.026 C 
ATOM     15  C   UNL d   1      26.016 -17.825   0.562  0.00  0.00     0.031 C 
ATOM     16  N   UNL d   1      27.663 -16.372  -0.663  0.00  0.00    -0.385 N 
ATOM     17  C   UNL d   1      27.602 -15.427  -1.816  0.00  0.00     0.155 A 
ATOM     18  H   UNL d   1      28.464 -16.559  -0.060  0.00  0.00     0.160 HD
ENDBRANCH   7   8
ENDBRANCH   6   7
ENDBRANCH   4   6
ENDBRANCH   1   2
BRANCH   1  19
ATOM     19  C   UNL d   1      26.991  -9.765  -5.260  0.00  0.00     0.041 C 
BRANCH  19  20
ATOM     20  C   UNL d   1      25.983  -9.012  -6.144  0.00  0.00     0.135 C 
ATOM     21  N   UNL d   1      24.598  -9.200  -5.674  0.00  0.00    -0.245 NA
ATOM     22  N   UNL d   1      24.193  -8.088  -4.780  0.00  0.00    -0.237 NA
ATOM     23  H   UNL d   1      24.481 -10.116  -5.237  0.00  0.00     0.142 HD
ATOM     24  C   UNL d   1      25.273  -7.085  -4.630  0.00  0.00     0.226 C 
ATOM     25  H   UNL d   1      23.839  -8.401  -3.878  0.00  0.00     0.142 HD
ATOM     26  S   UNL d   1      26.275  -7.234  -6.129  0.00  0.00    -0.117 SA
BRANCH  24  27
ATOM     27  C   UNL d   1      26.131  -7.365  -3.364  0.00  0.00     0.251 C 
ATOM     28  O   UNL d   1      27.289  -6.958  -3.253  0.00  0.00    -0.270 OA
ATOM     29  N   UNL d   1      25.530  -8.132  -2.370  0.00  0.00    -0.325 N 
ATOM     30  H   UNL d   1      24.618  -8.545  -2.518  0.00  0.00     0.169 HD
BRANCH  29  31
ATOM     31  C   UNL d   1      26.211  -8.450  -1.169  0.00  0.00     0.034 A 
ATOM     32  C   UNL d   1      27.261  -9.368  -1.185  0.00  0.00     0.029 A 
ATOM     33  C   UNL d   1      27.909  -9.707   0.009  0.00  0.00     0.002 A 
ATOM     34  C   UNL d   1      27.534  -9.109   1.214  0.00  0.00     0.000 A 
ATOM     35  C   UNL d   1      26.489  -8.193   1.233  0.00  0.00     0.002 A 
ATOM     36  C   UNL d   1      25.833  -7.871   0.050  0.00  0.00     0.029 A 
ENDBRANCH  29  31
ENDBRANCH  24  27
ENDBRANCH  19  20
ENDBRANCH   1  19
TORSDOF 8
ENDMDL
MODEL 5
REMARK VINA RESULT:    -7.650      5.759      8.297
REMARK INTER + INTRA:         -13.820
REMARK INTER:                 -10.036
REMARK INTRA:                  -3.783
REMARK CONF_INDEPENDENT:        2.386
REMARK UNBOUND:                -3.783
REMARK  8 active torsions:
REMARK  status: ('A' for Active; 'I' for Inactive)
REMARK    1  A    between atoms: C_2  and  C_3 
REMARK       I    between atoms: C_2  and  N_19 
REMARK    2  A    between atoms: C_3  and  C_4 
REMARK    3  A    between atoms: C_5  and  C_4 
REMARK    4  A    between atoms: C_8  and  C_9 
REMARK       I    between atoms: C_9  and  N_11 
REMARK    5  A    between atoms: N_11  and  C_12 
REMARK    6  A    between atoms: N_19  and  C_20 
REMARK    7  A    between atoms: C_20  and  C_21 
REMARK    8  A    between atoms: C_21  and  C_22 
ROOT
ATOM      1  C   UNL d   1      26.112 -15.213  -3.990  0.00  0.00     0.105 C 
ENDROOT
BRANCH   1   2
ATOM      2  C   UNL d   1      25.185 -14.109  -3.522  0.00  0.00     0.217 C 
ATOM      3  O   UNL d   1      24.420 -14.191  -2.560  0.00  0.00    -0.274 OA
ATOM      4  N   UNL d   1      25.229 -12.946  -4.229  0.00  0.00    -0.361 N 
ATOM      5  H   UNL d   1      24.583 -12.240  -3.883  0.00  0.00     0.162 HD
BRANCH   4   6
ATOM      6  C   UNL d   1      26.080 -12.714  -5.364  0.00  0.00     0.127 C 
BRANCH   6   7
ATOM      7  C   UNL d   1      27.534 -12.781  -4.981  0.00  0.00     0.056 C 
BRANCH   7   8
ATOM      8  C   UNL d   1      28.460 -13.196  -6.073  0.00  0.00    -0.048 A 
ATOM      9  C   UNL d   1      29.091 -14.367  -6.013  0.00  0.00    -0.004 A 
ATOM     10  C   UNL d   1      29.083 -15.376  -5.016  0.00  0.00     0.037 C 
ATOM     11  C   UNL d   1      29.949 -14.425  -7.198  0.00  0.00     0.038 A 
ATOM     12  C   UNL d   1      30.008 -16.338  -5.096  0.00  0.00     0.035 C 
ATOM     13 CL   UNL d   1      30.240 -17.395  -3.761  0.00  0.00    -0.084 Cl
ATOM     14  C   UNL d   1      30.870 -16.456  -6.266  0.00  0.00     0.026 C 
ATOM     15  C   UNL d   1      30.864 -15.580  -7.297  0.00  0.00     0.031 C 
ATOM     16  N   UNL d   1      29.774 -13.413  -7.960  0.00  0.00    -0.385 N 
ATOM     17  C   UNL d   1      28.863 -12.431  -7.303  0.00  0.00     0.155 A 
ATOM     18  H   UNL d   1      30.218 -13.327  -8.875  0.00  0.00     0.160 HD
ENDBRANCH   7   8
ENDBRANCH   6   7
ENDBRANCH   4   6
ENDBRANCH   1   2
BRANCH   1  19
ATOM     19  C   UNL d   1      26.763 -15.908  -2.814  0.00  0.00     0.041 C 
BRANCH  19  20
ATOM     20  C   UNL d   1      27.845 -15.047  -2.138  0.00  0.00     0.135 C 
ATOM     21  N   UNL d   1      27.257 -13.926  -1.384  0.00  0.00    -0.245 NA
ATOM     22  N   UNL d   1      27.078 -14.290   0.042  0.00  0.00    -0.237 NA
ATOM     23  H   UNL d   1      26.390 -13.606  -1.819  0.00  0.00     0.142 HD
ATOM     24  C   UNL d   1      27.563 -15.662   0.322  0.00  0.00     0.226 C 
ATOM     25  H   UNL d   1      26.129 -14.148   0.381  0.00  0.00     0.142 HD
ATOM     26  S   UNL d   1      28.808 -15.997  -0.947  0.00  0.00    -0.117 SA
BRANCH  24  27
ATOM     27  C   UNL d   1      26.405 -16.697   0.243  0.00  0.00     0.251 C 
ATOM     28  O   UNL d   1      26.496 -17.822   0.737  0.00  0.00    -0.270 OA
ATOM     29  N   UNL d   1      25.266 -16.294  -0.448  0.00  0.00    -0.325 N 
ATOM     30  H   UNL d   1      25.244 -15.408  -0.935  0.00  0.00     0.169 HD
BRANCH  29  31
ATOM     31  C   UNL d   1      24.144 -17.149  -0.583  0.00  0.00     0.034 A 
ATOM     32  C   UNL d   1      22.876 -16.606  -0.794  0.00  0.00     0.029 A 
ATOM     33  C   UNL d   1      21.763 -17.451  -0.892  0.00  0.00     0.002 A 
ATOM     34  C   UNL d   1      21.917 -18.836  -0.813  0.00  0.00     0.000 A 
ATOM     35  C   UNL d   1      23.178 -19.380  -0.604  0.00  0.00     0.002 A 
ATOM     36  C   UNL d   1      24.280 -18.540  -0.487  0.00  0.00     0.029 A 
ENDBRANCH  29  31
ENDBRANCH  24  27
ENDBRANCH  19  20
ENDBRANCH   1  19
TORSDOF 8
ENDMDL
MODEL 6
REMARK VINA RESULT:    -7.544      4.419      8.270
REMARK INTER + INTRA:         -13.730
REMARK INTER:                  -9.930
REMARK INTRA:                  -3.800
REMARK CONF_INDEPENDENT:        2.386
REMARK UNBOUND:                -3.800
REMARK  8 active torsions:
REMARK  status: ('A' for Active; 'I' for Inactive)
REMARK    1  A    between atoms: C_2  and  C_3 
REMARK       I    between atoms: C_2  and  N_19 
REMARK    2  A    between atoms: C_3  and  C_4 
REMARK    3  A    between atoms: C_5  and  C_4 
REMARK    4  A    between atoms: C_8  and  C_9 
REMARK       I    between atoms: C_9  and  N_11 
REMARK    5  A    between atoms: N_11  and  C_12 
REMARK    6  A    between atoms: N_19  and  C_20 
REMARK    7  A    between atoms: C_20  and  C_21 
REMARK    8  A    between atoms: C_21  and  C_22 
ROOT
ATOM      1  C   UNL d   1      27.204 -12.538  -0.530  0.00  0.00     0.105 C 
ENDROOT
BRANCH   1   2
ATOM      2  C   UNL d   1      27.715 -13.879  -0.045  0.00  0.00     0.217 C 
ATOM      3  O   UNL d   1      28.321 -14.696  -0.740  0.00  0.00    -0.274 OA
ATOM      4  N   UNL d   1      27.485 -14.174   1.265  0.00  0.00    -0.361 N 
ATOM      5  H   UNL d   1      27.838 -15.088   1.540  0.00  0.00     0.162 HD
BRANCH   4   6
ATOM      6  C   UNL d   1      26.800 -13.309   2.187  0.00  0.00     0.127 C 
BRANCH   6   7
ATOM      7  C   UNL d   1      27.755 -12.697   3.175  0.00  0.00     0.056 C 
BRANCH   7   8
ATOM      8  C   UNL d   1      28.049 -13.530   4.376  0.00  0.00    -0.048 A 
ATOM      9  C   UNL d   1      28.297 -12.955   5.550  0.00  0.00    -0.004 A 
ATOM     10  C   UNL d   1      28.376 -11.587   5.917  0.00  0.00     0.037 C 
ATOM     11  C   UNL d   1      28.596 -14.046   6.480  0.00  0.00     0.038 A 
ATOM     12  C   UNL d   1      28.891 -11.291   7.115  0.00  0.00     0.035 C 
ATOM     13 CL   UNL d   1      29.295  -9.661   7.478  0.00  0.00    -0.084 Cl
ATOM     14  C   UNL d   1      29.182 -12.339   8.086  0.00  0.00     0.026 C 
ATOM     15  C   UNL d   1      29.040 -13.660   7.834  0.00  0.00     0.031 C 
ATOM     16  N   UNL d   1      28.444 -15.192   5.931  0.00  0.00    -0.385 N 
ATOM     17  C   UNL d   1      28.163 -15.026   4.475  0.00  0.00     0.155 A 
ATOM     18  H   UNL d   1      28.519 -16.067   6.449  0.00  0.00     0.160 HD
ENDBRANCH   7   8
ENDBRANCH   6   7
ENDBRANCH   4   6
ENDBRANCH   1   2
BRANCH   1  19
ATOM     19  C   UNL d   1      26.603 -12.655  -1.913  0.00  0.00     0.041 C 
BRANCH  19  20
ATOM     20  C   UNL d   1      27.619 -12.365  -3.031  0.00  0.00     0.135 C 
ATOM     21  N   UNL d   1      28.803 -13.238  -2.931  0.00  0.00    -0.245 NA
ATOM     22  N   UNL d   1      28.646 -14.434  -3.793  0.00  0.00    -0.237 NA
ATOM     23  H   UNL d   1      29.000 -13.479  -1.959  0.00  0.00     0.142 HD
ATOM     24  C   UNL d   1      27.363 -14.410  -4.535  0.00  0.00     0.226 C 
ATOM     25  H   UNL d   1      28.778 -15.313  -3.296  0.00  0.00     0.142 HD
ATOM     26  S   UNL d   1      26.920 -12.660  -4.665  0.00  0.00    -0.117 SA
BRANCH  24  27
ATOM     27  C   UNL d   1      26.259 -15.202  -3.781  0.00  0.00     0.251 C 
ATOM     28  O   UNL d   1      25.161 -15.440  -4.286  0.00  0.00    -0.270 OA
ATOM     29  N   UNL d   1      26.567 -15.604  -2.484  0.00  0.00    -0.325 N 
ATOM     30  H   UNL d   1      27.432 -15.314  -2.046  0.00  0.00     0.169 HD
BRANCH  29  31
ATOM     31  C   UNL d   1      25.643 -16.337  -1.698  0.00  0.00     0.034 A 
ATOM     32  C   UNL d   1      24.299 -15.962  -1.674  0.00  0.00     0.029 A 
ATOM     33  C   UNL d   1      23.394 -16.665  -0.868  0.00  0.00     0.002 A 
ATOM     34  C   UNL d   1      23.820 -17.760  -0.113  0.00  0.00     0.000 A 
ATOM     35  C   UNL d   1      25.157 -18.136  -0.136  0.00  0.00     0.002 A 
ATOM     36  C   UNL d   1      26.060 -17.425  -0.921  0.00  0.00     0.029 A 
ENDBRANCH  29  31
ENDBRANCH  24  27
ENDBRANCH  19  20
ENDBRANCH   1  19
TORSDOF 8
ENDMDL
MODEL 7
REMARK VINA RESULT:    -7.131      5.527      8.284
REMARK INTER + INTRA:         -13.874
REMARK INTER:                  -9.517
REMARK INTRA:                  -4.356
REMARK CONF_INDEPENDENT:        2.386
REMARK UNBOUND:                -4.356
REMARK  8 active torsions:
REMARK  status: ('A' for Active; 'I' for Inactive)
REMARK    1  A    between atoms: C_2  and  C_3 
REMARK       I    between atoms: C_2  and  N_19 
REMARK    2  A    between atoms: C_3  and  C_4 
REMARK    3  A    between atoms: C_5  and  C_4 
REMARK    4  A    between atoms: C_8  and  C_9 
REMARK       I    between atoms: C_9  and  N_11 
REMARK    5  A    between atoms: N_11  and  C_12 
REMARK    6  A    between atoms: N_19  and  C_20 
REMARK    7  A    between atoms: C_20  and  C_21 
REMARK    8  A    between atoms: C_21  and  C_22 
ROOT
ATOM      1  C   UNL d   1      27.972 -14.838  -2.599  0.00  0.00     0.105 C 
ENDROOT
BRANCH   1   2
ATOM      2  C   UNL d   1      26.587 -14.362  -2.989  0.00  0.00     0.217 C 
ATOM      3  O   UNL d   1      25.948 -14.772  -3.959  0.00  0.00    -0.274 OA
ATOM      4  N   UNL d   1      26.026 -13.418  -2.184  0.00  0.00    -0.361 N 
ATOM      5  H   UNL d   1      25.101 -13.124  -2.492  0.00  0.00     0.162 HD
BRANCH   4   6
ATOM      6  C   UNL d   1      26.656 -12.861  -1.018  0.00  0.00     0.127 C 
BRANCH   6   7
ATOM      7  C   UNL d   1      26.308 -13.644   0.219  0.00  0.00     0.056 C 
BRANCH   7   8
ATOM      8  C   UNL d   1      26.874 -15.021   0.279  0.00  0.00    -0.048 A 
ATOM      9  C   UNL d   1      26.116 -16.074  -0.021  0.00  0.00    -0.004 A 
ATOM     10  C   UNL d   1      24.749 -16.160  -0.390  0.00  0.00     0.037 C 
ATOM     11  C   UNL d   1      26.957 -17.253   0.195  0.00  0.00     0.038 A 
ATOM     12  C   UNL d   1      24.178 -17.369  -0.389  0.00  0.00     0.035 C 
ATOM     13 CL   UNL d   1      22.469 -17.492  -0.521  0.00  0.00    -0.084 Cl
ATOM     14  C   UNL d   1      24.974 -18.576  -0.205  0.00  0.00     0.026 C 
ATOM     15  C   UNL d   1      26.302 -18.569   0.057  0.00  0.00     0.031 C 
ATOM     16  N   UNL d   1      28.155 -16.930   0.506  0.00  0.00    -0.385 N 
ATOM     17  C   UNL d   1      28.252 -15.453   0.698  0.00  0.00     0.155 A 
ATOM     18  H   UNL d   1      28.904 -17.616   0.605  0.00  0.00     0.160 HD
ENDBRANCH   7   8
ENDBRANCH   6   7
ENDBRANCH   4   6
ENDBRANCH   1   2
BRANCH   1  19
ATOM     19  C   UNL d   1      29.008 -14.364  -3.594  0.00  0.00     0.041 C 
BRANCH  19  20
ATOM     20  C   UNL d   1      29.314 -15.410  -4.679  0.00  0.00     0.135 C 
ATOM     21  N   UNL d   1      28.081 -15.945  -5.284  0.00  0.00    -0.245 NA
ATOM     22  N   UNL d   1      27.738 -15.200  -6.520  0.00  0.00    -0.237 NA
ATOM     23  H   UNL d   1      27.315 -15.955  -4.608  0.00  0.00     0.142 HD
ATOM     24  C   UNL d   1      28.738 -14.149  -6.821  0.00  0.00     0.226 C 
ATOM     25  H   UNL d   1      26.789 -14.831  -6.521  0.00  0.00     0.142 HD
ATOM     26  S   UNL d   1      30.269 -14.708  -6.037  0.00  0.00    -0.117 SA
BRANCH  24  27
ATOM     27  C   UNL d   1      28.299 -12.771  -6.250  0.00  0.00     0.251 C 
ATOM     28  O   UNL d   1      29.055 -11.799  -6.230  0.00  0.00    -0.270 OA
ATOM     29  N   UNL d   1      27.010 -12.703  -5.731  0.00  0.00    -0.325 N 
ATOM     30  H   UNL d   1      26.437 -13.534  -5.661  0.00  0.00     0.169 HD
BRANCH  29  31
ATOM     31  C   UNL d   1      26.495 -11.500  -5.187  0.00  0.00     0.034 A 
ATOM     32  C   UNL d   1      26.785 -11.153  -3.867  0.00  0.00     0.029 A 
ATOM     33  C   UNL d   1      26.246  -9.981  -3.320  0.00  0.00     0.002 A 
ATOM     34  C   UNL d   1      25.445  -9.140  -4.096  0.00  0.00     0.000 A 
ATOM     35  C   UNL d   1      25.156  -9.483  -5.411  0.00  0.00     0.002 A 
ATOM     36  C   UNL d   1      25.675 -10.656  -5.948  0.00  0.00     0.029 A 
ENDBRANCH  29  31
ENDBRANCH  24  27
ENDBRANCH  19  20
ENDBRANCH   1  19
TORSDOF 8
ENDMDL
MODEL 8
REMARK VINA RESULT:    -7.058      4.348      8.138
REMARK INTER + INTRA:         -13.701
REMARK INTER:                  -9.444
REMARK INTRA:                  -4.257
REMARK CONF_INDEPENDENT:        2.386
REMARK UNBOUND:                -4.257
REMARK  8 active torsions:
REMARK  status: ('A' for Active; 'I' for Inactive)
REMARK    1  A    between atoms: C_2  and  C_3 
REMARK       I    between atoms: C_2  and  N_19 
REMARK    2  A    between atoms: C_3  and  C_4 
REMARK    3  A    between atoms: C_5  and  C_4 
REMARK    4  A    between atoms: C_8  and  C_9 
REMARK       I    between atoms: C_9  and  N_11 
REMARK    5  A    between atoms: N_11  and  C_12 
REMARK    6  A    between atoms: N_19  and  C_20 
REMARK    7  A    between atoms: C_20  and  C_21 
REMARK    8  A    between atoms: C_21  and  C_22 
ROOT
ATOM      1  C   UNL d   1      29.351 -14.291  -2.127  0.00  0.00     0.105 C 
ENDROOT
BRANCH   1   2
ATOM      2  C   UNL d   1      29.200 -15.798  -2.195  0.00  0.00     0.217 C 
ATOM      3  O   UNL d   1      29.071 -16.447  -3.234  0.00  0.00    -0.274 OA
ATOM      4  N   UNL d   1      29.224 -16.460  -1.006  0.00  0.00    -0.361 N 
ATOM      5  H   UNL d   1      29.110 -17.466  -1.103  0.00  0.00     0.162 HD
BRANCH   4   6
ATOM      6  C   UNL d   1      29.377 -15.827   0.277  0.00  0.00     0.127 C 
BRANCH   6   7
ATOM      7  C   UNL d   1      28.055 -15.692   0.981  0.00  0.00     0.056 C 
BRANCH   7   8
ATOM      8  C   UNL d   1      27.648 -14.296   1.308  0.00  0.00    -0.048 A 
ATOM      9  C   UNL d   1      27.927 -13.775   2.500  0.00  0.00    -0.004 A 
ATOM     10  C   UNL d   1      28.562 -14.340   3.636  0.00  0.00     0.037 C 
ATOM     11  C   UNL d   1      27.343 -12.432   2.502  0.00  0.00     0.038 A 
ATOM     12  C   UNL d   1      28.485 -13.671   4.791  0.00  0.00     0.035 C 
ATOM     13 CL   UNL d   1      28.959 -14.449   6.248  0.00  0.00    -0.084 Cl
ATOM     14  C   UNL d   1      27.936 -12.321   4.841  0.00  0.00     0.026 C 
ATOM     15  C   UNL d   1      27.400 -11.686   3.774  0.00  0.00     0.031 C 
ATOM     16  N   UNL d   1      26.839 -12.133   1.365  0.00  0.00    -0.385 N 
ATOM     17  C   UNL d   1      26.877 -13.321   0.462  0.00  0.00     0.155 A 
ATOM     18  H   UNL d   1      26.469 -11.207   1.150  0.00  0.00     0.160 HD
ENDBRANCH   7   8
ENDBRANCH   6   7
ENDBRANCH   4   6
ENDBRANCH   1   2
BRANCH   1  19
ATOM     19  C   UNL d   1      28.165 -13.599  -2.763  0.00  0.00     0.041 C 
BRANCH  19  20
ATOM     20  C   UNL d   1      28.360 -13.344  -4.267  0.00  0.00     0.135 C 
ATOM     21  N   UNL d   1      28.686 -14.585  -4.993  0.00  0.00    -0.245 NA
ATOM     22  N   UNL d   1      27.460 -15.198  -5.559  0.00  0.00    -0.237 NA
ATOM     23  H   UNL d   1      29.208 -15.231  -4.398  0.00  0.00     0.142 HD
ATOM     24  C   UNL d   1      26.256 -14.385  -5.267  0.00  0.00     0.226 C 
ATOM     25  H   UNL d   1      27.333 -16.172  -5.291  0.00  0.00     0.142 HD
ATOM     26  S   UNL d   1      26.865 -12.696  -5.036  0.00  0.00    -0.117 SA
BRANCH  24  27
ATOM     27  C   UNL d   1      25.532 -14.888  -3.986  0.00  0.00     0.251 C 
ATOM     28  O   UNL d   1      24.460 -14.412  -3.609  0.00  0.00    -0.270 OA
ATOM     29  N   UNL d   1      26.178 -15.890  -3.267  0.00  0.00    -0.325 N 
ATOM     30  H   UNL d   1      27.104 -16.199  -3.532  0.00  0.00     0.169 HD
BRANCH  29  31
ATOM     31  C   UNL d   1      25.614 -16.432  -2.086  0.00  0.00     0.034 A 
ATOM     32  C   UNL d   1      26.372 -17.280  -1.278  0.00  0.00     0.029 A 
ATOM     33  C   UNL d   1      25.800 -17.843  -0.130  0.00  0.00     0.002 A 
ATOM     34  C   UNL d   1      24.487 -17.537   0.231  0.00  0.00     0.000 A 
ATOM     35  C   UNL d   1      23.730 -16.691  -0.570  0.00  0.00     0.002 A 
ATOM     36  C   UNL d   1      24.291 -16.147  -1.721  0.00  0.00     0.029 A 
ENDBRANCH  29  31
ENDBRANCH  24  27
ENDBRANCH  19  20
ENDBRANCH   1  19
TORSDOF 8
ENDMDL
MODEL 9
REMARK VINA RESULT:    -6.016      5.278      7.522
REMARK INTER + INTRA:         -13.629
REMARK INTER:                  -8.403
REMARK INTRA:                  -5.226
REMARK CONF_INDEPENDENT:        2.386
REMARK UNBOUND:                -5.226
REMARK  8 active torsions:
REMARK  status: ('A' for Active; 'I' for Inactive)
REMARK    1  A    between atoms: C_2  and  C_3 
REMARK       I    between atoms: C_2  and  N_19 
REMARK    2  A    between atoms: C_3  and  C_4 
REMARK    3  A    between atoms: C_5  and  C_4 
REMARK    4  A    between atoms: C_8  and  C_9 
REMARK       I    between atoms: C_9  and  N_11 
REMARK    5  A    between atoms: N_11  and  C_12 
REMARK    6  A    between atoms: N_19  and  C_20 
REMARK    7  A    between atoms: C_20  and  C_21 
REMARK    8  A    between atoms: C_21  and  C_22 
ROOT
ATOM      1  C   UNL d   1      29.066 -13.218  -1.092  0.00  0.00     0.105 C 
ENDROOT
BRANCH   1   2
ATOM      2  C   UNL d   1      28.063 -13.915  -0.194  0.00  0.00     0.217 C 
ATOM      3  O   UNL d   1      28.350 -14.569   0.809  0.00  0.00    -0.274 OA
ATOM      4  N   UNL d   1      26.752 -13.781  -0.539  0.00  0.00    -0.361 N 
ATOM      5  H   UNL d   1      26.120 -14.273   0.088  0.00  0.00     0.162 HD
BRANCH   4   6
ATOM      6  C   UNL d   1      26.280 -13.040  -1.676  0.00  0.00     0.127 C 
BRANCH   6   7
ATOM      7  C   UNL d   1      26.003 -13.948  -2.844  0.00  0.00     0.056 C 
BRANCH   7   8
ATOM      8  C   UNL d   1      26.521 -13.470  -4.157  0.00  0.00    -0.048 A 
ATOM      9  C   UNL d   1      27.405 -14.196  -4.838  0.00  0.00    -0.004 A 
ATOM     10  C   UNL d   1      28.032 -15.430  -4.524  0.00  0.00     0.037 C 
ATOM     11  C   UNL d   1      27.737 -13.417  -6.032  0.00  0.00     0.038 A 
ATOM     12  C   UNL d   1      29.072 -15.809  -5.275  0.00  0.00     0.035 C 
ATOM     13 CL   UNL d   1      30.053 -17.120  -4.752  0.00  0.00    -0.084 Cl
ATOM     14  C   UNL d   1      29.427 -15.082  -6.487  0.00  0.00     0.026 C 
ATOM     15  C   UNL d   1      28.808 -13.951  -6.896  0.00  0.00     0.031 C 
ATOM     16  N   UNL d   1      27.034 -12.350  -6.112  0.00  0.00    -0.385 N 
ATOM     17  C   UNL d   1      26.221 -12.182  -4.873  0.00  0.00     0.155 A 
ATOM     18  H   UNL d   1      27.062 -11.730  -6.921  0.00  0.00     0.160 HD
ENDBRANCH   7   8
ENDBRANCH   6   7
ENDBRANCH   4   6
ENDBRANCH   1   2
BRANCH   1  19
ATOM     19  C   UNL d   1      29.911 -14.224  -1.842  0.00  0.00     0.041 C 
BRANCH  19  20
ATOM     20  C   UNL d   1      31.231 -14.548  -1.123  0.00  0.00     0.135 C 
ATOM     21  N   UNL d   1      31.069 -14.546   0.342  0.00  0.00    -0.245 NA
ATOM     22  N   UNL d   1      30.806 -15.917   0.842  0.00  0.00    -0.237 NA
ATOM     23  H   UNL d   1      30.351 -13.879   0.630  0.00  0.00     0.142 HD
ATOM     24  C   UNL d   1      30.808 -16.910  -0.257  0.00  0.00     0.226 C 
ATOM     25  H   UNL d   1      29.966 -15.986   1.414  0.00  0.00     0.142 HD
ATOM     26  S   UNL d   1      31.843 -16.188  -1.553  0.00  0.00    -0.117 SA
BRANCH  24  27
ATOM     27  C   UNL d   1      29.368 -17.171  -0.785  0.00  0.00     0.251 C 
ATOM     28  O   UNL d   1      29.143 -17.450  -1.963  0.00  0.00    -0.270 OA
ATOM     29  N   UNL d   1      28.340 -17.040   0.144  0.00  0.00    -0.325 N 
ATOM     30  H   UNL d   1      28.529 -16.711   1.082  0.00  0.00     0.169 HD
BRANCH  29  31
ATOM     31  C   UNL d   1      26.987 -17.256  -0.218  0.00  0.00     0.034 A 
ATOM     32  C   UNL d   1      26.484 -16.707  -1.397  0.00  0.00     0.029 A 
ATOM     33  C   UNL d   1      25.137 -16.892  -1.734  0.00  0.00     0.002 A 
ATOM     34  C   UNL d   1      24.299 -17.651  -0.914  0.00  0.00     0.000 A 
ATOM     35  C   UNL d   1      24.797 -18.201   0.261  0.00  0.00     0.002 A 
ATOM     36  C   UNL d   1      26.130 -18.000   0.605  0.00  0.00     0.029 A 
ENDBRANCH  29  31
ENDBRANCH  24  27
ENDBRANCH  19  20
ENDBRANCH   1  19
TORSDOF 8
ENDMDL
