MODEL 1
REMARK VINA RESULT:    -8.011      0.000      0.000
REMARK INTER + INTRA:         -11.799
REMARK INTER:                  -9.502
REMARK INTRA:                  -2.297
REMARK CONF_INDEPENDENT:        1.492
REMARK UNBOUND:                -2.297
REMARK  5 active torsions:
REMARK  status: ('A' for Active; 'I' for Inactive)
REMARK    1  A    between atoms: C_5  and  O_6 
REMARK    2  A    between atoms: C_7  and  C_8 
REMARK       I    between atoms: C_8  and  N_10 
REMARK    3  A    between atoms: N_10  and  N_11 
REMARK       I    between atoms: N_11  and  C_12 
REMARK    4  A    between atoms: C_12  and  C_14 
REMARK    5  A    between atoms: C_14  and  C_15 
ROOT
ATOM      1  C   UNL d   1      21.807 -18.212  -0.413  0.00  0.00     0.272 C 
ATOM      2  O   UNL d   1      21.552 -17.354  -1.261  0.00  0.00    -0.266 OA
ATOM      3  N   UNL d   1      23.105 -18.340   0.042  0.00  0.00    -0.263 N 
ATOM      4  H   UNL d   1      23.431 -19.005   0.740  0.00  0.00     0.190 HD
ENDROOT
BRANCH   3   5
ATOM      5  N   UNL d   1      24.124 -17.483  -0.460  0.00  0.00    -0.267 N 
ATOM      6  C   UNL d   1      25.364 -17.664   0.109  0.00  0.00     0.240 C 
ATOM      7  O   UNL d   1      25.443 -18.542   0.975  0.00  0.00    -0.272 OA
ATOM      8  H   UNL d   1      23.872 -16.849  -1.214  0.00  0.00     0.190 HD
BRANCH   6   9
ATOM      9  C   UNL d   1      26.527 -16.772  -0.374  0.00  0.00     0.146 C 
BRANCH   9  10
ATOM     10  C   UNL d   1      26.208 -15.763  -1.481  0.00  0.00    -0.011 A 
ATOM     11  C   UNL d   1      25.853 -16.142  -2.784  0.00  0.00     0.011 A 
ATOM     12  C   UNL d   1      25.530 -15.223  -3.779  0.00  0.00     0.001 A 
ATOM     13  C   UNL d   1      25.584 -13.869  -3.508  0.00  0.00     0.003 A 
ATOM     14  C   UNL d   1      25.962 -13.445  -2.235  0.00  0.00     0.043 A 
ATOM     15  C   UNL d   1      26.265 -14.383  -1.236  0.00  0.00     0.123 A 
ATOM     16  F   UNL d   1      26.619 -13.927  -0.026  0.00  0.00    -0.206 F 
ENDBRANCH   9  10
ENDBRANCH   6   9
ENDBRANCH   3   5
BRANCH   1  17
ATOM     17  C   UNL d   1      20.756 -19.136   0.177  0.00  0.00     0.067 A 
ATOM     18  C   UNL d   1      19.845 -19.810  -0.658  0.00  0.00     0.081 A 
ATOM     19  C   UNL d   1      18.833 -20.622  -0.128  0.00  0.00     0.038 A 
ATOM     20  C   UNL d   1      18.733 -20.812   1.249  0.00  0.00     0.009 A 
ATOM     21  C   UNL d   1      19.649 -20.199   2.105  0.00  0.00    -0.061 A 
ATOM     22  C   UNL d   1      19.591 -20.451   3.586  0.00  0.00     0.048 C 
ATOM     23  C   UNL d   1      20.642 -19.354   1.566  0.00  0.00     0.026 A 
BRANCH  18  24
ATOM     24  O   UNL d   1      19.924 -19.700  -2.018  0.00  0.00    -0.360 OA
ATOM     25  H   UNL d   1      20.290 -18.837  -2.269  0.00  0.00     0.217 HD
ENDBRANCH  18  24
ENDBRANCH   1  17
TORSDOF 5
ENDMDL
MODEL 2
REMARK VINA RESULT:    -7.533      1.691      2.360
REMARK INTER + INTRA:         -11.182
REMARK INTER:                  -9.025
REMARK INTRA:                  -2.157
REMARK CONF_INDEPENDENT:        1.492
REMARK UNBOUND:                -2.157
REMARK  5 active torsions:
REMARK  status: ('A' for Active; 'I' for Inactive)
REMARK    1  A    between atoms: C_5  and  O_6 
REMARK    2  A    between atoms: C_7  and  C_8 
REMARK       I    between atoms: C_8  and  N_10 
REMARK    3  A    between atoms: N_10  and  N_11 
REMARK       I    between atoms: N_11  and  C_12 
REMARK    4  A    between atoms: C_12  and  C_14 
REMARK    5  A    between atoms: C_14  and  C_15 
ROOT
ATOM      1  C   UNL d   1      21.405 -18.398  -0.487  0.00  0.00     0.272 C 
ATOM      2  O   UNL d   1      21.037 -17.520  -1.270  0.00  0.00    -0.266 OA
ATOM      3  N   UNL d   1      22.757 -18.611  -0.307  0.00  0.00    -0.263 N 
ATOM      4  H   UNL d   1      23.176 -19.301   0.313  0.00  0.00     0.190 HD
ENDROOT
BRANCH   3   5
ATOM      5  N   UNL d   1      23.705 -17.817  -1.013  0.00  0.00    -0.267 N 
ATOM      6  C   UNL d   1      24.985 -17.858  -0.508  0.00  0.00     0.240 C 
ATOM      7  O   UNL d   1      25.156 -18.575   0.483  0.00  0.00    -0.272 OA
ATOM      8  H   UNL d   1      23.378 -17.327  -1.842  0.00  0.00     0.190 HD
BRANCH   6   9
ATOM      9  C   UNL d   1      26.075 -17.022  -1.211  0.00  0.00     0.146 C 
BRANCH   9  10
ATOM     10  C   UNL d   1      26.854 -16.034  -0.339  0.00  0.00    -0.011 A 
ATOM     11  C   UNL d   1      26.280 -14.879   0.212  0.00  0.00     0.011 A 
ATOM     12  C   UNL d   1      26.982 -14.001   1.032  0.00  0.00     0.001 A 
ATOM     13  C   UNL d   1      28.317 -14.235   1.308  0.00  0.00     0.003 A 
ATOM     14  C   UNL d   1      28.938 -15.355   0.757  0.00  0.00     0.043 A 
ATOM     15  C   UNL d   1      28.212 -16.242  -0.052  0.00  0.00     0.123 A 
ATOM     16  F   UNL d   1      28.852 -17.308  -0.555  0.00  0.00    -0.206 F 
ENDBRANCH   9  10
ENDBRANCH   6   9
ENDBRANCH   3   5
BRANCH   1  17
ATOM     17  C   UNL d   1      20.441 -19.257   0.311  0.00  0.00     0.067 A 
ATOM     18  C   UNL d   1      19.343 -19.876  -0.318  0.00  0.00     0.081 A 
ATOM     19  C   UNL d   1      18.412 -20.626   0.413  0.00  0.00     0.038 A 
ATOM     20  C   UNL d   1      18.578 -20.810   1.784  0.00  0.00     0.009 A 
ATOM     21  C   UNL d   1      19.680 -20.253   2.433  0.00  0.00    -0.061 A 
ATOM     22  C   UNL d   1      19.905 -20.501   3.899  0.00  0.00     0.048 C 
ATOM     23  C   UNL d   1      20.594 -19.469   1.698  0.00  0.00     0.026 A 
BRANCH  18  24
ATOM     24  O   UNL d   1      19.156 -19.770  -1.668  0.00  0.00    -0.360 OA
ATOM     25  H   UNL d   1      19.550 -18.950  -2.003  0.00  0.00     0.217 HD
ENDBRANCH  18  24
ENDBRANCH   1  17
TORSDOF 5
ENDMDL
MODEL 3
REMARK VINA RESULT:    -6.695      2.256      8.036
REMARK INTER + INTRA:         -10.241
REMARK INTER:                  -8.187
REMARK INTRA:                  -2.054
REMARK CONF_INDEPENDENT:        1.492
REMARK UNBOUND:                -2.054
REMARK  5 active torsions:
REMARK  status: ('A' for Active; 'I' for Inactive)
REMARK    1  A    between atoms: C_5  and  O_6 
REMARK    2  A    between atoms: C_7  and  C_8 
REMARK       I    between atoms: C_8  and  N_10 
REMARK    3  A    between atoms: N_10  and  N_11 
REMARK       I    between atoms: N_11  and  C_12 
REMARK    4  A    between atoms: C_12  and  C_14 
REMARK    5  A    between atoms: C_14  and  C_15 
ROOT
ATOM      1  C   UNL d   1      24.833 -16.373  -1.288  0.00  0.00     0.272 C 
ATOM      2  O   UNL d   1      24.224 -15.444  -1.823  0.00  0.00    -0.266 OA
ATOM      3  N   UNL d   1      24.120 -17.458  -0.816  0.00  0.00    -0.263 N 
ATOM      4  H   UNL d   1      24.513 -18.280  -0.364  0.00  0.00     0.190 HD
ENDROOT
BRANCH   3   5
ATOM      5  N   UNL d   1      22.704 -17.497  -0.959  0.00  0.00    -0.267 N 
ATOM      6  C   UNL d   1      22.163 -18.762  -1.008  0.00  0.00     0.240 C 
ATOM      7  O   UNL d   1      22.962 -19.700  -0.920  0.00  0.00    -0.272 OA
ATOM      8  H   UNL d   1      22.211 -16.608  -0.969  0.00  0.00     0.190 HD
BRANCH   6   9
ATOM      9  C   UNL d   1      20.634 -18.896  -1.166  0.00  0.00     0.146 C 
BRANCH   9  10
ATOM     10  C   UNL d   1      19.881 -19.589  -0.027  0.00  0.00    -0.011 A 
ATOM     11  C   UNL d   1      18.754 -20.398  -0.233  0.00  0.00     0.011 A 
ATOM     12  C   UNL d   1      18.092 -21.053   0.801  0.00  0.00     0.001 A 
ATOM     13  C   UNL d   1      18.525 -20.895   2.105  0.00  0.00     0.003 A 
ATOM     14  C   UNL d   1      19.623 -20.075   2.361  0.00  0.00     0.043 A 
ATOM     15  C   UNL d   1      20.292 -19.436   1.306  0.00  0.00     0.123 A 
ATOM     16  F   UNL d   1      21.347 -18.662   1.602  0.00  0.00    -0.206 F 
ENDBRANCH   9  10
ENDBRANCH   6   9
ENDBRANCH   3   5
BRANCH   1  17
ATOM     17  C   UNL d   1      26.343 -16.396  -1.132  0.00  0.00     0.067 A 
ATOM     18  C   UNL d   1      26.967 -17.383  -0.346  0.00  0.00     0.081 A 
ATOM     19  C   UNL d   1      28.353 -17.386  -0.144  0.00  0.00     0.038 A 
ATOM     20  C   UNL d   1      29.156 -16.426  -0.757  0.00  0.00     0.009 A 
ATOM     21  C   UNL d   1      28.578 -15.460  -1.582  0.00  0.00    -0.061 A 
ATOM     22  C   UNL d   1      29.440 -14.460  -2.301  0.00  0.00     0.048 C 
ATOM     23  C   UNL d   1      27.177 -15.442  -1.752  0.00  0.00     0.026 A 
BRANCH  18  24
ATOM     24  O   UNL d   1      26.237 -18.380   0.240  0.00  0.00    -0.360 OA
ATOM     25  H   UNL d   1      26.799 -19.148   0.428  0.00  0.00     0.217 HD
ENDBRANCH  18  24
ENDBRANCH   1  17
TORSDOF 5
ENDMDL
MODEL 4
REMARK VINA RESULT:    -6.545      5.274      8.688
REMARK INTER + INTRA:         -10.205
REMARK INTER:                  -8.036
REMARK INTRA:                  -2.169
REMARK CONF_INDEPENDENT:        1.492
REMARK UNBOUND:                -2.169
REMARK  5 active torsions:
REMARK  status: ('A' for Active; 'I' for Inactive)
REMARK    1  A    between atoms: C_5  and  O_6 
REMARK    2  A    between atoms: C_7  and  C_8 
REMARK       I    between atoms: C_8  and  N_10 
REMARK    3  A    between atoms: N_10  and  N_11 
REMARK       I    between atoms: N_11  and  C_12 
REMARK    4  A    between atoms: C_12  and  C_14 
REMARK    5  A    between atoms: C_14  and  C_15 
ROOT
ATOM      1  C   UNL d   1      27.427 -13.308   3.083  0.00  0.00     0.272 C 
ATOM      2  O   UNL d   1      26.649 -12.448   2.666  0.00  0.00    -0.266 OA
ATOM      3  N   UNL d   1      27.641 -14.443   2.326  0.00  0.00    -0.263 N 
ATOM      4  H   UNL d   1      28.261 -15.213   2.566  0.00  0.00     0.190 HD
ENDROOT
BRANCH   3   5
ATOM      5  N   UNL d   1      26.975 -14.603   1.078  0.00  0.00    -0.267 N 
ATOM      6  C   UNL d   1      26.899 -15.901   0.626  0.00  0.00     0.240 C 
ATOM      7  O   UNL d   1      27.408 -16.761   1.351  0.00  0.00    -0.272 OA
ATOM      8  H   UNL d   1      26.579 -13.770   0.650  0.00  0.00     0.190 HD
BRANCH   6   9
ATOM      9  C   UNL d   1      26.196 -16.164  -0.723  0.00  0.00     0.146 C 
BRANCH   9  10
ATOM     10  C   UNL d   1      24.870 -16.929  -0.672  0.00  0.00    -0.011 A 
ATOM     11  C   UNL d   1      23.627 -16.323  -0.907  0.00  0.00     0.011 A 
ATOM     12  C   UNL d   1      22.427 -17.027  -0.894  0.00  0.00     0.001 A 
ATOM     13  C   UNL d   1      22.425 -18.380  -0.609  0.00  0.00     0.003 A 
ATOM     14  C   UNL d   1      23.635 -19.019  -0.339  0.00  0.00     0.043 A 
ATOM     15  C   UNL d   1      24.840 -18.299  -0.376  0.00  0.00     0.123 A 
ATOM     16  F   UNL d   1      25.978 -18.959  -0.114  0.00  0.00    -0.206 F 
ENDBRANCH   9  10
ENDBRANCH   6   9
ENDBRANCH   3   5
BRANCH   1  17
ATOM     17  C   UNL d   1      28.182 -13.179   4.394  0.00  0.00     0.067 A 
ATOM     18  C   UNL d   1      28.494 -14.320   5.157  0.00  0.00     0.081 A 
ATOM     19  C   UNL d   1      29.141 -14.215   6.396  0.00  0.00     0.038 A 
ATOM     20  C   UNL d   1      29.528 -12.969   6.883  0.00  0.00     0.009 A 
ATOM     21  C   UNL d   1      29.279 -11.819   6.132  0.00  0.00    -0.061 A 
ATOM     22  C   UNL d   1      29.753 -10.477   6.617  0.00  0.00     0.048 C 
ATOM     23  C   UNL d   1      28.596 -11.929   4.903  0.00  0.00     0.026 A 
BRANCH  18  24
ATOM     24  O   UNL d   1      28.182 -15.573   4.707  0.00  0.00    -0.360 OA
ATOM     25  H   UNL d   1      28.904 -15.929   4.165  0.00  0.00     0.217 HD
ENDBRANCH  18  24
ENDBRANCH   1  17
TORSDOF 5
ENDMDL
MODEL 5
REMARK VINA RESULT:    -6.434      4.993      9.569
REMARK INTER + INTRA:         -10.040
REMARK INTER:                  -7.925
REMARK INTRA:                  -2.115
REMARK CONF_INDEPENDENT:        1.492
REMARK UNBOUND:                -2.115
REMARK  5 active torsions:
REMARK  status: ('A' for Active; 'I' for Inactive)
REMARK    1  A    between atoms: C_5  and  O_6 
REMARK    2  A    between atoms: C_7  and  C_8 
REMARK       I    between atoms: C_8  and  N_10 
REMARK    3  A    between atoms: N_10  and  N_11 
REMARK       I    between atoms: N_11  and  C_12 
REMARK    4  A    between atoms: C_12  and  C_14 
REMARK    5  A    between atoms: C_14  and  C_15 
ROOT
ATOM      1  C   UNL d   1      26.120 -10.775  -3.333  0.00  0.00     0.272 C 
ATOM      2  O   UNL d   1      27.010 -10.671  -2.488  0.00  0.00    -0.266 OA
ATOM      3  N   UNL d   1      25.589 -12.022  -3.597  0.00  0.00    -0.263 N 
ATOM      4  H   UNL d   1      24.851 -12.228  -4.267  0.00  0.00     0.190 HD
ENDROOT
BRANCH   3   5
ATOM      5  N   UNL d   1      26.062 -13.163  -2.890  0.00  0.00    -0.267 N 
ATOM      6  C   UNL d   1      25.567 -14.367  -3.337  0.00  0.00     0.240 C 
ATOM      7  O   UNL d   1      24.784 -14.314  -4.290  0.00  0.00    -0.272 OA
ATOM      8  H   UNL d   1      26.748 -13.006  -2.155  0.00  0.00     0.190 HD
BRANCH   6   9
ATOM      9  C   UNL d   1      26.026 -15.656  -2.623  0.00  0.00     0.146 C 
BRANCH   9  10
ATOM     10  C   UNL d   1      24.999 -16.347  -1.721  0.00  0.00    -0.011 A 
ATOM     11  C   UNL d   1      23.656 -15.949  -1.644  0.00  0.00     0.011 A 
ATOM     12  C   UNL d   1      22.717 -16.601  -0.849  0.00  0.00     0.001 A 
ATOM     13  C   UNL d   1      23.103 -17.673  -0.066  0.00  0.00     0.003 A 
ATOM     14  C   UNL d   1      24.436 -18.084  -0.087  0.00  0.00     0.043 A 
ATOM     15  C   UNL d   1      25.367 -17.430  -0.909  0.00  0.00     0.123 A 
ATOM     16  F   UNL d   1      26.635 -17.866  -0.898  0.00  0.00    -0.206 F 
ENDBRANCH   9  10
ENDBRANCH   6   9
ENDBRANCH   3   5
BRANCH   1  17
ATOM     17  C   UNL d   1      25.559  -9.590  -4.100  0.00  0.00     0.067 A 
ATOM     18  C   UNL d   1      25.157  -9.730  -5.442  0.00  0.00     0.081 A 
ATOM     19  C   UNL d   1      24.690  -8.635  -6.181  0.00  0.00     0.038 A 
ATOM     20  C   UNL d   1      24.576  -7.381  -5.585  0.00  0.00     0.009 A 
ATOM     21  C   UNL d   1      24.920  -7.215  -4.243  0.00  0.00    -0.061 A 
ATOM     22  C   UNL d   1      24.738  -5.881  -3.571  0.00  0.00     0.048 C 
ATOM     23  C   UNL d   1      25.423  -8.313  -3.515  0.00  0.00     0.026 A 
BRANCH  18  24
ATOM     24  O   UNL d   1      25.200 -10.946  -6.065  0.00  0.00    -0.360 OA
ATOM     25  H   UNL d   1      24.782 -11.626  -5.514  0.00  0.00     0.217 HD
ENDBRANCH  18  24
ENDBRANCH   1  17
TORSDOF 5
ENDMDL
MODEL 6
REMARK VINA RESULT:    -6.298      4.168      9.261
REMARK INTER + INTRA:         -10.029
REMARK INTER:                  -7.789
REMARK INTRA:                  -2.240
REMARK CONF_INDEPENDENT:        1.492
REMARK UNBOUND:                -2.240
REMARK  5 active torsions:
REMARK  status: ('A' for Active; 'I' for Inactive)
REMARK    1  A    between atoms: C_5  and  O_6 
REMARK    2  A    between atoms: C_7  and  C_8 
REMARK       I    between atoms: C_8  and  N_10 
REMARK    3  A    between atoms: N_10  and  N_11 
REMARK       I    between atoms: N_11  and  C_12 
REMARK    4  A    between atoms: C_12  and  C_14 
REMARK    5  A    between atoms: C_14  and  C_15 
ROOT
ATOM      1  C   UNL d   1      27.052 -14.396  -4.959  0.00  0.00     0.272 C 
ATOM      2  O   UNL d   1      27.212 -15.543  -5.380  0.00  0.00    -0.266 OA
ATOM      3  N   UNL d   1      26.704 -14.211  -3.635  0.00  0.00    -0.263 N 
ATOM      4  H   UNL d   1      26.551 -13.315  -3.177  0.00  0.00     0.190 HD
ENDROOT
BRANCH   3   5
ATOM      5  N   UNL d   1      26.545 -15.335  -2.776  0.00  0.00    -0.267 N 
ATOM      6  C   UNL d   1      26.321 -15.024  -1.454  0.00  0.00     0.240 C 
ATOM      7  O   UNL d   1      26.281 -13.821  -1.176  0.00  0.00    -0.272 OA
ATOM      8  H   UNL d   1      26.564 -16.257  -3.204  0.00  0.00     0.190 HD
BRANCH   6   9
ATOM      9  C   UNL d   1      26.141 -16.184  -0.451  0.00  0.00     0.146 C 
BRANCH   9  10
ATOM     10  C   UNL d   1      24.798 -16.919  -0.482  0.00  0.00    -0.011 A 
ATOM     11  C   UNL d   1      23.591 -16.296  -0.835  0.00  0.00     0.011 A 
ATOM     12  C   UNL d   1      22.378 -16.975  -0.894  0.00  0.00     0.001 A 
ATOM     13  C   UNL d   1      22.322 -18.317  -0.566  0.00  0.00     0.003 A 
ATOM     14  C   UNL d   1      23.492 -18.971  -0.179  0.00  0.00     0.043 A 
ATOM     15  C   UNL d   1      24.712 -18.278  -0.144  0.00  0.00     0.123 A 
ATOM     16  F   UNL d   1      25.811 -18.950   0.230  0.00  0.00    -0.206 F 
ENDBRANCH   9  10
ENDBRANCH   6   9
ENDBRANCH   3   5
BRANCH   1  17
ATOM     17  C   UNL d   1      27.233 -13.160  -5.822  0.00  0.00     0.067 A 
ATOM     18  C   UNL d   1      26.515 -11.981  -5.547  0.00  0.00     0.081 A 
ATOM     19  C   UNL d   1      26.627 -10.851  -6.366  0.00  0.00     0.038 A 
ATOM     20  C   UNL d   1      27.491 -10.857  -7.459  0.00  0.00     0.009 A 
ATOM     21  C   UNL d   1      28.255 -11.991  -7.736  0.00  0.00    -0.061 A 
ATOM     22  C   UNL d   1      29.240 -11.986  -8.872  0.00  0.00     0.048 C 
ATOM     23  C   UNL d   1      28.111 -13.138  -6.927  0.00  0.00     0.026 A 
BRANCH  18  24
ATOM     24  O   UNL d   1      25.689 -11.900  -4.460  0.00  0.00    -0.360 OA
ATOM     25  H   UNL d   1      24.776 -11.727  -4.739  0.00  0.00     0.217 HD
ENDBRANCH  18  24
ENDBRANCH   1  17
TORSDOF 5
ENDMDL
MODEL 7
REMARK VINA RESULT:    -6.225      5.745      8.808
REMARK INTER + INTRA:          -9.913
REMARK INTER:                  -7.716
REMARK INTRA:                  -2.197
REMARK CONF_INDEPENDENT:        1.492
REMARK UNBOUND:                -2.197
REMARK  5 active torsions:
REMARK  status: ('A' for Active; 'I' for Inactive)
REMARK    1  A    between atoms: C_5  and  O_6 
REMARK    2  A    between atoms: C_7  and  C_8 
REMARK       I    between atoms: C_8  and  N_10 
REMARK    3  A    between atoms: N_10  and  N_11 
REMARK       I    between atoms: N_11  and  C_12 
REMARK    4  A    between atoms: C_12  and  C_14 
REMARK    5  A    between atoms: C_14  and  C_15 
ROOT
ATOM      1  C   UNL d   1      27.755 -14.093   4.031  0.00  0.00     0.272 C 
ATOM      2  O   UNL d   1      26.598 -13.700   3.867  0.00  0.00    -0.266 OA
ATOM      3  N   UNL d   1      28.375 -14.793   3.015  0.00  0.00    -0.263 N 
ATOM      4  H   UNL d   1      29.324 -15.161   3.035  0.00  0.00     0.190 HD
ENDROOT
BRANCH   3   5
ATOM      5  N   UNL d   1      27.683 -15.043   1.796  0.00  0.00    -0.267 N 
ATOM      6  C   UNL d   1      28.484 -15.436   0.747  0.00  0.00     0.240 C 
ATOM      7  O   UNL d   1      29.692 -15.527   0.988  0.00  0.00    -0.272 OA
ATOM      8  H   UNL d   1      26.670 -14.957   1.808  0.00  0.00     0.190 HD
BRANCH   6   9
ATOM      9  C   UNL d   1      27.816 -15.723  -0.614  0.00  0.00     0.146 C 
BRANCH   9  10
ATOM     10  C   UNL d   1      26.454 -16.423  -0.579  0.00  0.00    -0.011 A 
ATOM     11  C   UNL d   1      26.209 -17.586   0.166  0.00  0.00     0.011 A 
ATOM     12  C   UNL d   1      24.961 -18.200   0.223  0.00  0.00     0.001 A 
ATOM     13  C   UNL d   1      23.904 -17.681  -0.502  0.00  0.00     0.003 A 
ATOM     14  C   UNL d   1      24.109 -16.543  -1.281  0.00  0.00     0.043 A 
ATOM     15  C   UNL d   1      25.368 -15.923  -1.313  0.00  0.00     0.123 A 
ATOM     16  F   UNL d   1      25.515 -14.828  -2.074  0.00  0.00    -0.206 F 
ENDBRANCH   9  10
ENDBRANCH   6   9
ENDBRANCH   3   5
BRANCH   1  17
ATOM     17  C   UNL d   1      28.549 -13.835   5.299  0.00  0.00     0.067 A 
ATOM     18  C   UNL d   1      29.690 -14.603   5.600  0.00  0.00     0.081 A 
ATOM     19  C   UNL d   1      30.401 -14.415   6.793  0.00  0.00     0.038 A 
ATOM     20  C   UNL d   1      30.014 -13.427   7.695  0.00  0.00     0.009 A 
ATOM     21  C   UNL d   1      28.917 -12.614   7.408  0.00  0.00    -0.061 A 
ATOM     22  C   UNL d   1      28.530 -11.501   8.343  0.00  0.00     0.048 C 
ATOM     23  C   UNL d   1      28.184 -12.832   6.223  0.00  0.00     0.026 A 
BRANCH  18  24
ATOM     24  O   UNL d   1      30.146 -15.553   4.730  0.00  0.00    -0.360 OA
ATOM     25  H   UNL d   1      29.411 -16.094   4.401  0.00  0.00     0.217 HD
ENDBRANCH  18  24
ENDBRANCH   1  17
TORSDOF 5
ENDMDL
MODEL 8
REMARK VINA RESULT:    -6.088      3.555      8.546
REMARK INTER + INTRA:          -9.837
REMARK INTER:                  -7.580
REMARK INTRA:                  -2.258
REMARK CONF_INDEPENDENT:        1.492
REMARK UNBOUND:                -2.258
REMARK  5 active torsions:
REMARK  status: ('A' for Active; 'I' for Inactive)
REMARK    1  A    between atoms: C_5  and  O_6 
REMARK    2  A    between atoms: C_7  and  C_8 
REMARK       I    between atoms: C_8  and  N_10 
REMARK    3  A    between atoms: N_10  and  N_11 
REMARK       I    between atoms: N_11  and  C_12 
REMARK    4  A    between atoms: C_12  and  C_14 
REMARK    5  A    between atoms: C_14  and  C_15 
ROOT
ATOM      1  C   UNL d   1      26.445 -15.190  -4.088  0.00  0.00     0.272 C 
ATOM      2  O   UNL d   1      25.225 -15.060  -4.200  0.00  0.00    -0.266 OA
ATOM      3  N   UNL d   1      26.949 -15.880  -3.003  0.00  0.00    -0.263 N 
ATOM      4  H   UNL d   1      27.933 -16.054  -2.809  0.00  0.00     0.190 HD
ENDROOT
BRANCH   3   5
ATOM      5  N   UNL d   1      26.063 -16.438  -2.038  0.00  0.00    -0.267 N 
ATOM      6  C   UNL d   1      26.679 -17.097  -0.999  0.00  0.00     0.240 C 
ATOM      7  O   UNL d   1      27.914 -17.122  -1.026  0.00  0.00    -0.272 OA
ATOM      8  H   UNL d   1      25.068 -16.270  -2.167  0.00  0.00     0.190 HD
BRANCH   6   9
ATOM      9  C   UNL d   1      25.792 -17.736   0.090  0.00  0.00     0.146 C 
BRANCH   9  10
ATOM     10  C   UNL d   1      24.309 -17.917  -0.248  0.00  0.00    -0.011 A 
ATOM     11  C   UNL d   1      23.670 -19.166  -0.246  0.00  0.00     0.011 A 
ATOM     12  C   UNL d   1      22.314 -19.323  -0.520  0.00  0.00     0.001 A 
ATOM     13  C   UNL d   1      21.544 -18.221  -0.842  0.00  0.00     0.003 A 
ATOM     14  C   UNL d   1      22.144 -16.963  -0.887  0.00  0.00     0.043 A 
ATOM     15  C   UNL d   1      23.508 -16.817  -0.588  0.00  0.00     0.123 A 
ATOM     16  F   UNL d   1      24.038 -15.586  -0.639  0.00  0.00    -0.206 F 
ENDBRANCH   9  10
ENDBRANCH   6   9
ENDBRANCH   3   5
BRANCH   1  17
ATOM     17  C   UNL d   1      27.436 -14.639  -5.098  0.00  0.00     0.067 A 
ATOM     18  C   UNL d   1      27.260 -13.355  -5.649  0.00  0.00     0.081 A 
ATOM     19  C   UNL d   1      28.133 -12.854  -6.623  0.00  0.00     0.038 A 
ATOM     20  C   UNL d   1      29.228 -13.608  -7.042  0.00  0.00     0.009 A 
ATOM     21  C   UNL d   1      29.462 -14.865  -6.484  0.00  0.00    -0.061 A 
ATOM     22  C   UNL d   1      30.677 -15.658  -6.879  0.00  0.00     0.048 C 
ATOM     23  C   UNL d   1      28.559 -15.378  -5.529  0.00  0.00     0.026 A 
BRANCH  18  24
ATOM     24  O   UNL d   1      26.233 -12.551  -5.241  0.00  0.00    -0.360 OA
ATOM     25  H   UNL d   1      25.668 -13.017  -4.604  0.00  0.00     0.217 HD
ENDBRANCH  18  24
ENDBRANCH   1  17
TORSDOF 5
ENDMDL
MODEL 9
REMARK VINA RESULT:    -5.991      6.352      9.148
REMARK INTER + INTRA:          -9.731
REMARK INTER:                  -7.483
REMARK INTRA:                  -2.249
REMARK CONF_INDEPENDENT:        1.492
REMARK UNBOUND:                -2.249
REMARK  5 active torsions:
REMARK  status: ('A' for Active; 'I' for Inactive)
REMARK    1  A    between atoms: C_5  and  O_6 
REMARK    2  A    between atoms: C_7  and  C_8 
REMARK       I    between atoms: C_8  and  N_10 
REMARK    3  A    between atoms: N_10  and  N_11 
REMARK       I    between atoms: N_11  and  C_12 
REMARK    4  A    between atoms: C_12  and  C_14 
REMARK    5  A    between atoms: C_14  and  C_15 
ROOT
ATOM      1  C   UNL d   1      29.062 -14.341   4.838  0.00  0.00     0.272 C 
ATOM      2  O   UNL d   1      29.939 -15.200   4.730  0.00  0.00    -0.266 OA
ATOM      3  N   UNL d   1      28.234 -14.090   3.761  0.00  0.00    -0.263 N 
ATOM      4  H   UNL d   1      27.476 -13.411   3.735  0.00  0.00     0.190 HD
ENDROOT
BRANCH   3   5
ATOM      5  N   UNL d   1      28.393 -14.825   2.552  0.00  0.00    -0.267 N 
ATOM      6  C   UNL d   1      27.535 -14.463   1.538  0.00  0.00     0.240 C 
ATOM      7  O   UNL d   1      26.742 -13.552   1.795  0.00  0.00    -0.272 OA
ATOM      8  H   UNL d   1      29.141 -15.513   2.519  0.00  0.00     0.190 HD
BRANCH   6   9
ATOM      9  C   UNL d   1      27.637 -15.213   0.193  0.00  0.00     0.146 C 
BRANCH   9  10
ATOM     10  C   UNL d   1      26.462 -16.121  -0.181  0.00  0.00    -0.011 A 
ATOM     11  C   UNL d   1      26.280 -17.402   0.363  0.00  0.00     0.011 A 
ATOM     12  C   UNL d   1      25.192 -18.211   0.046  0.00  0.00     0.001 A 
ATOM     13  C   UNL d   1      24.249 -17.772  -0.864  0.00  0.00     0.003 A 
ATOM     14  C   UNL d   1      24.405 -16.517  -1.452  0.00  0.00     0.043 A 
ATOM     15  C   UNL d   1      25.496 -15.704  -1.109  0.00  0.00     0.123 A 
ATOM     16  F   UNL d   1      25.601 -14.504  -1.698  0.00  0.00    -0.206 F 
ENDBRANCH   9  10
ENDBRANCH   6   9
ENDBRANCH   3   5
BRANCH   1  17
ATOM     17  C   UNL d   1      28.830 -13.545   6.109  0.00  0.00     0.067 A 
ATOM     18  C   UNL d   1      28.332 -12.229   6.050  0.00  0.00     0.081 A 
ATOM     19  C   UNL d   1      28.165 -11.460   7.210  0.00  0.00     0.038 A 
ATOM     20  C   UNL d   1      28.454 -12.001   8.461  0.00  0.00     0.009 A 
ATOM     21  C   UNL d   1      28.904 -13.318   8.562  0.00  0.00    -0.061 A 
ATOM     22  C   UNL d   1      29.155 -13.935   9.911  0.00  0.00     0.048 C 
ATOM     23  C   UNL d   1      29.103 -14.075   7.388  0.00  0.00     0.026 A 
BRANCH  18  24
ATOM     24  O   UNL d   1      27.985 -11.662   4.856  0.00  0.00    -0.360 OA
ATOM     25  H   UNL d   1      28.593 -11.946   4.155  0.00  0.00     0.217 HD
ENDBRANCH  18  24
ENDBRANCH   1  17
TORSDOF 5
ENDMDL
