MODEL 1
REMARK VINA RESULT:   -10.573      0.000      0.000
REMARK INTER + INTRA:         -13.583
REMARK INTER:                 -12.662
REMARK INTRA:                  -0.921
REMARK CONF_INDEPENDENT:        2.088
REMARK UNBOUND:                -0.921
REMARK  7 active torsions:
REMARK  status: ('A' for Active; 'I' for Inactive)
REMARK    1  A    between atoms: O_2  and  C_3 
REMARK    2  A    between atoms: C_3  and  C_5 
REMARK    3  A    between atoms: C_8  and  N_9 
REMARK       I    between atoms: N_9  and  C_10 
REMARK       I    between atoms: C_10  and  N_12 
REMARK    4  A    between atoms: N_12  and  C_13 
REMARK    5  A    between atoms: C_13  and  C_14 
REMARK    6  A    between atoms: C_17  and  N_18 
REMARK       I    between atoms: N_18  and  C_19 
REMARK    7  A    between atoms: C_19  and  C_21 
ROOT
ATOM      1  N   UNL d   1      28.763 -14.825   2.262  0.00  0.00    -0.308 N 
ATOM      2  C   UNL d   1      28.074 -14.401   1.105  0.00  0.00     0.321 C 
ATOM      3  O   UNL d   1      27.657 -13.264   0.916  0.00  0.00    -0.247 OA
ATOM      4  N   UNL d   1      27.744 -15.442   0.227  0.00  0.00    -0.339 N 
ATOM      5  H   UNL d   1      29.540 -15.450   2.105  0.00  0.00     0.170 HD
ATOM      6  H   UNL d   1      28.554 -15.928  -0.129  0.00  0.00     0.164 HD
ENDROOT
BRANCH   4   7
ATOM      7  C   UNL d   1      26.624 -15.304  -0.781  0.00  0.00     0.162 C 
BRANCH   7   8
ATOM      8  C   UNL d   1      25.627 -16.461  -0.835  0.00  0.00    -0.040 C 
ATOM      9  C   UNL d   1      24.675 -16.730  -1.829  0.00  0.00     0.011 C 
ATOM     10  C   UNL d   1      23.652 -17.729  -1.645  0.00  0.00     0.030 C 
ATOM     11  C   UNL d   1      23.515 -18.390  -0.422  0.00  0.00     0.034 C 
ATOM     12  C   UNL d   1      24.542 -18.177   0.456  0.00  0.00     0.030 C 
ATOM     13  C   UNL d   1      25.637 -17.368   0.190  0.00  0.00     0.011 C 
BRANCH  11  14
ATOM     14  N   UNL d   1      22.488 -19.322  -0.072  0.00  0.00    -0.327 N 
ATOM     15  C   UNL d   1      21.113 -19.115  -0.306  0.00  0.00     0.225 C 
ATOM     16  O   UNL d   1      20.617 -18.180  -0.939  0.00  0.00    -0.273 OA
ATOM     17  H   UNL d   1      22.782 -20.173   0.383  0.00  0.00     0.169 HD
BRANCH  15  18
ATOM     18  C   UNL d   1      20.152 -20.160   0.247  0.00  0.00     0.070 C 
ATOM     19  C   UNL d   1      19.892 -19.939   1.729  0.00  0.00     0.019 C 
ATOM     20  C   UNL d   1      18.811 -20.059  -0.514  0.00  0.00     0.019 C 
ENDBRANCH  15  18
ENDBRANCH  11  14
ENDBRANCH   7   8
ENDBRANCH   4   7
BRANCH   1  21
ATOM     21  C   UNL d   1      28.695 -14.204   3.579  0.00  0.00     0.042 C 
ATOM     22  C   UNL d   1      27.486 -14.113   4.289  0.00  0.00     0.031 C 
ATOM     23  C   UNL d   1      27.405 -13.447   5.556  0.00  0.00     0.020 C 
ATOM     24  C   UNL d   1      28.527 -12.844   6.140  0.00  0.00     0.040 C 
ATOM     25  C   UNL d   1      29.714 -13.016   5.488  0.00  0.00     0.026 C 
ATOM     26  C   UNL d   1      29.777 -13.590   4.217  0.00  0.00    -0.034 C 
ATOM     27  C   UNL d   1      31.073 -13.276   3.611  0.00  0.00     0.050 C 
BRANCH  24  28
ATOM     28  C   UNL d   1      28.527 -12.107   7.431  0.00  0.00     0.292 C 
ATOM     29  O   UNL d   1      28.567 -10.868   7.436  0.00  0.00    -0.259 OA
BRANCH  28  30
ATOM     30  O   UNL d   1      28.315 -12.823   8.572  0.00  0.00    -0.323 OA
ATOM     31  C   UNL d   1      29.035 -14.046   8.865  0.00  0.00     0.213 C 
ENDBRANCH  28  30
ENDBRANCH  24  28
ENDBRANCH   1  21
TORSDOF 7
ENDMDL
MODEL 2
REMARK VINA RESULT:   -10.171      1.455      1.848
REMARK INTER + INTRA:         -13.122
REMARK INTER:                 -12.259
REMARK INTRA:                  -0.863
REMARK CONF_INDEPENDENT:        2.088
REMARK UNBOUND:                -0.863
REMARK  7 active torsions:
REMARK  status: ('A' for Active; 'I' for Inactive)
REMARK    1  A    between atoms: O_2  and  C_3 
REMARK    2  A    between atoms: C_3  and  C_5 
REMARK    3  A    between atoms: C_8  and  N_9 
REMARK       I    between atoms: N_9  and  C_10 
REMARK       I    between atoms: C_10  and  N_12 
REMARK    4  A    between atoms: N_12  and  C_13 
REMARK    5  A    between atoms: C_13  and  C_14 
REMARK    6  A    between atoms: C_17  and  N_18 
REMARK       I    between atoms: N_18  and  C_19 
REMARK    7  A    between atoms: C_19  and  C_21 
ROOT
ATOM      1  N   UNL d   1      27.918 -15.050   1.674  0.00  0.00    -0.308 N 
ATOM      2  C   UNL d   1      27.400 -14.924   0.367  0.00  0.00     0.321 C 
ATOM      3  O   UNL d   1      27.281 -13.865  -0.239  0.00  0.00    -0.247 OA
ATOM      4  N   UNL d   1      26.862 -16.111  -0.148  0.00  0.00    -0.339 N 
ATOM      5  H   UNL d   1      28.525 -15.841   1.831  0.00  0.00     0.170 HD
ATOM      6  H   UNL d   1      27.543 -16.853  -0.220  0.00  0.00     0.164 HD
ENDROOT
BRANCH   4   7
ATOM      7  C   UNL d   1      25.852 -16.101  -1.273  0.00  0.00     0.162 C 
BRANCH   7   8
ATOM      8  C   UNL d   1      24.553 -16.862  -1.012  0.00  0.00    -0.040 C 
ATOM      9  C   UNL d   1      23.253 -16.341  -0.919  0.00  0.00     0.011 C 
ATOM     10  C   UNL d   1      22.150 -17.142  -0.452  0.00  0.00     0.030 C 
ATOM     11  C   UNL d   1      22.362 -18.438   0.022  0.00  0.00     0.034 C 
ATOM     12  C   UNL d   1      23.617 -18.929  -0.211  0.00  0.00     0.030 C 
ATOM     13  C   UNL d   1      24.623 -18.220  -0.851  0.00  0.00     0.011 C 
BRANCH  11  14
ATOM     14  N   UNL d   1      21.380 -19.299   0.604  0.00  0.00    -0.327 N 
ATOM     15  C   UNL d   1      20.336 -19.916  -0.115  0.00  0.00     0.225 C 
ATOM     16  O   UNL d   1      20.191 -19.901  -1.340  0.00  0.00    -0.273 OA
ATOM     17  H   UNL d   1      21.444 -19.456   1.600  0.00  0.00     0.169 HD
BRANCH  15  18
ATOM     18  C   UNL d   1      19.307 -20.699   0.691  0.00  0.00     0.070 C 
ATOM     19  C   UNL d   1      18.973 -19.991   1.994  0.00  0.00     0.019 C 
ATOM     20  C   UNL d   1      18.016 -20.839  -0.146  0.00  0.00     0.019 C 
ENDBRANCH  15  18
ENDBRANCH  11  14
ENDBRANCH   7   8
ENDBRANCH   4   7
BRANCH   1  21
ATOM     21  C   UNL d   1      27.950 -14.005   2.691  0.00  0.00     0.042 C 
ATOM     22  C   UNL d   1      28.157 -12.657   2.355  0.00  0.00     0.031 C 
ATOM     23  C   UNL d   1      28.252 -11.637   3.359  0.00  0.00     0.020 C 
ATOM     24  C   UNL d   1      28.153 -11.940   4.723  0.00  0.00     0.040 C 
ATOM     25  C   UNL d   1      27.862 -13.237   5.035  0.00  0.00     0.026 C 
ATOM     26  C   UNL d   1      27.853 -14.241   4.066  0.00  0.00    -0.034 C 
ATOM     27  C   UNL d   1      27.920 -15.548   4.725  0.00  0.00     0.050 C 
BRANCH  24  28
ATOM     28  C   UNL d   1      28.272 -10.955   5.829  0.00  0.00     0.292 C 
ATOM     29  O   UNL d   1      28.563  -9.777   5.581  0.00  0.00    -0.259 OA
BRANCH  28  30
ATOM     30  O   UNL d   1      27.890 -11.352   7.077  0.00  0.00    -0.323 OA
ATOM     31  C   UNL d   1      28.820 -11.427   8.185  0.00  0.00     0.213 C 
ENDBRANCH  28  30
ENDBRANCH  24  28
ENDBRANCH   1  21
TORSDOF 7
ENDMDL
MODEL 3
REMARK VINA RESULT:    -9.936      6.077      9.041
REMARK INTER + INTRA:         -12.871
REMARK INTER:                 -12.024
REMARK INTRA:                  -0.847
REMARK CONF_INDEPENDENT:        2.088
REMARK UNBOUND:                -0.847
REMARK  7 active torsions:
REMARK  status: ('A' for Active; 'I' for Inactive)
REMARK    1  A    between atoms: O_2  and  C_3 
REMARK    2  A    between atoms: C_3  and  C_5 
REMARK    3  A    between atoms: C_8  and  N_9 
REMARK       I    between atoms: N_9  and  C_10 
REMARK       I    between atoms: C_10  and  N_12 
REMARK    4  A    between atoms: N_12  and  C_13 
REMARK    5  A    between atoms: C_13  and  C_14 
REMARK    6  A    between atoms: C_17  and  N_18 
REMARK       I    between atoms: N_18  and  C_19 
REMARK    7  A    between atoms: C_19  and  C_21 
ROOT
ATOM      1  N   UNL d   1      27.425 -15.339  -4.576  0.00  0.00    -0.308 N 
ATOM      2  C   UNL d   1      26.269 -15.310  -3.766  0.00  0.00     0.321 C 
ATOM      3  O   UNL d   1      25.245 -14.690  -4.029  0.00  0.00    -0.247 OA
ATOM      4  N   UNL d   1      26.434 -15.926  -2.518  0.00  0.00    -0.339 N 
ATOM      5  H   UNL d   1      27.884 -16.235  -4.653  0.00  0.00     0.170 HD
ATOM      6  H   UNL d   1      26.664 -16.906  -2.590  0.00  0.00     0.164 HD
ENDROOT
BRANCH   4   7
ATOM      7  C   UNL d   1      25.538 -15.596  -1.345  0.00  0.00     0.162 C 
BRANCH   7   8
ATOM      8  C   UNL d   1      24.346 -16.527  -1.131  0.00  0.00    -0.040 C 
ATOM      9  C   UNL d   1      22.982 -16.198  -1.150  0.00  0.00     0.011 C 
ATOM     10  C   UNL d   1      21.974 -17.133  -0.716  0.00  0.00     0.030 C 
ATOM     11  C   UNL d   1      22.335 -18.363  -0.163  0.00  0.00     0.034 C 
ATOM     12  C   UNL d   1      23.660 -18.674  -0.289  0.00  0.00     0.030 C 
ATOM     13  C   UNL d   1      24.598 -17.852  -0.897  0.00  0.00     0.011 C 
BRANCH  11  14
ATOM     14  N   UNL d   1      21.447 -19.334   0.397  0.00  0.00    -0.327 N 
ATOM     15  C   UNL d   1      20.338 -19.882  -0.280  0.00  0.00     0.225 C 
ATOM     16  O   UNL d   1      20.049 -19.700  -1.465  0.00  0.00    -0.273 OA
ATOM     17  H   UNL d   1      21.631 -19.627   1.345  0.00  0.00     0.169 HD
BRANCH  15  18
ATOM     18  C   UNL d   1      19.428 -20.809   0.516  0.00  0.00     0.070 C 
ATOM     19  C   UNL d   1      19.288 -20.341   1.955  0.00  0.00     0.019 C 
ATOM     20  C   UNL d   1      18.030 -20.825  -0.141  0.00  0.00     0.019 C 
ENDBRANCH  15  18
ENDBRANCH  11  14
ENDBRANCH   7   8
ENDBRANCH   4   7
BRANCH   1  21
ATOM     21  C   UNL d   1      27.812 -14.333  -5.557  0.00  0.00     0.042 C 
ATOM     22  C   UNL d   1      27.062 -13.160  -5.744  0.00  0.00     0.031 C 
ATOM     23  C   UNL d   1      27.405 -12.200  -6.753  0.00  0.00     0.020 C 
ATOM     24  C   UNL d   1      28.499 -12.393  -7.606  0.00  0.00     0.040 C 
ATOM     25  C   UNL d   1      29.274 -13.489  -7.358  0.00  0.00     0.026 C 
ATOM     26  C   UNL d   1      28.893 -14.463  -6.434  0.00  0.00    -0.034 C 
ATOM     27  C   UNL d   1      29.672 -15.681  -6.671  0.00  0.00     0.050 C 
BRANCH  24  28
ATOM     28  C   UNL d   1      28.907 -11.469  -8.697  0.00  0.00     0.292 C 
ATOM     29  O   UNL d   1      29.955 -11.676  -9.325  0.00  0.00    -0.259 OA
BRANCH  28  30
ATOM     30  O   UNL d   1      28.018 -10.509  -9.082  0.00  0.00    -0.323 OA
ATOM     31  C   UNL d   1      26.778 -10.827  -9.759  0.00  0.00     0.213 C 
ENDBRANCH  28  30
ENDBRANCH  24  28
ENDBRANCH   1  21
TORSDOF 7
ENDMDL
MODEL 4
REMARK VINA RESULT:    -9.862      2.416      3.002
REMARK INTER + INTRA:         -12.879
REMARK INTER:                 -11.950
REMARK INTRA:                  -0.928
REMARK CONF_INDEPENDENT:        2.088
REMARK UNBOUND:                -0.928
REMARK  7 active torsions:
REMARK  status: ('A' for Active; 'I' for Inactive)
REMARK    1  A    between atoms: O_2  and  C_3 
REMARK    2  A    between atoms: C_3  and  C_5 
REMARK    3  A    between atoms: C_8  and  N_9 
REMARK       I    between atoms: N_9  and  C_10 
REMARK       I    between atoms: C_10  and  N_12 
REMARK    4  A    between atoms: N_12  and  C_13 
REMARK    5  A    between atoms: C_13  and  C_14 
REMARK    6  A    between atoms: C_17  and  N_18 
REMARK       I    between atoms: N_18  and  C_19 
REMARK    7  A    between atoms: C_19  and  C_21 
ROOT
ATOM      1  N   UNL d   1      28.465 -14.565   2.074  0.00  0.00    -0.308 N 
ATOM      2  C   UNL d   1      28.430 -14.974   0.723  0.00  0.00     0.321 C 
ATOM      3  O   UNL d   1      28.587 -14.229  -0.237  0.00  0.00    -0.247 OA
ATOM      4  N   UNL d   1      28.028 -16.304   0.543  0.00  0.00    -0.339 N 
ATOM      5  H   UNL d   1      28.934 -15.193   2.710  0.00  0.00     0.170 HD
ATOM      6  H   UNL d   1      28.647 -16.966   0.988  0.00  0.00     0.164 HD
ENDROOT
BRANCH   4   7
ATOM      7  C   UNL d   1      27.462 -16.790  -0.773  0.00  0.00     0.162 C 
BRANCH   7   8
ATOM      8  C   UNL d   1      25.978 -17.153  -0.769  0.00  0.00    -0.040 C 
ATOM      9  C   UNL d   1      24.907 -16.405  -1.284  0.00  0.00     0.011 C 
ATOM     10  C   UNL d   1      23.537 -16.765  -1.017  0.00  0.00     0.030 C 
ATOM     11  C   UNL d   1      23.234 -17.814  -0.147  0.00  0.00     0.034 C 
ATOM     12  C   UNL d   1      24.308 -18.577   0.218  0.00  0.00     0.030 C 
ATOM     13  C   UNL d   1      25.608 -18.346  -0.210  0.00  0.00     0.011 C 
BRANCH  11  14
ATOM     14  N   UNL d   1      21.928 -18.209   0.282  0.00  0.00    -0.327 N 
ATOM     15  C   UNL d   1      21.005 -18.911  -0.521  0.00  0.00     0.225 C 
ATOM     16  O   UNL d   1      21.226 -19.380  -1.640  0.00  0.00    -0.273 OA
ATOM     17  H   UNL d   1      21.659 -17.950   1.220  0.00  0.00     0.169 HD
BRANCH  15  18
ATOM     18  C   UNL d   1      19.614 -19.137   0.058  0.00  0.00     0.070 C 
ATOM     19  C   UNL d   1      18.782 -20.035  -0.842  0.00  0.00     0.019 C 
ATOM     20  C   UNL d   1      19.751 -19.808   1.443  0.00  0.00     0.019 C 
ENDBRANCH  15  18
ENDBRANCH  11  14
ENDBRANCH   7   8
ENDBRANCH   4   7
BRANCH   1  21
ATOM     21  C   UNL d   1      28.212 -13.218   2.572  0.00  0.00     0.042 C 
ATOM     22  C   UNL d   1      27.212 -12.403   2.016  0.00  0.00     0.031 C 
ATOM     23  C   UNL d   1      27.006 -11.056   2.461  0.00  0.00     0.020 C 
ATOM     24  C   UNL d   1      27.800 -10.485   3.465  0.00  0.00     0.040 C 
ATOM     25  C   UNL d   1      28.708 -11.313   4.061  0.00  0.00     0.026 C 
ATOM     26  C   UNL d   1      28.965 -12.594   3.571  0.00  0.00    -0.034 C 
ATOM     27  C   UNL d   1      30.232 -13.076   4.127  0.00  0.00     0.050 C 
BRANCH  24  28
ATOM     28  C   UNL d   1      27.677  -9.091   3.964  0.00  0.00     0.292 C 
ATOM     29  O   UNL d   1      28.568  -8.607   4.676  0.00  0.00    -0.259 OA
BRANCH  28  30
ATOM     30  O   UNL d   1      26.655  -8.330   3.478  0.00  0.00    -0.323 OA
ATOM     31  C   UNL d   1      26.725  -7.667   2.191  0.00  0.00     0.213 C 
ENDBRANCH  28  30
ENDBRANCH  24  28
ENDBRANCH   1  21
TORSDOF 7
ENDMDL
MODEL 5
REMARK VINA RESULT:    -9.668      3.293      4.103
REMARK INTER + INTRA:         -12.354
REMARK INTER:                 -11.756
REMARK INTRA:                  -0.597
REMARK CONF_INDEPENDENT:        2.088
REMARK UNBOUND:                -0.597
REMARK  7 active torsions:
REMARK  status: ('A' for Active; 'I' for Inactive)
REMARK    1  A    between atoms: O_2  and  C_3 
REMARK    2  A    between atoms: C_3  and  C_5 
REMARK    3  A    between atoms: C_8  and  N_9 
REMARK       I    between atoms: N_9  and  C_10 
REMARK       I    between atoms: C_10  and  N_12 
REMARK    4  A    between atoms: N_12  and  C_13 
REMARK    5  A    between atoms: C_13  and  C_14 
REMARK    6  A    between atoms: C_17  and  N_18 
REMARK       I    between atoms: N_18  and  C_19 
REMARK    7  A    between atoms: C_19  and  C_21 
ROOT
ATOM      1  N   UNL d   1      28.009 -13.241   1.940  0.00  0.00    -0.308 N 
ATOM      2  C   UNL d   1      28.276 -13.931   0.737  0.00  0.00     0.321 C 
ATOM      3  O   UNL d   1      28.543 -13.395  -0.332  0.00  0.00    -0.247 OA
ATOM      4  N   UNL d   1      28.047 -15.312   0.811  0.00  0.00    -0.339 N 
ATOM      5  H   UNL d   1      28.405 -13.647   2.775  0.00  0.00     0.170 HD
ATOM      6  H   UNL d   1      28.629 -15.771   1.497  0.00  0.00     0.164 HD
ENDROOT
BRANCH   4   7
ATOM      7  C   UNL d   1      27.796 -16.142  -0.427  0.00  0.00     0.162 C 
BRANCH   7   8
ATOM      8  C   UNL d   1      26.424 -16.808  -0.520  0.00  0.00    -0.040 C 
ATOM      9  C   UNL d   1      25.252 -16.288  -1.090  0.00  0.00     0.011 C 
ATOM     10  C   UNL d   1      23.975 -16.934  -0.913  0.00  0.00     0.030 C 
ATOM     11  C   UNL d   1      23.851 -18.046  -0.077  0.00  0.00     0.034 C 
ATOM     12  C   UNL d   1      25.039 -18.575   0.345  0.00  0.00     0.030 C 
ATOM     13  C   UNL d   1      26.283 -18.066   0.000  0.00  0.00     0.011 C 
BRANCH  11  14
ATOM     14  N   UNL d   1      22.635 -18.717   0.266  0.00  0.00    -0.327 N 
ATOM     15  C   UNL d   1      21.730 -19.251  -0.673  0.00  0.00     0.225 C 
ATOM     16  O   UNL d   1      21.906 -19.324  -1.891  0.00  0.00    -0.273 OA
ATOM     17  H   UNL d   1      22.418 -18.793   1.249  0.00  0.00     0.169 HD
BRANCH  15  18
ATOM     18  C   UNL d   1      20.424 -19.819  -0.131  0.00  0.00     0.070 C 
ATOM     19  C   UNL d   1      20.267 -19.523   1.352  0.00  0.00     0.019 C 
ATOM     20  C   UNL d   1      19.243 -19.179  -0.895  0.00  0.00     0.019 C 
ENDBRANCH  15  18
ENDBRANCH  11  14
ENDBRANCH   7   8
ENDBRANCH   4   7
BRANCH   1  21
ATOM     21  C   UNL d   1      27.536 -11.867   2.056  0.00  0.00     0.042 C 
ATOM     22  C   UNL d   1      27.227 -11.096   0.923  0.00  0.00     0.031 C 
ATOM     23  C   UNL d   1      26.824  -9.724   1.032  0.00  0.00     0.020 C 
ATOM     24  C   UNL d   1      26.729  -9.086   2.276  0.00  0.00     0.040 C 
ATOM     25  C   UNL d   1      26.942  -9.867   3.375  0.00  0.00     0.026 C 
ATOM     26  C   UNL d   1      27.416 -11.175   3.265  0.00  0.00    -0.034 C 
ATOM     27  C   UNL d   1      27.931 -11.611   4.565  0.00  0.00     0.050 C 
BRANCH  24  28
ATOM     28  C   UNL d   1      26.351  -7.663   2.480  0.00  0.00     0.292 C 
ATOM     29  O   UNL d   1      26.931  -6.985   3.339  0.00  0.00    -0.259 OA
BRANCH  28  30
ATOM     30  O   UNL d   1      25.481  -7.103   1.591  0.00  0.00    -0.323 OA
ATOM     31  C   UNL d   1      25.640  -7.244   0.157  0.00  0.00     0.213 C 
ENDBRANCH  28  30
ENDBRANCH  24  28
ENDBRANCH   1  21
TORSDOF 7
ENDMDL
MODEL 6
REMARK VINA RESULT:    -9.573      3.453      4.186
REMARK INTER + INTRA:         -12.599
REMARK INTER:                 -11.661
REMARK INTRA:                  -0.938
REMARK CONF_INDEPENDENT:        2.088
REMARK UNBOUND:                -0.938
REMARK  7 active torsions:
REMARK  status: ('A' for Active; 'I' for Inactive)
REMARK    1  A    between atoms: O_2  and  C_3 
REMARK    2  A    between atoms: C_3  and  C_5 
REMARK    3  A    between atoms: C_8  and  N_9 
REMARK       I    between atoms: N_9  and  C_10 
REMARK       I    between atoms: C_10  and  N_12 
REMARK    4  A    between atoms: N_12  and  C_13 
REMARK    5  A    between atoms: C_13  and  C_14 
REMARK    6  A    between atoms: C_17  and  N_18 
REMARK       I    between atoms: N_18  and  C_19 
REMARK    7  A    between atoms: C_19  and  C_21 
ROOT
ATOM      1  N   UNL d   1      27.575 -13.510  -0.728  0.00  0.00    -0.308 N 
ATOM      2  C   UNL d   1      26.697 -14.036  -1.701  0.00  0.00     0.321 C 
ATOM      3  O   UNL d   1      25.844 -13.389  -2.298  0.00  0.00    -0.247 OA
ATOM      4  N   UNL d   1      26.758 -15.431  -1.826  0.00  0.00    -0.339 N 
ATOM      5  H   UNL d   1      28.526 -13.846  -0.768  0.00  0.00     0.170 HD
ATOM      6  H   UNL d   1      27.670 -15.761  -2.107  0.00  0.00     0.164 HD
ENDROOT
BRANCH   4   7
ATOM      7  C   UNL d   1      25.614 -16.225  -2.415  0.00  0.00     0.162 C 
BRANCH   7   8
ATOM      8  C   UNL d   1      24.706 -16.935  -1.413  0.00  0.00    -0.040 C 
ATOM      9  C   UNL d   1      24.905 -18.186  -0.807  0.00  0.00     0.011 C 
ATOM     10  C   UNL d   1      23.863 -18.832  -0.049  0.00  0.00     0.030 C 
ATOM     11  C   UNL d   1      22.583 -18.277   0.018  0.00  0.00     0.034 C 
ATOM     12  C   UNL d   1      22.489 -17.007  -0.481  0.00  0.00     0.030 C 
ATOM     13  C   UNL d   1      23.553 -16.305  -1.029  0.00  0.00     0.011 C 
BRANCH  11  14
ATOM     14  N   UNL d   1      21.438 -18.860   0.645  0.00  0.00    -0.327 N 
ATOM     15  C   UNL d   1      20.359 -19.441  -0.053  0.00  0.00     0.225 C 
ATOM     16  O   UNL d   1      20.302 -19.635  -1.269  0.00  0.00    -0.273 OA
ATOM     17  H   UNL d   1      21.408 -18.834   1.654  0.00  0.00     0.169 HD
BRANCH  15  18
ATOM     18  C   UNL d   1      19.165 -19.900   0.775  0.00  0.00     0.070 C 
ATOM     19  C   UNL d   1      18.587 -21.198   0.236  0.00  0.00     0.019 C 
ATOM     20  C   UNL d   1      19.624 -20.127   2.233  0.00  0.00     0.019 C 
ENDBRANCH  15  18
ENDBRANCH  11  14
ENDBRANCH   7   8
ENDBRANCH   4   7
BRANCH   1  21
ATOM     21  C   UNL d   1      27.349 -12.315   0.076  0.00  0.00     0.042 C 
ATOM     22  C   UNL d   1      26.937 -12.396   1.416  0.00  0.00     0.031 C 
ATOM     23  C   UNL d   1      26.654 -11.221   2.189  0.00  0.00     0.020 C 
ATOM     24  C   UNL d   1      26.765  -9.938   1.639  0.00  0.00     0.040 C 
ATOM     25  C   UNL d   1      27.252  -9.865   0.366  0.00  0.00     0.026 C 
ATOM     26  C   UNL d   1      27.447 -11.008  -0.412  0.00  0.00    -0.034 C 
ATOM     27  C   UNL d   1      27.573 -10.617  -1.818  0.00  0.00     0.050 C 
BRANCH  24  28
ATOM     28  C   UNL d   1      26.461  -8.671   2.355  0.00  0.00     0.292 C 
ATOM     29  O   UNL d   1      25.899  -7.742   1.758  0.00  0.00    -0.259 OA
BRANCH  28  30
ATOM     30  O   UNL d   1      26.666  -8.638   3.702  0.00  0.00    -0.323 OA
ATOM     31  C   UNL d   1      27.397  -7.567   4.350  0.00  0.00     0.213 C 
ENDBRANCH  28  30
ENDBRANCH  24  28
ENDBRANCH   1  21
TORSDOF 7
ENDMDL
MODEL 7
REMARK VINA RESULT:    -9.572      1.642      9.616
REMARK INTER + INTRA:         -12.401
REMARK INTER:                 -11.660
REMARK INTRA:                  -0.741
REMARK CONF_INDEPENDENT:        2.088
REMARK UNBOUND:                -0.741
REMARK  7 active torsions:
REMARK  status: ('A' for Active; 'I' for Inactive)
REMARK    1  A    between atoms: O_2  and  C_3 
REMARK    2  A    between atoms: C_3  and  C_5 
REMARK    3  A    between atoms: C_8  and  N_9 
REMARK       I    between atoms: N_9  and  C_10 
REMARK       I    between atoms: C_10  and  N_12 
REMARK    4  A    between atoms: N_12  and  C_13 
REMARK    5  A    between atoms: C_13  and  C_14 
REMARK    6  A    between atoms: C_17  and  N_18 
REMARK       I    between atoms: N_18  and  C_19 
REMARK    7  A    between atoms: C_19  and  C_21 
ROOT
ATOM      1  N   UNL d   1      27.151 -15.893  -0.527  0.00  0.00    -0.308 N 
ATOM      2  C   UNL d   1      27.690 -15.291   0.631  0.00  0.00     0.321 C 
ATOM      3  O   UNL d   1      27.408 -15.610   1.780  0.00  0.00    -0.247 OA
ATOM      4  N   UNL d   1      28.472 -14.157   0.371  0.00  0.00    -0.339 N 
ATOM      5  H   UNL d   1      27.801 -16.046  -1.284  0.00  0.00     0.170 HD
ATOM      6  H   UNL d   1      29.277 -14.358  -0.204  0.00  0.00     0.164 HD
ENDROOT
BRANCH   4   7
ATOM      7  C   UNL d   1      28.726 -13.110   1.431  0.00  0.00     0.162 C 
BRANCH   7   8
ATOM      8  C   UNL d   1      28.564 -13.570   2.879  0.00  0.00    -0.040 C 
ATOM      9  C   UNL d   1      27.424 -13.472   3.691  0.00  0.00     0.011 C 
ATOM     10  C   UNL d   1      27.477 -13.747   5.105  0.00  0.00     0.030 C 
ATOM     11  C   UNL d   1      28.695 -14.019   5.731  0.00  0.00     0.034 C 
ATOM     12  C   UNL d   1      29.741 -14.224   4.873  0.00  0.00     0.030 C 
ATOM     13  C   UNL d   1      29.637 -14.159   3.491  0.00  0.00     0.011 C 
BRANCH  11  14
ATOM     14  N   UNL d   1      28.904 -14.208   7.133  0.00  0.00    -0.327 N 
ATOM     15  C   UNL d   1      28.673 -13.219   8.111  0.00  0.00     0.225 C 
ATOM     16  O   UNL d   1      28.156 -12.116   7.920  0.00  0.00    -0.273 OA
ATOM     17  H   UNL d   1      29.253 -15.109   7.425  0.00  0.00     0.169 HD
BRANCH  15  18
ATOM     18  C   UNL d   1      29.071 -13.555   9.543  0.00  0.00     0.070 C 
ATOM     19  C   UNL d   1      28.295 -12.712  10.542  0.00  0.00     0.019 C 
ATOM     20  C   UNL d   1      28.771 -15.047   9.810  0.00  0.00     0.019 C 
ENDBRANCH  15  18
ENDBRANCH  11  14
ENDBRANCH   7   8
ENDBRANCH   4   7
BRANCH   1  21
ATOM     21  C   UNL d   1      25.885 -16.610  -0.614  0.00  0.00     0.042 C 
ATOM     22  C   UNL d   1      24.756 -16.040  -1.225  0.00  0.00     0.031 C 
ATOM     23  C   UNL d   1      23.493 -16.718  -1.255  0.00  0.00     0.020 C 
ATOM     24  C   UNL d   1      23.323 -17.978  -0.664  0.00  0.00     0.040 C 
ATOM     25  C   UNL d   1      24.446 -18.562  -0.152  0.00  0.00     0.026 C 
ATOM     26  C   UNL d   1      25.652 -17.868  -0.050  0.00  0.00    -0.034 C 
ATOM     27  C   UNL d   1      26.535 -18.574   0.883  0.00  0.00     0.050 C 
BRANCH  24  28
ATOM     28  C   UNL d   1      22.046 -18.736  -0.619  0.00  0.00     0.292 C 
ATOM     29  O   UNL d   1      21.604 -19.267  -1.647  0.00  0.00    -0.259 OA
BRANCH  28  30
ATOM     30  O   UNL d   1      21.485 -18.962   0.603  0.00  0.00    -0.323 OA
ATOM     31  C   UNL d   1      20.256 -19.713   0.766  0.00  0.00     0.213 C 
ENDBRANCH  28  30
ENDBRANCH  24  28
ENDBRANCH   1  21
TORSDOF 7
ENDMDL
MODEL 8
REMARK VINA RESULT:    -9.376      1.144      1.532
REMARK INTER + INTRA:         -12.458
REMARK INTER:                 -11.464
REMARK INTRA:                  -0.994
REMARK CONF_INDEPENDENT:        2.088
REMARK UNBOUND:                -0.994
REMARK  7 active torsions:
REMARK  status: ('A' for Active; 'I' for Inactive)
REMARK    1  A    between atoms: O_2  and  C_3 
REMARK    2  A    between atoms: C_3  and  C_5 
REMARK    3  A    between atoms: C_8  and  N_9 
REMARK       I    between atoms: N_9  and  C_10 
REMARK       I    between atoms: C_10  and  N_12 
REMARK    4  A    between atoms: N_12  and  C_13 
REMARK    5  A    between atoms: C_13  and  C_14 
REMARK    6  A    between atoms: C_17  and  N_18 
REMARK       I    between atoms: N_18  and  C_19 
REMARK    7  A    between atoms: C_19  and  C_21 
ROOT
ATOM      1  N   UNL d   1      28.542 -14.472   0.669  0.00  0.00    -0.308 N 
ATOM      2  C   UNL d   1      27.386 -14.438  -0.141  0.00  0.00     0.321 C 
ATOM      3  O   UNL d   1      26.353 -13.839   0.137  0.00  0.00    -0.247 OA
ATOM      4  N   UNL d   1      27.441 -15.300  -1.246  0.00  0.00    -0.339 N 
ATOM      5  H   UNL d   1      29.422 -14.405   0.179  0.00  0.00     0.170 HD
ATOM      6  H   UNL d   1      28.196 -15.080  -1.879  0.00  0.00     0.164 HD
ENDROOT
BRANCH   4   7
ATOM      7  C   UNL d   1      26.187 -15.782  -1.938  0.00  0.00     0.162 C 
BRANCH   7   8
ATOM      8  C   UNL d   1      25.181 -16.524  -1.060  0.00  0.00    -0.040 C 
ATOM      9  C   UNL d   1      25.447 -17.371   0.027  0.00  0.00     0.011 C 
ATOM     10  C   UNL d   1      24.413 -18.177   0.627  0.00  0.00     0.030 C 
ATOM     11  C   UNL d   1      23.131 -18.216   0.076  0.00  0.00     0.034 C 
ATOM     12  C   UNL d   1      22.903 -17.281  -0.895  0.00  0.00     0.030 C 
ATOM     13  C   UNL d   1      23.848 -16.364  -1.330  0.00  0.00     0.011 C 
BRANCH  11  14
ATOM     14  N   UNL d   1      22.048 -19.045   0.507  0.00  0.00    -0.327 N 
ATOM     15  C   UNL d   1      20.986 -19.460  -0.322  0.00  0.00     0.225 C 
ATOM     16  O   UNL d   1      20.900 -19.276  -1.539  0.00  0.00    -0.273 OA
ATOM     17  H   UNL d   1      22.051 -19.331   1.475  0.00  0.00     0.169 HD
BRANCH  15  18
ATOM     18  C   UNL d   1      19.853 -20.235   0.339  0.00  0.00     0.070 C 
ATOM     19  C   UNL d   1      19.572 -19.713   1.739  0.00  0.00     0.019 C 
ATOM     20  C   UNL d   1      18.575 -20.080  -0.516  0.00  0.00     0.019 C 
ENDBRANCH  15  18
ENDBRANCH  11  14
ENDBRANCH   7   8
ENDBRANCH   4   7
BRANCH   1  21
ATOM     21  C   UNL d   1      28.589 -14.247   2.108  0.00  0.00     0.042 C 
ATOM     22  C   UNL d   1      27.434 -13.931   2.843  0.00  0.00     0.031 C 
ATOM     23  C   UNL d   1      27.489 -13.647   4.248  0.00  0.00     0.020 C 
ATOM     24  C   UNL d   1      28.701 -13.661   4.951  0.00  0.00     0.040 C 
ATOM     25  C   UNL d   1      29.803 -14.057   4.249  0.00  0.00     0.026 C 
ATOM     26  C   UNL d   1      29.763 -14.251   2.868  0.00  0.00    -0.034 C 
ATOM     27  C   UNL d   1      31.131 -14.263   2.344  0.00  0.00     0.050 C 
BRANCH  24  28
ATOM     28  C   UNL d   1      28.855 -13.349   6.396  0.00  0.00     0.292 C 
ATOM     29  O   UNL d   1      28.389 -12.297   6.855  0.00  0.00    -0.259 OA
BRANCH  28  30
ATOM     30  O   UNL d   1      29.367 -14.320   7.204  0.00  0.00    -0.323 OA
ATOM     31  C   UNL d   1      30.490 -14.082   8.088  0.00  0.00     0.213 C 
ENDBRANCH  28  30
ENDBRANCH  24  28
ENDBRANCH   1  21
TORSDOF 7
ENDMDL
