MODEL 1
REMARK VINA RESULT:   -10.144      0.000      0.000
REMARK INTER + INTRA:         -14.447
REMARK INTER:                 -12.829
REMARK INTRA:                  -1.618
REMARK CONF_INDEPENDENT:        2.685
REMARK UNBOUND:                -1.618
REMARK  9 active torsions:
REMARK  status: ('A' for Active; 'I' for Inactive)
REMARK    1  A    between atoms: O_2  and  C_3 
REMARK    2  A    between atoms: C_6  and  N_7 
REMARK       I    between atoms: N_7  and  C_8 
REMARK       I    between atoms: C_8  and  N_10 
REMARK    3  A    between atoms: N_10  and  C_11 
REMARK    4  A    between atoms: C_14  and  N_15 
REMARK    5  A    between atoms: C_21  and  C_22 
REMARK       I    between atoms: C_22  and  N_24 
REMARK    6  A    between atoms: N_24  and  C_25 
REMARK    7  A    between atoms: C_25  and  C_26 
REMARK    8  A    between atoms: C_26  and  C_27 
REMARK    9  A    between atoms: C_34  and  O_35 
ROOT
ATOM      1  C   UNL d   1      28.841 -14.786   1.153  0.00  0.00     0.037 A 
ATOM      2  C   UNL d   1      28.995 -13.875   0.120  0.00  0.00     0.032 A 
ATOM      3  C   UNL d   1      28.148 -13.938  -1.010  0.00  0.00     0.032 A 
ATOM      4  C   UNL d   1      27.135 -14.917  -1.182  0.00  0.00     0.046 A 
ATOM      5  C   UNL d   1      26.983 -15.850  -0.128  0.00  0.00     0.060 A 
ATOM      6  C   UNL d   1      27.848 -15.771   1.002  0.00  0.00     0.049 A 
ENDROOT
BRANCH   1   7
ATOM      7  N   UNL d   1      29.675 -14.755   2.339  0.00  0.00    -0.309 N 
ATOM      8  C   UNL d   1      29.106 -14.250   3.505  0.00  0.00     0.325 C 
ATOM      9  N   UNL d   1      29.924 -14.154   4.634  0.00  0.00    -0.306 N 
ATOM     10  O   UNL d   1      27.906 -13.961   3.451  0.00  0.00    -0.247 OA
ATOM     11  H   UNL d   1      30.806 -14.650   4.628  0.00  0.00     0.171 HD
ATOM     12  H   UNL d   1      30.355 -15.496   2.444  0.00  0.00     0.170 HD
BRANCH   9  13
ATOM     13  C   UNL d   1      29.515 -13.599   5.922  0.00  0.00     0.070 C 
ATOM     14  C   UNL d   1      29.737 -14.319   7.118  0.00  0.00     0.035 C 
ATOM     15  C   UNL d   1      29.238 -13.851   8.364  0.00  0.00     0.039 C 
ATOM     16  C   UNL d   1      28.536 -12.650   8.447  0.00  0.00     0.070 C 
ATOM     17  C   UNL d   1      28.391 -11.898   7.297  0.00  0.00     0.075 C 
ATOM     18  C   UNL d   1      28.898 -12.336   6.071  0.00  0.00     0.097 C 
BRANCH  16  19
ATOM     19  O   UNL d   1      28.127 -12.193   9.671  0.00  0.00    -0.356 OA
ATOM     20  C   UNL d   1      27.820 -13.225  10.618  0.00  0.00     0.210 C 
ENDBRANCH  16  19
BRANCH  18  21
ATOM     21  O   UNL d   1      28.967 -11.459   5.036  0.00  0.00    -0.354 OA
ATOM     22  C   UNL d   1      27.827 -11.178   4.250  0.00  0.00     0.210 C 
ENDBRANCH  18  21
ENDBRANCH   9  13
ENDBRANCH   1   7
BRANCH   5  23
ATOM     23  C   UNL d   1      25.924 -16.925  -0.163  0.00  0.00     0.254 C 
ATOM     24  O   UNL d   1      26.031 -18.002   0.417  0.00  0.00    -0.268 OA
ATOM     25  N   UNL d   1      24.772 -16.709  -0.896  0.00  0.00    -0.356 N 
ATOM     26  H   UNL d   1      24.549 -15.831  -1.334  0.00  0.00     0.162 HD
BRANCH  25  27
ATOM     27  C   UNL d   1      23.821 -17.788  -0.957  0.00  0.00     0.127 C 
BRANCH  27  28
ATOM     28  C   UNL d   1      23.008 -17.941   0.312  0.00  0.00     0.058 C 
BRANCH  28  29
ATOM     29  C   UNL d   1      21.729 -18.718   0.115  0.00  0.00    -0.057 A 
ATOM     30  C   UNL d   1      21.168 -18.952  -1.151  0.00  0.00     0.007 A 
ATOM     31  C   UNL d   1      19.878 -19.456  -1.271  0.00  0.00     0.001 A 
ATOM     32  C   UNL d   1      19.179 -19.840  -0.133  0.00  0.00     0.000 A 
ATOM     33  C   UNL d   1      19.757 -19.692   1.126  0.00  0.00     0.001 A 
ATOM     34  C   UNL d   1      21.026 -19.129   1.252  0.00  0.00     0.007 A 
ENDBRANCH  28  29
ENDBRANCH  27  28
ENDBRANCH  25  27
ENDBRANCH   5  23
BRANCH   4  35
ATOM     35  N   UNL d   1      26.358 -14.826  -2.329  0.00  0.00    -0.380 N 
ATOM     36  C   UNL d   1      26.289 -15.894  -3.328  0.00  0.00     0.123 C 
ATOM     37  C   UNL d   1      26.504 -15.252  -4.706  0.00  0.00     0.020 C 
ATOM     38  C   UNL d   1      25.529 -14.094  -4.957  0.00  0.00     0.003 C 
ATOM     39  C   UNL d   1      25.519 -13.101  -3.792  0.00  0.00     0.020 C 
ATOM     40  C   UNL d   1      25.302 -13.822  -2.470  0.00  0.00     0.123 C 
ENDBRANCH   4  35
TORSDOF 9
ENDMDL
MODEL 2
REMARK VINA RESULT:    -9.355      6.409      9.759
REMARK INTER + INTRA:         -13.159
REMARK INTER:                 -12.039
REMARK INTRA:                  -1.119
REMARK CONF_INDEPENDENT:        2.685
REMARK UNBOUND:                -1.119
REMARK  9 active torsions:
REMARK  status: ('A' for Active; 'I' for Inactive)
REMARK    1  A    between atoms: O_2  and  C_3 
REMARK    2  A    between atoms: C_6  and  N_7 
REMARK       I    between atoms: N_7  and  C_8 
REMARK       I    between atoms: C_8  and  N_10 
REMARK    3  A    between atoms: N_10  and  C_11 
REMARK    4  A    between atoms: C_14  and  N_15 
REMARK    5  A    between atoms: C_21  and  C_22 
REMARK       I    between atoms: C_22  and  N_24 
REMARK    6  A    between atoms: N_24  and  C_25 
REMARK    7  A    between atoms: C_25  and  C_26 
REMARK    8  A    between atoms: C_26  and  C_27 
REMARK    9  A    between atoms: C_34  and  O_35 
ROOT
ATOM      1  C   UNL d   1      28.679 -13.834  -6.494  0.00  0.00     0.037 A 
ATOM      2  C   UNL d   1      28.913 -12.473  -6.609  0.00  0.00     0.032 A 
ATOM      3  C   UNL d   1      28.073 -11.552  -5.940  0.00  0.00     0.032 A 
ATOM      4  C   UNL d   1      26.955 -11.933  -5.154  0.00  0.00     0.046 A 
ATOM      5  C   UNL d   1      26.715 -13.325  -5.042  0.00  0.00     0.060 A 
ATOM      6  C   UNL d   1      27.571 -14.236  -5.726  0.00  0.00     0.049 A 
ENDROOT
BRANCH   1   7
ATOM      7  N   UNL d   1      29.519 -14.818  -7.149  0.00  0.00    -0.309 N 
ATOM      8  C   UNL d   1      29.654 -16.056  -6.525  0.00  0.00     0.325 C 
ATOM      9  N   UNL d   1      30.516 -16.985  -7.116  0.00  0.00    -0.306 N 
ATOM     10  O   UNL d   1      28.971 -16.240  -5.514  0.00  0.00    -0.247 OA
ATOM     11  H   UNL d   1      30.821 -16.817  -8.065  0.00  0.00     0.171 HD
ATOM     12  H   UNL d   1      29.535 -14.810  -8.160  0.00  0.00     0.170 HD
BRANCH   9  13
ATOM     13  C   UNL d   1      30.824 -18.306  -6.573  0.00  0.00     0.070 C 
ATOM     14  C   UNL d   1      30.803 -18.531  -5.177  0.00  0.00     0.035 C 
ATOM     15  C   UNL d   1      31.217 -19.773  -4.624  0.00  0.00     0.039 C 
ATOM     16  C   UNL d   1      31.633 -20.818  -5.447  0.00  0.00     0.070 C 
ATOM     17  C   UNL d   1      31.574 -20.635  -6.815  0.00  0.00     0.075 C 
ATOM     18  C   UNL d   1      31.145 -19.427  -7.371  0.00  0.00     0.097 C 
BRANCH  16  19
ATOM     19  O   UNL d   1      31.963 -22.024  -4.888  0.00  0.00    -0.356 OA
ATOM     20  C   UNL d   1      31.048 -22.482  -3.884  0.00  0.00     0.210 C 
ENDBRANCH  16  19
BRANCH  18  21
ATOM     21  O   UNL d   1      30.852 -19.379  -8.696  0.00  0.00    -0.354 OA
ATOM     22  C   UNL d   1      31.592 -20.144  -9.627  0.00  0.00     0.210 C 
ENDBRANCH  18  21
ENDBRANCH   9  13
ENDBRANCH   1   7
BRANCH   5  23
ATOM     23  C   UNL d   1      25.580 -13.871  -4.212  0.00  0.00     0.254 C 
ATOM     24  O   UNL d   1      24.395 -13.690  -4.479  0.00  0.00    -0.268 OA
ATOM     25  N   UNL d   1      25.870 -14.604  -3.076  0.00  0.00    -0.356 N 
ATOM     26  H   UNL d   1      26.802 -14.882  -2.818  0.00  0.00     0.162 HD
BRANCH  25  27
ATOM     27  C   UNL d   1      24.757 -15.047  -2.277  0.00  0.00     0.127 C 
BRANCH  27  28
ATOM     28  C   UNL d   1      25.163 -15.967  -1.144  0.00  0.00     0.058 C 
BRANCH  28  29
ATOM     29  C   UNL d   1      24.123 -17.012  -0.819  0.00  0.00    -0.057 A 
ATOM     30  C   UNL d   1      24.449 -18.352  -0.551  0.00  0.00     0.007 A 
ATOM     31  C   UNL d   1      23.456 -19.324  -0.497  0.00  0.00     0.001 A 
ATOM     32  C   UNL d   1      22.120 -18.952  -0.595  0.00  0.00     0.000 A 
ATOM     33  C   UNL d   1      21.779 -17.613  -0.776  0.00  0.00     0.001 A 
ATOM     34  C   UNL d   1      22.776 -16.646  -0.893  0.00  0.00     0.007 A 
ENDBRANCH  28  29
ENDBRANCH  27  28
ENDBRANCH  25  27
ENDBRANCH   5  23
BRANCH   4  35
ATOM     35  N   UNL d   1      26.249 -10.916  -4.527  0.00  0.00    -0.380 N 
ATOM     36  C   UNL d   1      25.462  -9.924  -5.264  0.00  0.00     0.123 C 
ATOM     37  C   UNL d   1      25.852  -8.538  -4.731  0.00  0.00     0.020 C 
ATOM     38  C   UNL d   1      25.704  -8.449  -3.206  0.00  0.00     0.003 C 
ATOM     39  C   UNL d   1      26.402  -9.614  -2.501  0.00  0.00     0.020 C 
ATOM     40  C   UNL d   1      25.960 -10.945  -3.093  0.00  0.00     0.123 C 
ENDBRANCH   4  35
TORSDOF 9
ENDMDL
MODEL 3
REMARK VINA RESULT:    -9.342      6.399     10.669
REMARK INTER + INTRA:         -13.826
REMARK INTER:                 -12.027
REMARK INTRA:                  -1.800
REMARK CONF_INDEPENDENT:        2.685
REMARK UNBOUND:                -1.800
REMARK  9 active torsions:
REMARK  status: ('A' for Active; 'I' for Inactive)
REMARK    1  A    between atoms: O_2  and  C_3 
REMARK    2  A    between atoms: C_6  and  N_7 
REMARK       I    between atoms: N_7  and  C_8 
REMARK       I    between atoms: C_8  and  N_10 
REMARK    3  A    between atoms: N_10  and  C_11 
REMARK    4  A    between atoms: C_14  and  N_15 
REMARK    5  A    between atoms: C_21  and  C_22 
REMARK       I    between atoms: C_22  and  N_24 
REMARK    6  A    between atoms: N_24  and  C_25 
REMARK    7  A    between atoms: C_25  and  C_26 
REMARK    8  A    between atoms: C_26  and  C_27 
REMARK    9  A    between atoms: C_34  and  O_35 
ROOT
ATOM      1  C   UNL d   1      25.996  -9.965  -4.202  0.00  0.00     0.037 A 
ATOM      2  C   UNL d   1      27.283  -9.859  -4.705  0.00  0.00     0.032 A 
ATOM      3  C   UNL d   1      28.061 -11.022  -4.910  0.00  0.00     0.032 A 
ATOM      4  C   UNL d   1      27.614 -12.333  -4.600  0.00  0.00     0.046 A 
ATOM      5  C   UNL d   1      26.301 -12.439  -4.080  0.00  0.00     0.060 A 
ATOM      6  C   UNL d   1      25.534 -11.255  -3.880  0.00  0.00     0.049 A 
ENDROOT
BRANCH   1   7
ATOM      7  N   UNL d   1      25.154  -8.805  -3.987  0.00  0.00    -0.309 N 
ATOM      8  C   UNL d   1      24.296  -8.441  -5.021  0.00  0.00     0.325 C 
ATOM      9  N   UNL d   1      23.531  -7.284  -4.847  0.00  0.00    -0.306 N 
ATOM     10  O   UNL d   1      24.258  -9.196  -5.997  0.00  0.00    -0.247 OA
ATOM     11  H   UNL d   1      23.460  -6.893  -3.917  0.00  0.00     0.171 HD
ATOM     12  H   UNL d   1      24.832  -8.638  -3.043  0.00  0.00     0.170 HD
BRANCH   9  13
ATOM     13  C   UNL d   1      22.623  -6.721  -5.845  0.00  0.00     0.070 C 
ATOM     14  C   UNL d   1      21.404  -6.123  -5.450  0.00  0.00     0.035 C 
ATOM     15  C   UNL d   1      20.455  -5.681  -6.411  0.00  0.00     0.039 C 
ATOM     16  C   UNL d   1      20.711  -5.799  -7.776  0.00  0.00     0.070 C 
ATOM     17  C   UNL d   1      21.937  -6.301  -8.168  0.00  0.00     0.075 C 
ATOM     18  C   UNL d   1      22.888  -6.717  -7.233  0.00  0.00     0.097 C 
BRANCH  16  19
ATOM     19  O   UNL d   1      19.807  -5.302  -8.676  0.00  0.00    -0.356 OA
ATOM     20  C   UNL d   1      18.847  -6.259  -9.143  0.00  0.00     0.210 C 
ENDBRANCH  16  19
BRANCH  18  21
ATOM     21  O   UNL d   1      24.160  -6.951  -7.647  0.00  0.00    -0.354 OA
ATOM     22  C   UNL d   1      24.634  -6.413  -8.865  0.00  0.00     0.210 C 
ENDBRANCH  18  21
ENDBRANCH   9  13
ENDBRANCH   1   7
BRANCH   5  23
ATOM     23  C   UNL d   1      25.687 -13.774  -3.738  0.00  0.00     0.254 C 
ATOM     24  O   UNL d   1      24.646 -14.190  -4.240  0.00  0.00    -0.268 OA
ATOM     25  N   UNL d   1      26.306 -14.579  -2.801  0.00  0.00    -0.356 N 
ATOM     26  H   UNL d   1      27.205 -14.371  -2.398  0.00  0.00     0.162 HD
BRANCH  25  27
ATOM     27  C   UNL d   1      25.649 -15.812  -2.456  0.00  0.00     0.127 C 
BRANCH  27  28
ATOM     28  C   UNL d   1      25.157 -15.849  -1.024  0.00  0.00     0.058 C 
BRANCH  28  29
ATOM     29  C   UNL d   1      24.141 -16.934  -0.767  0.00  0.00    -0.057 A 
ATOM     30  C   UNL d   1      24.500 -18.269  -0.517  0.00  0.00     0.007 A 
ATOM     31  C   UNL d   1      23.538 -19.274  -0.527  0.00  0.00     0.001 A 
ATOM     32  C   UNL d   1      22.196 -18.943  -0.671  0.00  0.00     0.000 A 
ATOM     33  C   UNL d   1      21.818 -17.612  -0.834  0.00  0.00     0.001 A 
ATOM     34  C   UNL d   1      22.786 -16.611  -0.888  0.00  0.00     0.007 A 
ENDBRANCH  28  29
ENDBRANCH  27  28
ENDBRANCH  25  27
ENDBRANCH   5  23
BRANCH   4  35
ATOM     35  N   UNL d   1      28.478 -13.379  -4.894  0.00  0.00    -0.380 N 
ATOM     36  C   UNL d   1      28.914 -13.689  -6.258  0.00  0.00     0.123 C 
ATOM     37  C   UNL d   1      28.717 -15.197  -6.472  0.00  0.00     0.020 C 
ATOM     38  C   UNL d   1      29.417 -16.025  -5.386  0.00  0.00     0.003 C 
ATOM     39  C   UNL d   1      29.056 -15.536  -3.982  0.00  0.00     0.020 C 
ATOM     40  C   UNL d   1      29.279 -14.036  -3.860  0.00  0.00     0.123 C 
ENDBRANCH   4  35
TORSDOF 9
ENDMDL
MODEL 4
REMARK VINA RESULT:    -9.156      5.407     10.274
REMARK INTER + INTRA:         -13.657
REMARK INTER:                 -11.840
REMARK INTRA:                  -1.817
REMARK CONF_INDEPENDENT:        2.685
REMARK UNBOUND:                -1.817
REMARK  9 active torsions:
REMARK  status: ('A' for Active; 'I' for Inactive)
REMARK    1  A    between atoms: O_2  and  C_3 
REMARK    2  A    between atoms: C_6  and  N_7 
REMARK       I    between atoms: N_7  and  C_8 
REMARK       I    between atoms: C_8  and  N_10 
REMARK    3  A    between atoms: N_10  and  C_11 
REMARK    4  A    between atoms: C_14  and  N_15 
REMARK    5  A    between atoms: C_21  and  C_22 
REMARK       I    between atoms: C_22  and  N_24 
REMARK    6  A    between atoms: N_24  and  C_25 
REMARK    7  A    between atoms: C_25  and  C_26 
REMARK    8  A    between atoms: C_26  and  C_27 
REMARK    9  A    between atoms: C_34  and  O_35 
ROOT
ATOM      1  C   UNL d   1      26.701 -12.888  -3.649  0.00  0.00     0.037 A 
ATOM      2  C   UNL d   1      27.342 -13.418  -4.757  0.00  0.00     0.032 A 
ATOM      3  C   UNL d   1      27.460 -12.652  -5.940  0.00  0.00     0.032 A 
ATOM      4  C   UNL d   1      26.927 -11.345  -6.089  0.00  0.00     0.046 A 
ATOM      5  C   UNL d   1      26.268 -10.807  -4.956  0.00  0.00     0.060 A 
ATOM      6  C   UNL d   1      26.158 -11.595  -3.775  0.00  0.00     0.049 A 
ENDROOT
BRANCH   1   7
ATOM      7  N   UNL d   1      26.566 -13.627  -2.410  0.00  0.00    -0.309 N 
ATOM      8  C   UNL d   1      25.657 -14.683  -2.394  0.00  0.00     0.325 C 
ATOM      9  N   UNL d   1      25.472 -15.357  -1.183  0.00  0.00    -0.306 N 
ATOM     10  O   UNL d   1      25.114 -14.957  -3.468  0.00  0.00    -0.247 OA
ATOM     11  H   UNL d   1      26.148 -15.208  -0.446  0.00  0.00     0.171 HD
ATOM     12  H   UNL d   1      27.395 -13.728  -1.840  0.00  0.00     0.170 HD
BRANCH   9  13
ATOM     13  C   UNL d   1      24.522 -16.446  -0.967  0.00  0.00     0.070 C 
ATOM     14  C   UNL d   1      23.143 -16.255  -1.212  0.00  0.00     0.035 C 
ATOM     15  C   UNL d   1      22.191 -17.261  -0.893  0.00  0.00     0.039 C 
ATOM     16  C   UNL d   1      22.594 -18.480  -0.350  0.00  0.00     0.070 C 
ATOM     17  C   UNL d   1      23.948 -18.706  -0.189  0.00  0.00     0.075 C 
ATOM     18  C   UNL d   1      24.894 -17.734  -0.522  0.00  0.00     0.097 C 
BRANCH  16  19
ATOM     19  O   UNL d   1      21.661 -19.454  -0.115  0.00  0.00    -0.356 OA
ATOM     20  C   UNL d   1      20.461 -19.324  -0.888  0.00  0.00     0.210 C 
ENDBRANCH  16  19
BRANCH  18  21
ATOM     21  O   UNL d   1      26.203 -18.089  -0.598  0.00  0.00    -0.354 OA
ATOM     22  C   UNL d   1      27.120 -17.684   0.399  0.00  0.00     0.210 C 
ENDBRANCH  18  21
ENDBRANCH   9  13
ENDBRANCH   1   7
BRANCH   5  23
ATOM     23  C   UNL d   1      25.684  -9.415  -4.964  0.00  0.00     0.254 C 
ATOM     24  O   UNL d   1      26.225  -8.450  -4.431  0.00  0.00    -0.268 OA
ATOM     25  N   UNL d   1      24.468  -9.200  -5.584  0.00  0.00    -0.356 N 
ATOM     26  H   UNL d   1      23.988  -9.901  -6.122  0.00  0.00     0.162 HD
BRANCH  25  27
ATOM     27  C   UNL d   1      23.917  -7.872  -5.507  0.00  0.00     0.127 C 
BRANCH  27  28
ATOM     28  C   UNL d   1      23.899  -7.153  -6.841  0.00  0.00     0.058 C 
BRANCH  28  29
ATOM     29  C   UNL d   1      22.537  -6.622  -7.217  0.00  0.00    -0.057 A 
ATOM     30  C   UNL d   1      21.596  -6.199  -6.264  0.00  0.00     0.007 A 
ATOM     31  C   UNL d   1      20.279  -5.948  -6.634  0.00  0.00     0.001 A 
ATOM     32  C   UNL d   1      19.916  -6.006  -7.974  0.00  0.00     0.000 A 
ATOM     33  C   UNL d   1      20.861  -6.343  -8.941  0.00  0.00     0.001 A 
ATOM     34  C   UNL d   1      22.166  -6.656  -8.564  0.00  0.00     0.007 A 
ENDBRANCH  28  29
ENDBRANCH  27  28
ENDBRANCH  25  27
ENDBRANCH   5  23
BRANCH   4  35
ATOM     35  N   UNL d   1      27.158 -10.704  -7.298  0.00  0.00    -0.380 N 
ATOM     36  C   UNL d   1      27.513  -9.285  -7.389  0.00  0.00     0.123 C 
ATOM     37  C   UNL d   1      26.596  -8.648  -8.442  0.00  0.00     0.020 C 
ATOM     38  C   UNL d   1      26.654  -9.396  -9.781  0.00  0.00     0.003 C 
ATOM     39  C   UNL d   1      26.450 -10.901  -9.596  0.00  0.00     0.020 C 
ATOM     40  C   UNL d   1      27.396 -11.448  -8.536  0.00  0.00     0.123 C 
ENDBRANCH   4  35
TORSDOF 9
ENDMDL
MODEL 5
REMARK VINA RESULT:    -9.075      5.536      9.377
REMARK INTER + INTRA:         -13.782
REMARK INTER:                 -11.760
REMARK INTRA:                  -2.023
REMARK CONF_INDEPENDENT:        2.685
REMARK UNBOUND:                -2.023
REMARK  9 active torsions:
REMARK  status: ('A' for Active; 'I' for Inactive)
REMARK    1  A    between atoms: O_2  and  C_3 
REMARK    2  A    between atoms: C_6  and  N_7 
REMARK       I    between atoms: N_7  and  C_8 
REMARK       I    between atoms: C_8  and  N_10 
REMARK    3  A    between atoms: N_10  and  C_11 
REMARK    4  A    between atoms: C_14  and  N_15 
REMARK    5  A    between atoms: C_21  and  C_22 
REMARK       I    between atoms: C_22  and  N_24 
REMARK    6  A    between atoms: N_24  and  C_25 
REMARK    7  A    between atoms: C_25  and  C_26 
REMARK    8  A    between atoms: C_26  and  C_27 
REMARK    9  A    between atoms: C_34  and  O_35 
ROOT
ATOM      1  C   UNL d   1      26.681 -13.327  -3.261  0.00  0.00     0.037 A 
ATOM      2  C   UNL d   1      26.224 -12.070  -3.622  0.00  0.00     0.032 A 
ATOM      3  C   UNL d   1      26.598 -11.511  -4.867  0.00  0.00     0.032 A 
ATOM      4  C   UNL d   1      27.459 -12.155  -5.792  0.00  0.00     0.046 A 
ATOM      5  C   UNL d   1      27.930 -13.438  -5.418  0.00  0.00     0.060 A 
ATOM      6  C   UNL d   1      27.543 -13.982  -4.160  0.00  0.00     0.049 A 
ENDROOT
BRANCH   1   7
ATOM      7  N   UNL d   1      26.315 -13.948  -2.003  0.00  0.00    -0.309 N 
ATOM      8  C   UNL d   1      25.458 -15.043  -2.060  0.00  0.00     0.325 C 
ATOM      9  N   UNL d   1      25.047 -15.605  -0.847  0.00  0.00    -0.306 N 
ATOM     10  O   UNL d   1      25.157 -15.450  -3.187  0.00  0.00    -0.247 OA
ATOM     11  H   UNL d   1      25.551 -15.350  -0.008  0.00  0.00     0.171 HD
ATOM     12  H   UNL d   1      27.012 -13.949  -1.270  0.00  0.00     0.170 HD
BRANCH   9  13
ATOM     13  C   UNL d   1      24.108 -16.716  -0.713  0.00  0.00     0.070 C 
ATOM     14  C   UNL d   1      22.722 -16.512  -0.899  0.00  0.00     0.035 C 
ATOM     15  C   UNL d   1      21.783 -17.551  -0.654  0.00  0.00     0.039 C 
ATOM     16  C   UNL d   1      22.207 -18.815  -0.247  0.00  0.00     0.070 C 
ATOM     17  C   UNL d   1      23.565 -19.047  -0.148  0.00  0.00     0.075 C 
ATOM     18  C   UNL d   1      24.498 -18.040  -0.410  0.00  0.00     0.097 C 
BRANCH  16  19
ATOM     19  O   UNL d   1      21.284 -19.814  -0.084  0.00  0.00    -0.356 OA
ATOM     20  C   UNL d   1      20.036 -19.583  -0.751  0.00  0.00     0.210 C 
ENDBRANCH  16  19
BRANCH  18  21
ATOM     21  O   UNL d   1      25.806 -18.377  -0.558  0.00  0.00    -0.354 OA
ATOM     22  C   UNL d   1      26.760 -18.016   0.420  0.00  0.00     0.210 C 
ENDBRANCH  18  21
ENDBRANCH   9  13
ENDBRANCH   1   7
BRANCH   5  23
ATOM     23  C   UNL d   1      28.826 -14.250  -6.321  0.00  0.00     0.254 C 
ATOM     24  O   UNL d   1      28.463 -15.272  -6.897  0.00  0.00    -0.268 OA
ATOM     25  N   UNL d   1      30.134 -13.845  -6.510  0.00  0.00    -0.356 N 
ATOM     26  H   UNL d   1      30.504 -12.979  -6.157  0.00  0.00     0.162 HD
BRANCH  25  27
ATOM     27  C   UNL d   1      30.972 -14.687  -7.325  0.00  0.00     0.127 C 
BRANCH  27  28
ATOM     28  C   UNL d   1      31.805 -15.663  -6.519  0.00  0.00     0.058 C 
BRANCH  28  29
ATOM     29  C   UNL d   1      31.217 -17.051  -6.466  0.00  0.00    -0.057 A 
ATOM     30  C   UNL d   1      30.825 -17.667  -5.265  0.00  0.00     0.007 A 
ATOM     31  C   UNL d   1      30.519 -19.023  -5.233  0.00  0.00     0.001 A 
ATOM     32  C   UNL d   1      30.489 -19.752  -6.415  0.00  0.00     0.000 A 
ATOM     33  C   UNL d   1      30.793 -19.133  -7.626  0.00  0.00     0.001 A 
ATOM     34  C   UNL d   1      31.161 -17.789  -7.652  0.00  0.00     0.007 A 
ENDBRANCH  28  29
ENDBRANCH  27  28
ENDBRANCH  25  27
ENDBRANCH   5  23
BRANCH   4  35
ATOM     35  N   UNL d   1      27.703 -11.497  -6.990  0.00  0.00    -0.380 N 
ATOM     36  C   UNL d   1      26.631 -10.979  -7.843  0.00  0.00     0.123 C 
ATOM     37  C   UNL d   1      26.911 -11.456  -9.275  0.00  0.00     0.020 C 
ATOM     38  C   UNL d   1      28.323 -11.074  -9.740  0.00  0.00     0.003 C 
ATOM     39  C   UNL d   1      29.385 -11.487  -8.719  0.00  0.00     0.020 C 
ATOM     40  C   UNL d   1      29.027 -10.976  -7.331  0.00  0.00     0.123 C 
ENDBRANCH   4  35
TORSDOF 9
ENDMDL
MODEL 6
REMARK VINA RESULT:    -9.066      2.500     11.065
REMARK INTER + INTRA:         -13.641
REMARK INTER:                 -11.750
REMARK INTRA:                  -1.891
REMARK CONF_INDEPENDENT:        2.685
REMARK UNBOUND:                -1.891
REMARK  9 active torsions:
REMARK  status: ('A' for Active; 'I' for Inactive)
REMARK    1  A    between atoms: O_2  and  C_3 
REMARK    2  A    between atoms: C_6  and  N_7 
REMARK       I    between atoms: N_7  and  C_8 
REMARK       I    between atoms: C_8  and  N_10 
REMARK    3  A    between atoms: N_10  and  C_11 
REMARK    4  A    between atoms: C_14  and  N_15 
REMARK    5  A    between atoms: C_21  and  C_22 
REMARK       I    between atoms: C_22  and  N_24 
REMARK    6  A    between atoms: N_24  and  C_25 
REMARK    7  A    between atoms: C_25  and  C_26 
REMARK    8  A    between atoms: C_26  and  C_27 
REMARK    9  A    between atoms: C_34  and  O_35 
ROOT
ATOM      1  C   UNL d   1      28.548 -13.862   4.430  0.00  0.00     0.037 A 
ATOM      2  C   UNL d   1      27.759 -12.723   4.451  0.00  0.00     0.032 A 
ATOM      3  C   UNL d   1      27.946 -11.751   5.461  0.00  0.00     0.032 A 
ATOM      4  C   UNL d   1      28.898 -11.874   6.506  0.00  0.00     0.046 A 
ATOM      5  C   UNL d   1      29.700 -13.041   6.485  0.00  0.00     0.060 A 
ATOM      6  C   UNL d   1      29.495 -14.009   5.460  0.00  0.00     0.049 A 
ENDROOT
BRANCH   1   7
ATOM      7  N   UNL d   1      28.404 -14.881   3.408  0.00  0.00    -0.309 N 
ATOM      8  C   UNL d   1      27.781 -14.508   2.220  0.00  0.00     0.325 C 
ATOM      9  N   UNL d   1      27.577 -15.502   1.259  0.00  0.00    -0.306 N 
ATOM     10  O   UNL d   1      27.489 -13.314   2.103  0.00  0.00    -0.247 OA
ATOM     11  H   UNL d   1      28.078 -16.375   1.361  0.00  0.00     0.171 HD
ATOM     12  H   UNL d   1      29.136 -15.575   3.343  0.00  0.00     0.170 HD
BRANCH   9  13
ATOM     13  C   UNL d   1      26.892 -15.307  -0.017  0.00  0.00     0.070 C 
ATOM     14  C   UNL d   1      27.218 -14.211  -0.848  0.00  0.00     0.035 C 
ATOM     15  C   UNL d   1      26.480 -13.937  -2.031  0.00  0.00     0.039 C 
ATOM     16  C   UNL d   1      25.426 -14.760  -2.422  0.00  0.00     0.070 C 
ATOM     17  C   UNL d   1      25.158 -15.882  -1.662  0.00  0.00     0.075 C 
ATOM     18  C   UNL d   1      25.892 -16.175  -0.510  0.00  0.00     0.097 C 
BRANCH  16  19
ATOM     19  O   UNL d   1      24.778 -14.508  -3.602  0.00  0.00    -0.356 OA
ATOM     20  C   UNL d   1      25.191 -13.304  -4.261  0.00  0.00     0.210 C 
ENDBRANCH  16  19
BRANCH  18  21
ATOM     21  O   UNL d   1      25.774 -17.407   0.050  0.00  0.00    -0.354 OA
ATOM     22  C   UNL d   1      24.583 -18.155  -0.093  0.00  0.00     0.210 C 
ENDBRANCH  18  21
ENDBRANCH   9  13
ENDBRANCH   1   7
BRANCH   5  23
ATOM     23  C   UNL d   1      30.774 -13.286   7.517  0.00  0.00     0.254 C 
ATOM     24  O   UNL d   1      31.652 -12.470   7.788  0.00  0.00    -0.268 OA
ATOM     25  N   UNL d   1      30.798 -14.492   8.191  0.00  0.00    -0.356 N 
ATOM     26  H   UNL d   1      30.077 -15.189   8.106  0.00  0.00     0.162 HD
BRANCH  25  27
ATOM     27  C   UNL d   1      31.879 -14.708   9.116  0.00  0.00     0.127 C 
BRANCH  27  28
ATOM     28  C   UNL d   1      31.413 -15.111  10.499  0.00  0.00     0.058 C 
BRANCH  28  29
ATOM     29  C   UNL d   1      30.113 -14.462  10.906  0.00  0.00    -0.057 A 
ATOM     30  C   UNL d   1      28.873 -14.831  10.357  0.00  0.00     0.007 A 
ATOM     31  C   UNL d   1      27.743 -14.052  10.577  0.00  0.00     0.001 A 
ATOM     32  C   UNL d   1      27.811 -12.964  11.439  0.00  0.00     0.000 A 
ATOM     33  C   UNL d   1      29.016 -12.637  12.057  0.00  0.00     0.001 A 
ATOM     34  C   UNL d   1      30.165 -13.379  11.789  0.00  0.00     0.007 A 
ENDBRANCH  28  29
ENDBRANCH  27  28
ENDBRANCH  25  27
ENDBRANCH   5  23
BRANCH   4  35
ATOM     35  N   UNL d   1      28.991 -10.818   7.401  0.00  0.00    -0.380 N 
ATOM     36  C   UNL d   1      28.910  -9.416   6.986  0.00  0.00     0.123 C 
ATOM     37  C   UNL d   1      30.090  -8.674   7.629  0.00  0.00     0.020 C 
ATOM     38  C   UNL d   1      30.131  -8.876   9.150  0.00  0.00     0.003 C 
ATOM     39  C   UNL d   1      30.035 -10.357   9.526  0.00  0.00     0.020 C 
ATOM     40  C   UNL d   1      28.842 -11.010   8.844  0.00  0.00     0.123 C 
ENDBRANCH   4  35
TORSDOF 9
ENDMDL
MODEL 7
REMARK VINA RESULT:    -8.724      1.572      2.173
REMARK INTER + INTRA:         -13.538
REMARK INTER:                 -11.408
REMARK INTRA:                  -2.130
REMARK CONF_INDEPENDENT:        2.685
REMARK UNBOUND:                -2.130
REMARK  9 active torsions:
REMARK  status: ('A' for Active; 'I' for Inactive)
REMARK    1  A    between atoms: O_2  and  C_3 
REMARK    2  A    between atoms: C_6  and  N_7 
REMARK       I    between atoms: N_7  and  C_8 
REMARK       I    between atoms: C_8  and  N_10 
REMARK    3  A    between atoms: N_10  and  C_11 
REMARK    4  A    between atoms: C_14  and  N_15 
REMARK    5  A    between atoms: C_21  and  C_22 
REMARK       I    between atoms: C_22  and  N_24 
REMARK    6  A    between atoms: N_24  and  C_25 
REMARK    7  A    between atoms: C_25  and  C_26 
REMARK    8  A    between atoms: C_26  and  C_27 
REMARK    9  A    between atoms: C_34  and  O_35 
ROOT
ATOM      1  C   UNL d   1      29.583 -13.400   1.408  0.00  0.00     0.037 A 
ATOM      2  C   UNL d   1      29.484 -12.297   0.576  0.00  0.00     0.032 A 
ATOM      3  C   UNL d   1      28.719 -12.374  -0.612  0.00  0.00     0.032 A 
ATOM      4  C   UNL d   1      28.046 -13.547  -1.041  0.00  0.00     0.046 A 
ATOM      5  C   UNL d   1      28.154 -14.675  -0.191  0.00  0.00     0.060 A 
ATOM      6  C   UNL d   1      28.930 -14.577   1.000  0.00  0.00     0.049 A 
ENDROOT
BRANCH   1   7
ATOM      7  N   UNL d   1      30.343 -13.368   2.642  0.00  0.00    -0.309 N 
ATOM      8  C   UNL d   1      29.622 -13.290   3.832  0.00  0.00     0.325 C 
ATOM      9  N   UNL d   1      30.350 -13.190   5.021  0.00  0.00    -0.306 N 
ATOM     10  O   UNL d   1      28.393 -13.350   3.736  0.00  0.00    -0.247 OA
ATOM     11  H   UNL d   1      31.338 -13.401   4.996  0.00  0.00     0.171 HD
ATOM     12  H   UNL d   1      31.209 -13.889   2.664  0.00  0.00     0.170 HD
BRANCH   9  13
ATOM     13  C   UNL d   1      29.765 -13.042   6.352  0.00  0.00     0.070 C 
ATOM     14  C   UNL d   1      29.885 -14.076   7.309  0.00  0.00     0.035 C 
ATOM     15  C   UNL d   1      29.221 -14.001   8.563  0.00  0.00     0.039 C 
ATOM     16  C   UNL d   1      28.450 -12.890   8.898  0.00  0.00     0.070 C 
ATOM     17  C   UNL d   1      28.399 -11.838   8.004  0.00  0.00     0.075 C 
ATOM     18  C   UNL d   1      29.067 -11.889   6.779  0.00  0.00     0.097 C 
BRANCH  16  19
ATOM     19  O   UNL d   1      27.878 -12.818  10.140  0.00  0.00    -0.356 OA
ATOM     20  C   UNL d   1      28.227 -13.896  11.018  0.00  0.00     0.210 C 
ENDBRANCH  16  19
BRANCH  18  21
ATOM     21  O   UNL d   1      29.208 -10.747   6.057  0.00  0.00    -0.354 OA
ATOM     22  C   UNL d   1      28.275 -10.409   5.051  0.00  0.00     0.210 C 
ENDBRANCH  18  21
ENDBRANCH   9  13
ENDBRANCH   1   7
BRANCH   5  23
ATOM     23  C   UNL d   1      27.461 -15.978  -0.508  0.00  0.00     0.254 C 
ATOM     24  O   UNL d   1      26.614 -16.099  -1.390  0.00  0.00    -0.268 OA
ATOM     25  N   UNL d   1      27.772 -17.102   0.233  0.00  0.00    -0.356 N 
ATOM     26  H   UNL d   1      28.511 -17.130   0.916  0.00  0.00     0.162 HD
BRANCH  25  27
ATOM     27  C   UNL d   1      27.039 -18.306  -0.059  0.00  0.00     0.127 C 
BRANCH  27  28
ATOM     28  C   UNL d   1      25.808 -18.482   0.808  0.00  0.00     0.058 C 
BRANCH  28  29
ATOM     29  C   UNL d   1      24.520 -18.152   0.095  0.00  0.00    -0.057 A 
ATOM     30  C   UNL d   1      24.109 -16.834  -0.162  0.00  0.00     0.007 A 
ATOM     31  C   UNL d   1      22.816 -16.569  -0.599  0.00  0.00     0.001 A 
ATOM     32  C   UNL d   1      21.958 -17.621  -0.893  0.00  0.00     0.000 A 
ATOM     33  C   UNL d   1      22.382 -18.938  -0.723  0.00  0.00     0.001 A 
ATOM     34  C   UNL d   1      23.656 -19.203  -0.226  0.00  0.00     0.007 A 
ENDBRANCH  28  29
ENDBRANCH  27  28
ENDBRANCH  25  27
ENDBRANCH   5  23
BRANCH   4  35
ATOM     35  N   UNL d   1      27.303 -13.456  -2.210  0.00  0.00    -0.380 N 
ATOM     36  C   UNL d   1      25.898 -13.042  -2.227  0.00  0.00     0.123 C 
ATOM     37  C   UNL d   1      25.127 -14.063  -3.074  0.00  0.00     0.020 C 
ATOM     38  C   UNL d   1      25.747 -14.237  -4.468  0.00  0.00     0.003 C 
ATOM     39  C   UNL d   1      27.253 -14.493  -4.388  0.00  0.00     0.020 C 
ATOM     40  C   UNL d   1      27.935 -13.437  -3.530  0.00  0.00     0.123 C 
ENDBRANCH   4  35
TORSDOF 9
ENDMDL
MODEL 8
REMARK VINA RESULT:    -8.654      1.839      2.705
REMARK INTER + INTRA:         -13.258
REMARK INTER:                 -11.338
REMARK INTRA:                  -1.919
REMARK CONF_INDEPENDENT:        2.685
REMARK UNBOUND:                -1.919
REMARK  9 active torsions:
REMARK  status: ('A' for Active; 'I' for Inactive)
REMARK    1  A    between atoms: O_2  and  C_3 
REMARK    2  A    between atoms: C_6  and  N_7 
REMARK       I    between atoms: N_7  and  C_8 
REMARK       I    between atoms: C_8  and  N_10 
REMARK    3  A    between atoms: N_10  and  C_11 
REMARK    4  A    between atoms: C_14  and  N_15 
REMARK    5  A    between atoms: C_21  and  C_22 
REMARK       I    between atoms: C_22  and  N_24 
REMARK    6  A    between atoms: N_24  and  C_25 
REMARK    7  A    between atoms: C_25  and  C_26 
REMARK    8  A    between atoms: C_26  and  C_27 
REMARK    9  A    between atoms: C_34  and  O_35 
ROOT
ATOM      1  C   UNL d   1      30.297 -13.370   2.487  0.00  0.00     0.037 A 
ATOM      2  C   UNL d   1      30.670 -12.516   1.462  0.00  0.00     0.032 A 
ATOM      3  C   UNL d   1      30.033 -12.602   0.202  0.00  0.00     0.032 A 
ATOM      4  C   UNL d   1      29.025 -13.551  -0.107  0.00  0.00     0.046 A 
ATOM      5  C   UNL d   1      28.649 -14.427   0.941  0.00  0.00     0.060 A 
ATOM      6  C   UNL d   1      29.303 -14.325   2.202  0.00  0.00     0.049 A 
ENDROOT
BRANCH   1   7
ATOM      7  N   UNL d   1      30.910 -13.312   3.800  0.00  0.00    -0.309 N 
ATOM      8  C   UNL d   1      30.056 -13.264   4.899  0.00  0.00     0.325 C 
ATOM      9  N   UNL d   1      30.639 -13.139   6.164  0.00  0.00    -0.306 N 
ATOM     10  O   UNL d   1      28.849 -13.370   4.664  0.00  0.00    -0.247 OA
ATOM     11  H   UNL d   1      31.631 -13.314   6.252  0.00  0.00     0.171 HD
ATOM     12  H   UNL d   1      31.786 -13.801   3.922  0.00  0.00     0.170 HD
BRANCH   9  13
ATOM     13  C   UNL d   1      29.901 -13.017   7.419  0.00  0.00     0.070 C 
ATOM     14  C   UNL d   1      29.751 -14.131   8.276  0.00  0.00     0.035 C 
ATOM     15  C   UNL d   1      28.936 -14.063   9.439  0.00  0.00     0.039 C 
ATOM     16  C   UNL d   1      28.280 -12.883   9.783  0.00  0.00     0.070 C 
ATOM     17  C   UNL d   1      28.491 -11.766   8.998  0.00  0.00     0.075 C 
ATOM     18  C   UNL d   1      29.309 -11.814   7.867  0.00  0.00     0.097 C 
BRANCH  16  19
ATOM     19  O   UNL d   1      27.557 -12.830  10.945  0.00  0.00    -0.356 OA
ATOM     20  C   UNL d   1      28.042 -13.687  11.986  0.00  0.00     0.210 C 
ENDBRANCH  16  19
BRANCH  18  21
ATOM     21  O   UNL d   1      29.698 -10.649   7.285  0.00  0.00    -0.354 OA
ATOM     22  C   UNL d   1      29.373 -10.371   5.938  0.00  0.00     0.210 C 
ENDBRANCH  18  21
ENDBRANCH   9  13
ENDBRANCH   1   7
BRANCH   5  23
ATOM     23  C   UNL d   1      27.567 -15.463   0.761  0.00  0.00     0.254 C 
ATOM     24  O   UNL d   1      26.382 -15.185   0.595  0.00  0.00    -0.268 OA
ATOM     25  N   UNL d   1      27.905 -16.803   0.798  0.00  0.00    -0.356 N 
ATOM     26  H   UNL d   1      28.854 -17.134   0.841  0.00  0.00     0.162 HD
BRANCH  25  27
ATOM     27  C   UNL d   1      26.831 -17.755   0.690  0.00  0.00     0.127 C 
BRANCH  27  28
ATOM     28  C   UNL d   1      26.140 -17.727  -0.658  0.00  0.00     0.058 C 
BRANCH  28  29
ATOM     29  C   UNL d   1      24.634 -17.752  -0.559  0.00  0.00    -0.057 A 
ATOM     30  C   UNL d   1      23.899 -18.942  -0.434  0.00  0.00     0.007 A 
ATOM     31  C   UNL d   1      22.517 -18.940  -0.589  0.00  0.00     0.001 A 
ATOM     32  C   UNL d   1      21.844 -17.736  -0.758  0.00  0.00     0.000 A 
ATOM     33  C   UNL d   1      22.554 -16.538  -0.800  0.00  0.00     0.001 A 
ATOM     34  C   UNL d   1      23.944 -16.545  -0.707  0.00  0.00     0.007 A 
ENDBRANCH  28  29
ENDBRANCH  27  28
ENDBRANCH  25  27
ENDBRANCH   5  23
BRANCH   4  35
ATOM     35  N   UNL d   1      28.467 -13.487  -1.376  0.00  0.00    -0.380 N 
ATOM     36  C   UNL d   1      27.971 -12.239  -1.963  0.00  0.00     0.123 C 
ATOM     37  C   UNL d   1      26.567 -12.516  -2.517  0.00  0.00     0.020 C 
ATOM     38  C   UNL d   1      26.557 -13.710  -3.482  0.00  0.00     0.003 C 
ATOM     39  C   UNL d   1      27.248 -14.933  -2.874  0.00  0.00     0.020 C 
ATOM     40  C   UNL d   1      28.629 -14.567  -2.350  0.00  0.00     0.123 C 
ENDBRANCH   4  35
TORSDOF 9
ENDMDL
MODEL 9
REMARK VINA RESULT:    -8.633      8.499     10.572
REMARK INTER + INTRA:         -13.339
REMARK INTER:                 -11.318
REMARK INTRA:                  -2.021
REMARK CONF_INDEPENDENT:        2.685
REMARK UNBOUND:                -2.021
REMARK  9 active torsions:
REMARK  status: ('A' for Active; 'I' for Inactive)
REMARK    1  A    between atoms: O_2  and  C_3 
REMARK    2  A    between atoms: C_6  and  N_7 
REMARK       I    between atoms: N_7  and  C_8 
REMARK       I    between atoms: C_8  and  N_10 
REMARK    3  A    between atoms: N_10  and  C_11 
REMARK    4  A    between atoms: C_14  and  N_15 
REMARK    5  A    between atoms: C_21  and  C_22 
REMARK       I    between atoms: C_22  and  N_24 
REMARK    6  A    between atoms: N_24  and  C_25 
REMARK    7  A    between atoms: C_25  and  C_26 
REMARK    8  A    between atoms: C_26  and  C_27 
REMARK    9  A    between atoms: C_34  and  O_35 
ROOT
ATOM      1  C   UNL d   1      30.455 -22.450   0.105  0.00  0.00     0.037 A 
ATOM      2  C   UNL d   1      29.650 -23.577   0.130  0.00  0.00     0.032 A 
ATOM      3  C   UNL d   1      29.615 -24.446  -0.985  0.00  0.00     0.032 A 
ATOM      4  C   UNL d   1      30.348 -24.225  -2.180  0.00  0.00     0.046 A 
ATOM      5  C   UNL d   1      31.166 -23.069  -2.205  0.00  0.00     0.060 A 
ATOM      6  C   UNL d   1      31.187 -22.205  -1.072  0.00  0.00     0.049 A 
ENDROOT
BRANCH   1   7
ATOM      7  N   UNL d   1      30.536 -21.536   1.227  0.00  0.00    -0.309 N 
ATOM      8  C   UNL d   1      31.525 -21.780   2.177  0.00  0.00     0.325 C 
ATOM      9  N   UNL d   1      31.566 -20.943   3.296  0.00  0.00    -0.306 N 
ATOM     10  O   UNL d   1      32.310 -22.701   1.930  0.00  0.00    -0.247 OA
ATOM     11  H   UNL d   1      31.041 -20.079   3.266  0.00  0.00     0.171 HD
ATOM     12  H   UNL d   1      30.297 -20.569   1.053  0.00  0.00     0.170 HD
BRANCH   9  13
ATOM     13  C   UNL d   1      32.494 -21.085   4.416  0.00  0.00     0.070 C 
ATOM     14  C   UNL d   1      33.884 -20.912   4.223  0.00  0.00     0.035 C 
ATOM     15  C   UNL d   1      34.811 -21.165   5.271  0.00  0.00     0.039 C 
ATOM     16  C   UNL d   1      34.372 -21.566   6.532  0.00  0.00     0.070 C 
ATOM     17  C   UNL d   1      33.011 -21.651   6.752  0.00  0.00     0.075 C 
ATOM     18  C   UNL d   1      32.090 -21.382   5.737  0.00  0.00     0.097 C 
BRANCH  16  19
ATOM     19  O   UNL d   1      35.284 -21.736   7.539  0.00  0.00    -0.356 OA
ATOM     20  C   UNL d   1      35.193 -22.997   8.215  0.00  0.00     0.210 C 
ENDBRANCH  16  19
BRANCH  18  21
ATOM     21  O   UNL d   1      30.780 -21.221   6.062  0.00  0.00    -0.354 OA
ATOM     22  C   UNL d   1      29.774 -21.950   5.389  0.00  0.00     0.210 C 
ENDBRANCH  18  21
ENDBRANCH   9  13
ENDBRANCH   1   7
BRANCH   5  23
ATOM     23  C   UNL d   1      32.025 -22.729  -3.398  0.00  0.00     0.254 C 
ATOM     24  O   UNL d   1      33.214 -22.429  -3.316  0.00  0.00    -0.268 OA
ATOM     25  N   UNL d   1      31.458 -22.735  -4.659  0.00  0.00    -0.356 N 
ATOM     26  H   UNL d   1      30.520 -23.050  -4.844  0.00  0.00     0.162 HD
BRANCH  25  27
ATOM     27  C   UNL d   1      32.297 -22.339  -5.759  0.00  0.00     0.127 C 
BRANCH  27  28
ATOM     28  C   UNL d   1      31.531 -21.684  -6.891  0.00  0.00     0.058 C 
BRANCH  28  29
ATOM     29  C   UNL d   1      31.095 -20.273  -6.583  0.00  0.00    -0.057 A 
ATOM     30  C   UNL d   1      30.948 -19.288  -7.573  0.00  0.00     0.007 A 
ATOM     31  C   UNL d   1      30.782 -17.953  -7.224  0.00  0.00     0.001 A 
ATOM     32  C   UNL d   1      30.647 -17.601  -5.886  0.00  0.00     0.000 A 
ATOM     33  C   UNL d   1      30.707 -18.580  -4.896  0.00  0.00     0.001 A 
ATOM     34  C   UNL d   1      30.936 -19.911  -5.242  0.00  0.00     0.007 A 
ENDBRANCH  28  29
ENDBRANCH  27  28
ENDBRANCH  25  27
ENDBRANCH   5  23
BRANCH   4  35
ATOM     35  N   UNL d   1      30.241 -25.188  -3.173  0.00  0.00    -0.380 N 
ATOM     36  C   UNL d   1      31.401 -25.891  -3.725  0.00  0.00     0.123 C 
ATOM     37  C   UNL d   1      31.294 -25.828  -5.255  0.00  0.00     0.020 C 
ATOM     38  C   UNL d   1      29.943 -26.356  -5.757  0.00  0.00     0.003 C 
ATOM     39  C   UNL d   1      28.772 -25.708  -5.015  0.00  0.00     0.020 C 
ATOM     40  C   UNL d   1      28.962 -25.815  -3.509  0.00  0.00     0.123 C 
ENDBRANCH   4  35
TORSDOF 9
ENDMDL
