MODEL 1
REMARK VINA RESULT:    -6.658      0.000      0.000
REMARK INTER + INTRA:         -11.019
REMARK INTER:                  -9.641
REMARK INTRA:                  -1.377
REMARK CONF_INDEPENDENT:        2.983
REMARK UNBOUND:                -1.377
REMARK  10 active torsions:
REMARK  status: ('A' for Active; 'I' for Inactive)
REMARK    1  A    between atoms: O_2  and  C_3 
REMARK    2  A    between atoms: C_5  and  C_6 
REMARK       I    between atoms: C_6  and  N_8 
REMARK    3  A    between atoms: N_8  and  C_9 
REMARK    4  A    between atoms: C_9  and  C_10 
REMARK       I    between atoms: C_10  and  N_12 
REMARK    5  A    between atoms: N_12  and  N_13 
REMARK    6  A    between atoms: N_13  and  C_14 
REMARK    7  A    between atoms: C_14  and  N_16 
REMARK    8  A    between atoms: N_16  and  C_17 
REMARK    9  A    between atoms: C_22  and  O_23 
REMARK   10  A    between atoms: O_23  and  C_24 
ROOT
ATOM      1  C   UNL d   1      25.626 -15.205  -3.430  0.00  0.00     0.252 C 
ATOM      2  O   UNL d   1      24.766 -14.473  -3.883  0.00  0.00    -0.268 OA
ATOM      3  N   UNL d   1      25.387 -16.028  -2.326  0.00  0.00    -0.348 N 
ATOM      4  H   UNL d   1      26.110 -16.597  -1.913  0.00  0.00     0.163 HD
ENDROOT
BRANCH   3   5
ATOM      5  C   UNL d   1      24.099 -16.071  -1.615  0.00  0.00     0.227 C 
BRANCH   5   6
ATOM      6  C   UNL d   1      23.891 -17.418  -0.856  0.00  0.00     0.253 C 
ATOM      7  O   UNL d   1      24.839 -18.076  -0.421  0.00  0.00    -0.270 OA
ATOM      8  N   UNL d   1      22.572 -17.826  -0.700  0.00  0.00    -0.267 N 
ATOM      9  H   UNL d   1      21.775 -17.289  -1.042  0.00  0.00     0.190 HD
BRANCH   8  10
ATOM     10  N   UNL d   1      22.237 -19.043  -0.006  0.00  0.00    -0.274 N 
ATOM     11  H   UNL d   1      23.016 -19.662   0.212  0.00  0.00     0.189 HD
BRANCH  10  12
ATOM     12  C   UNL d   1      20.902 -19.325   0.297  0.00  0.00     0.186 C 
ATOM     13  S   UNL d   1      19.710 -19.301  -0.895  0.00  0.00    -0.040 SA
BRANCH  12  14
ATOM     14  N   UNL d   1      20.654 -19.586   1.648  0.00  0.00    -0.361 N 
ATOM     15  H   UNL d   1      21.333 -19.290   2.342  0.00  0.00     0.162 HD
BRANCH  14  16
ATOM     16  C   UNL d   1      19.589 -20.448   2.135  0.00  0.00     0.084 A 
ATOM     17  C   UNL d   1      18.123 -20.101   1.994  0.00  0.00     0.027 A 
ATOM     18  C   UNL d   1      18.709 -21.189   1.155  0.00  0.00     0.027 A 
ENDBRANCH  14  16
ENDBRANCH  12  14
ENDBRANCH  10  12
ENDBRANCH   8  10
ENDBRANCH   5   6
ENDBRANCH   3   5
BRANCH   1  19
ATOM     19  C   UNL d   1      27.021 -15.201  -4.037  0.00  0.00     0.034 A 
ATOM     20  C   UNL d   1      28.153 -15.574  -3.263  0.00  0.00     0.056 A 
ATOM     21  C   UNL d   1      29.441 -15.822  -3.835  0.00  0.00     0.102 A 
ATOM     22  C   UNL d   1      29.578 -15.626  -5.225  0.00  0.00     0.108 A 
ATOM     23  C   UNL d   1      28.469 -15.164  -5.963  0.00  0.00     0.041 A 
ATOM     24  C   UNL d   1      27.219 -14.945  -5.387  0.00  0.00     0.020 A 
BRANCH  21  25
ATOM     25  O   UNL d   1      30.275 -16.510  -2.976  0.00  0.00    -0.353 OA
ATOM     26  C   UNL d   1      29.846 -17.253  -1.834  0.00  0.00     0.210 C 
ENDBRANCH  21  25
BRANCH  22  27
ATOM     27  O   UNL d   1      30.605 -15.860  -6.106  0.00  0.00    -0.287 OA
BRANCH  27  28
ATOM     28  C   UNL d   1      31.038 -17.183  -6.182  0.00  0.00     0.505 C 
ATOM     29  F   UNL d   1      30.399 -17.883  -5.217  0.00  0.00    -0.184 F 
ATOM     30  F   UNL d   1      30.661 -17.739  -7.358  0.00  0.00    -0.184 F 
ENDBRANCH  27  28
ENDBRANCH  22  27
ENDBRANCH   1  19
TORSDOF 10
ENDMDL
MODEL 2
REMARK VINA RESULT:    -5.990      7.561      9.275
REMARK INTER + INTRA:         -10.332
REMARK INTER:                  -8.973
REMARK INTRA:                  -1.359
REMARK CONF_INDEPENDENT:        2.983
REMARK UNBOUND:                -1.359
REMARK  10 active torsions:
REMARK  status: ('A' for Active; 'I' for Inactive)
REMARK    1  A    between atoms: O_2  and  C_3 
REMARK    2  A    between atoms: C_5  and  C_6 
REMARK       I    between atoms: C_6  and  N_8 
REMARK    3  A    between atoms: N_8  and  C_9 
REMARK    4  A    between atoms: C_9  and  C_10 
REMARK       I    between atoms: C_10  and  N_12 
REMARK    5  A    between atoms: N_12  and  N_13 
REMARK    6  A    between atoms: N_13  and  C_14 
REMARK    7  A    between atoms: C_14  and  N_16 
REMARK    8  A    between atoms: N_16  and  C_17 
REMARK    9  A    between atoms: C_22  and  O_23 
REMARK   10  A    between atoms: O_23  and  C_24 
ROOT
ATOM      1  C   UNL d   1      28.033 -15.328   0.786  0.00  0.00     0.252 C 
ATOM      2  O   UNL d   1      29.025 -15.165   0.100  0.00  0.00    -0.268 OA
ATOM      3  N   UNL d   1      28.014 -14.998   2.144  0.00  0.00    -0.348 N 
ATOM      4  H   UNL d   1      27.213 -15.178   2.730  0.00  0.00     0.163 HD
ENDROOT
BRANCH   3   5
ATOM      5  C   UNL d   1      29.177 -14.445   2.857  0.00  0.00     0.227 C 
BRANCH   5   6
ATOM      6  C   UNL d   1      29.042 -14.590   4.404  0.00  0.00     0.253 C 
ATOM      7  O   UNL d   1      27.979 -14.912   4.940  0.00  0.00    -0.270 OA
ATOM      8  N   UNL d   1      30.194 -14.337   5.137  0.00  0.00    -0.267 N 
ATOM      9  H   UNL d   1      31.085 -14.081   4.712  0.00  0.00     0.190 HD
BRANCH   8  10
ATOM     10  N   UNL d   1      30.213 -14.449   6.574  0.00  0.00    -0.274 N 
ATOM     11  H   UNL d   1      30.903 -15.089   6.963  0.00  0.00     0.189 HD
BRANCH  10  12
ATOM     12  C   UNL d   1      29.294 -13.725   7.339  0.00  0.00     0.186 C 
ATOM     13  S   UNL d   1      28.519 -12.363   6.718  0.00  0.00    -0.040 SA
BRANCH  12  14
ATOM     14  N   UNL d   1      29.113 -14.204   8.639  0.00  0.00    -0.361 N 
ATOM     15  H   UNL d   1      29.189 -15.201   8.814  0.00  0.00     0.162 HD
BRANCH  14  16
ATOM     16  C   UNL d   1      28.607 -13.407   9.745  0.00  0.00     0.084 A 
ATOM     17  C   UNL d   1      27.749 -13.985  10.850  0.00  0.00     0.027 A 
ATOM     18  C   UNL d   1      29.165 -13.603  11.136  0.00  0.00     0.027 A 
ENDBRANCH  14  16
ENDBRANCH  12  14
ENDBRANCH  10  12
ENDBRANCH   8  10
ENDBRANCH   5   6
ENDBRANCH   3   5
BRANCH   1  19
ATOM     19  C   UNL d   1      26.786 -15.955   0.180  0.00  0.00     0.034 A 
ATOM     20  C   UNL d   1      26.060 -15.289  -0.846  0.00  0.00     0.056 A 
ATOM     21  C   UNL d   1      25.037 -15.927  -1.615  0.00  0.00     0.102 A 
ATOM     22  C   UNL d   1      24.715 -17.259  -1.281  0.00  0.00     0.108 A 
ATOM     23  C   UNL d   1      25.377 -17.873  -0.200  0.00  0.00     0.041 A 
ATOM     24  C   UNL d   1      26.384 -17.238   0.525  0.00  0.00     0.020 A 
BRANCH  21  25
ATOM     25  O   UNL d   1      24.733 -15.229  -2.768  0.00  0.00    -0.353 OA
ATOM     26  C   UNL d   1      25.652 -14.424  -3.506  0.00  0.00     0.210 C 
ENDBRANCH  21  25
BRANCH  22  27
ATOM     27  O   UNL d   1      23.883 -18.191  -1.854  0.00  0.00    -0.287 OA
BRANCH  27  28
ATOM     28  C   UNL d   1      22.740 -18.504  -1.119  0.00  0.00     0.505 C 
ATOM     29  F   UNL d   1      23.037 -19.556  -0.322  0.00  0.00    -0.184 F 
ATOM     30  F   UNL d   1      22.416 -17.486  -0.288  0.00  0.00    -0.184 F 
ENDBRANCH  27  28
ENDBRANCH  22  27
ENDBRANCH   1  19
TORSDOF 10
ENDMDL
MODEL 3
REMARK VINA RESULT:    -5.793      6.305      9.017
REMARK INTER + INTRA:         -10.993
REMARK INTER:                  -8.776
REMARK INTRA:                  -2.217
REMARK CONF_INDEPENDENT:        2.983
REMARK UNBOUND:                -2.217
REMARK  10 active torsions:
REMARK  status: ('A' for Active; 'I' for Inactive)
REMARK    1  A    between atoms: O_2  and  C_3 
REMARK    2  A    between atoms: C_5  and  C_6 
REMARK       I    between atoms: C_6  and  N_8 
REMARK    3  A    between atoms: N_8  and  C_9 
REMARK    4  A    between atoms: C_9  and  C_10 
REMARK       I    between atoms: C_10  and  N_12 
REMARK    5  A    between atoms: N_12  and  N_13 
REMARK    6  A    between atoms: N_13  and  C_14 
REMARK    7  A    between atoms: C_14  and  N_16 
REMARK    8  A    between atoms: N_16  and  C_17 
REMARK    9  A    between atoms: C_22  and  O_23 
REMARK   10  A    between atoms: O_23  and  C_24 
ROOT
ATOM      1  C   UNL d   1      28.960 -15.881   0.168  0.00  0.00     0.252 C 
ATOM      2  O   UNL d   1      29.090 -14.672   0.126  0.00  0.00    -0.268 OA
ATOM      3  N   UNL d   1      30.061 -16.739   0.247  0.00  0.00    -0.348 N 
ATOM      4  H   UNL d   1      29.963 -17.742   0.229  0.00  0.00     0.163 HD
ENDROOT
BRANCH   3   5
ATOM      5  C   UNL d   1      31.454 -16.263   0.272  0.00  0.00     0.227 C 
BRANCH   5   6
ATOM      6  C   UNL d   1      31.834 -15.628   1.646  0.00  0.00     0.253 C 
ATOM      7  O   UNL d   1      33.003 -15.547   2.028  0.00  0.00    -0.270 OA
ATOM      8  N   UNL d   1      30.772 -15.158   2.408  0.00  0.00    -0.267 N 
ATOM      9  H   UNL d   1      29.799 -15.205   2.103  0.00  0.00     0.190 HD
BRANCH   8  10
ATOM     10  N   UNL d   1      30.982 -14.535   3.690  0.00  0.00    -0.274 N 
ATOM     11  H   UNL d   1      31.952 -14.375   3.955  0.00  0.00     0.189 HD
BRANCH  10  12
ATOM     12  C   UNL d   1      29.885 -14.218   4.496  0.00  0.00     0.186 C 
ATOM     13  S   UNL d   1      28.305 -14.455   3.957  0.00  0.00    -0.040 SA
BRANCH  12  14
ATOM     14  N   UNL d   1      30.214 -13.671   5.739  0.00  0.00    -0.361 N 
ATOM     15  H   UNL d   1      31.189 -13.497   5.961  0.00  0.00     0.162 HD
BRANCH  14  16
ATOM     16  C   UNL d   1      29.280 -13.524   6.845  0.00  0.00     0.084 A 
ATOM     17  C   UNL d   1      29.252 -12.302   7.737  0.00  0.00     0.027 A 
ATOM     18  C   UNL d   1      28.151 -12.523   6.751  0.00  0.00     0.027 A 
ENDBRANCH  14  16
ENDBRANCH  12  14
ENDBRANCH  10  12
ENDBRANCH   8  10
ENDBRANCH   5   6
ENDBRANCH   3   5
BRANCH   1  19
ATOM     19  C   UNL d   1      27.572 -16.498   0.081  0.00  0.00     0.034 A 
ATOM     20  C   UNL d   1      26.510 -15.813  -0.570  0.00  0.00     0.056 A 
ATOM     21  C   UNL d   1      25.264 -16.437  -0.894  0.00  0.00     0.102 A 
ATOM     22  C   UNL d   1      25.088 -17.776  -0.486  0.00  0.00     0.108 A 
ATOM     23  C   UNL d   1      26.114 -18.410   0.242  0.00  0.00     0.041 A 
ATOM     24  C   UNL d   1      27.327 -17.787   0.532  0.00  0.00     0.020 A 
BRANCH  21  25
ATOM     25  O   UNL d   1      24.542 -15.718  -1.826  0.00  0.00    -0.353 OA
ATOM     26  C   UNL d   1      25.108 -14.888  -2.842  0.00  0.00     0.210 C 
ENDBRANCH  21  25
BRANCH  22  27
ATOM     27  O   UNL d   1      24.094 -18.697  -0.709  0.00  0.00    -0.287 OA
BRANCH  27  28
ATOM     28  C   UNL d   1      22.817 -18.168  -0.891  0.00  0.00     0.505 C 
ATOM     29  F   UNL d   1      21.971 -19.199  -1.115  0.00  0.00    -0.184 F 
ATOM     30  F   UNL d   1      22.385 -17.570   0.244  0.00  0.00    -0.184 F 
ENDBRANCH  27  28
ENDBRANCH  22  27
ENDBRANCH   1  19
TORSDOF 10
ENDMDL
MODEL 4
REMARK VINA RESULT:    -5.734      5.908      8.561
REMARK INTER + INTRA:         -11.279
REMARK INTER:                  -8.717
REMARK INTRA:                  -2.563
REMARK CONF_INDEPENDENT:        2.983
REMARK UNBOUND:                -2.563
REMARK  10 active torsions:
REMARK  status: ('A' for Active; 'I' for Inactive)
REMARK    1  A    between atoms: O_2  and  C_3 
REMARK    2  A    between atoms: C_5  and  C_6 
REMARK       I    between atoms: C_6  and  N_8 
REMARK    3  A    between atoms: N_8  and  C_9 
REMARK    4  A    between atoms: C_9  and  C_10 
REMARK       I    between atoms: C_10  and  N_12 
REMARK    5  A    between atoms: N_12  and  N_13 
REMARK    6  A    between atoms: N_13  and  C_14 
REMARK    7  A    between atoms: C_14  and  N_16 
REMARK    8  A    between atoms: N_16  and  C_17 
REMARK    9  A    between atoms: C_22  and  O_23 
REMARK   10  A    between atoms: O_23  and  C_24 
ROOT
ATOM      1  C   UNL d   1      29.059 -15.824   0.110  0.00  0.00     0.252 C 
ATOM      2  O   UNL d   1      29.237 -14.620   0.082  0.00  0.00    -0.268 OA
ATOM      3  N   UNL d   1      30.121 -16.723   0.244  0.00  0.00    -0.348 N 
ATOM      4  H   UNL d   1      29.986 -17.722   0.215  0.00  0.00     0.163 HD
ENDROOT
BRANCH   3   5
ATOM      5  C   UNL d   1      31.528 -16.301   0.347  0.00  0.00     0.227 C 
BRANCH   5   6
ATOM      6  C   UNL d   1      31.860 -15.702   1.749  0.00  0.00     0.253 C 
ATOM      7  O   UNL d   1      33.011 -15.677   2.192  0.00  0.00    -0.270 OA
ATOM      8  N   UNL d   1      30.780 -15.199   2.462  0.00  0.00    -0.267 N 
ATOM      9  H   UNL d   1      29.824 -15.200   2.106  0.00  0.00     0.190 HD
BRANCH   8  10
ATOM     10  N   UNL d   1      30.948 -14.603   3.763  0.00  0.00    -0.274 N 
ATOM     11  H   UNL d   1      31.907 -14.411   4.046  0.00  0.00     0.189 HD
BRANCH  10  12
ATOM     12  C   UNL d   1      29.829 -14.355   4.563  0.00  0.00     0.186 C 
ATOM     13  S   UNL d   1      29.981 -13.645   6.084  0.00  0.00    -0.040 SA
BRANCH  12  14
ATOM     14  N   UNL d   1      28.615 -14.771   4.010  0.00  0.00    -0.361 N 
ATOM     15  H   UNL d   1      28.530 -15.719   3.659  0.00  0.00     0.162 HD
BRANCH  14  16
ATOM     16  C   UNL d   1      27.508 -13.881   3.697  0.00  0.00     0.084 A 
ATOM     17  C   UNL d   1      27.700 -12.529   3.046  0.00  0.00     0.027 A 
ATOM     18  C   UNL d   1      27.107 -13.651   2.258  0.00  0.00     0.027 A 
ENDBRANCH  14  16
ENDBRANCH  12  14
ENDBRANCH  10  12
ENDBRANCH   8  10
ENDBRANCH   5   6
ENDBRANCH   3   5
BRANCH   1  19
ATOM     19  C   UNL d   1      27.655 -16.386  -0.055  0.00  0.00     0.034 A 
ATOM     20  C   UNL d   1      26.743 -15.810  -0.980  0.00  0.00     0.056 A 
ATOM     21  C   UNL d   1      25.512 -16.435  -1.353  0.00  0.00     0.102 A 
ATOM     22  C   UNL d   1      25.187 -17.651  -0.715  0.00  0.00     0.108 A 
ATOM     23  C   UNL d   1      26.057 -18.160   0.269  0.00  0.00     0.041 A 
ATOM     24  C   UNL d   1      27.260 -17.542   0.605  0.00  0.00     0.020 A 
BRANCH  21  25
ATOM     25  O   UNL d   1      24.976 -15.897  -2.506  0.00  0.00    -0.353 OA
ATOM     26  C   UNL d   1      25.635 -14.959  -3.358  0.00  0.00     0.210 C 
ENDBRANCH  21  25
BRANCH  22  27
ATOM     27  O   UNL d   1      24.169 -18.556  -0.892  0.00  0.00    -0.287 OA
BRANCH  27  28
ATOM     28  C   UNL d   1      22.881 -18.031  -0.814  0.00  0.00     0.505 C 
ATOM     29  F   UNL d   1      22.134 -18.877  -0.068  0.00  0.00    -0.184 F 
ATOM     30  F   UNL d   1      22.888 -16.853  -0.145  0.00  0.00    -0.184 F 
ENDBRANCH  27  28
ENDBRANCH  22  27
ENDBRANCH   1  19
TORSDOF 10
ENDMDL
MODEL 5
REMARK VINA RESULT:    -5.197      6.225      7.301
REMARK INTER + INTRA:         -10.356
REMARK INTER:                  -8.180
REMARK INTRA:                  -2.176
REMARK CONF_INDEPENDENT:        2.983
REMARK UNBOUND:                -2.176
REMARK  10 active torsions:
REMARK  status: ('A' for Active; 'I' for Inactive)
REMARK    1  A    between atoms: O_2  and  C_3 
REMARK    2  A    between atoms: C_5  and  C_6 
REMARK       I    between atoms: C_6  and  N_8 
REMARK    3  A    between atoms: N_8  and  C_9 
REMARK    4  A    between atoms: C_9  and  C_10 
REMARK       I    between atoms: C_10  and  N_12 
REMARK    5  A    between atoms: N_12  and  N_13 
REMARK    6  A    between atoms: N_13  and  C_14 
REMARK    7  A    between atoms: C_14  and  N_16 
REMARK    8  A    between atoms: N_16  and  C_17 
REMARK    9  A    between atoms: C_22  and  O_23 
REMARK   10  A    between atoms: O_23  and  C_24 
ROOT
ATOM      1  C   UNL d   1      27.214 -15.004   0.623  0.00  0.00     0.252 C 
ATOM      2  O   UNL d   1      26.268 -14.985  -0.142  0.00  0.00    -0.268 OA
ATOM      3  N   UNL d   1      28.115 -16.072   0.654  0.00  0.00    -0.348 N 
ATOM      4  H   UNL d   1      28.871 -16.119   1.321  0.00  0.00     0.163 HD
ENDROOT
BRANCH   3   5
ATOM      5  C   UNL d   1      27.995 -17.256  -0.213  0.00  0.00     0.227 C 
BRANCH   5   6
ATOM      6  C   UNL d   1      26.828 -18.192   0.230  0.00  0.00     0.253 C 
ATOM      7  O   UNL d   1      27.030 -19.247   0.835  0.00  0.00    -0.270 OA
ATOM      8  N   UNL d   1      25.550 -17.760  -0.099  0.00  0.00    -0.267 N 
ATOM      9  H   UNL d   1      25.362 -16.885  -0.588  0.00  0.00     0.190 HD
BRANCH   8  10
ATOM     10  N   UNL d   1      24.381 -18.522   0.263  0.00  0.00    -0.274 N 
ATOM     11  H   UNL d   1      24.536 -19.302   0.898  0.00  0.00     0.189 HD
BRANCH  10  12
ATOM     12  C   UNL d   1      23.137 -18.185  -0.279  0.00  0.00     0.186 C 
ATOM     13  S   UNL d   1      22.829 -16.634  -0.865  0.00  0.00    -0.040 SA
BRANCH  12  14
ATOM     14  N   UNL d   1      22.194 -19.216  -0.257  0.00  0.00    -0.361 N 
ATOM     15  H   UNL d   1      22.432 -20.113  -0.667  0.00  0.00     0.162 HD
BRANCH  14  16
ATOM     16  C   UNL d   1      20.799 -19.045   0.119  0.00  0.00     0.084 A 
ATOM     17  C   UNL d   1      19.680 -18.955  -0.895  0.00  0.00     0.027 A 
ATOM     18  C   UNL d   1      19.824 -20.185  -0.059  0.00  0.00     0.027 A 
ENDBRANCH  14  16
ENDBRANCH  12  14
ENDBRANCH  10  12
ENDBRANCH   8  10
ENDBRANCH   5   6
ENDBRANCH   3   5
BRANCH   1  19
ATOM     19  C   UNL d   1      27.409 -13.869   1.617  0.00  0.00     0.034 A 
ATOM     20  C   UNL d   1      27.405 -14.117   3.017  0.00  0.00     0.056 A 
ATOM     21  C   UNL d   1      27.820 -13.145   3.982  0.00  0.00     0.102 A 
ATOM     22  C   UNL d   1      28.191 -11.873   3.497  0.00  0.00     0.108 A 
ATOM     23  C   UNL d   1      28.098 -11.614   2.115  0.00  0.00     0.041 A 
ATOM     24  C   UNL d   1      27.707 -12.581   1.192  0.00  0.00     0.020 A 
BRANCH  21  25
ATOM     25  O   UNL d   1      28.081 -13.707   5.216  0.00  0.00    -0.353 OA
ATOM     26  C   UNL d   1      28.996 -14.777   5.455  0.00  0.00     0.210 C 
ENDBRANCH  21  25
BRANCH  22  27
ATOM     27  O   UNL d   1      28.725 -10.762   4.102  0.00  0.00    -0.287 OA
BRANCH  27  28
ATOM     28  C   UNL d   1      27.917 -10.158   5.064  0.00  0.00     0.505 C 
ATOM     29  F   UNL d   1      26.818  -9.678   4.438  0.00  0.00    -0.184 F 
ATOM     30  F   UNL d   1      27.468 -11.077   5.952  0.00  0.00    -0.184 F 
ENDBRANCH  27  28
ENDBRANCH  22  27
ENDBRANCH   1  19
TORSDOF 10
ENDMDL
MODEL 6
REMARK VINA RESULT:    -5.097      5.272      9.453
REMARK INTER + INTRA:         -10.294
REMARK INTER:                  -8.080
REMARK INTRA:                  -2.214
REMARK CONF_INDEPENDENT:        2.983
REMARK UNBOUND:                -2.214
REMARK  10 active torsions:
REMARK  status: ('A' for Active; 'I' for Inactive)
REMARK    1  A    between atoms: O_2  and  C_3 
REMARK    2  A    between atoms: C_5  and  C_6 
REMARK       I    between atoms: C_6  and  N_8 
REMARK    3  A    between atoms: N_8  and  C_9 
REMARK    4  A    between atoms: C_9  and  C_10 
REMARK       I    between atoms: C_10  and  N_12 
REMARK    5  A    between atoms: N_12  and  N_13 
REMARK    6  A    between atoms: N_13  and  C_14 
REMARK    7  A    between atoms: C_14  and  N_16 
REMARK    8  A    between atoms: N_16  and  C_17 
REMARK    9  A    between atoms: C_22  and  O_23 
REMARK   10  A    between atoms: O_23  and  C_24 
ROOT
ATOM      1  C   UNL d   1      28.879 -17.081  -1.309  0.00  0.00     0.252 C 
ATOM      2  O   UNL d   1      29.156 -16.430  -2.299  0.00  0.00    -0.268 OA
ATOM      3  N   UNL d   1      29.833 -17.861  -0.649  0.00  0.00    -0.348 N 
ATOM      4  H   UNL d   1      29.599 -18.444   0.140  0.00  0.00     0.163 HD
ENDROOT
BRANCH   3   5
ATOM      5  C   UNL d   1      31.232 -17.973  -1.093  0.00  0.00     0.227 C 
BRANCH   5   6
ATOM      6  C   UNL d   1      31.383 -18.913  -2.329  0.00  0.00     0.253 C 
ATOM      7  O   UNL d   1      32.042 -19.954  -2.281  0.00  0.00    -0.270 OA
ATOM      8  N   UNL d   1      30.726 -18.505  -3.482  0.00  0.00    -0.267 N 
ATOM      9  H   UNL d   1      30.167 -17.654  -3.538  0.00  0.00     0.190 HD
BRANCH   8  10
ATOM     10  N   UNL d   1      30.770 -19.287  -4.692  0.00  0.00    -0.274 N 
ATOM     11  H   UNL d   1      31.074 -20.253  -4.587  0.00  0.00     0.189 HD
BRANCH  10  12
ATOM     12  C   UNL d   1      30.436 -18.697  -5.913  0.00  0.00     0.186 C 
ATOM     13  S   UNL d   1      30.403 -17.021  -6.096  0.00  0.00    -0.040 SA
BRANCH  12  14
ATOM     14  N   UNL d   1      30.108 -19.601  -6.927  0.00  0.00    -0.361 N 
ATOM     15  H   UNL d   1      29.214 -20.081  -6.892  0.00  0.00     0.162 HD
BRANCH  14  16
ATOM     16  C   UNL d   1      31.042 -20.081  -7.934  0.00  0.00     0.084 A 
ATOM     17  C   UNL d   1      30.780 -19.964  -9.419  0.00  0.00     0.027 A 
ATOM     18  C   UNL d   1      31.812 -19.093  -8.780  0.00  0.00     0.027 A 
ENDBRANCH  14  16
ENDBRANCH  12  14
ENDBRANCH  10  12
ENDBRANCH   8  10
ENDBRANCH   5   6
ENDBRANCH   3   5
BRANCH   1  19
ATOM     19  C   UNL d   1      27.449 -17.101  -0.791  0.00  0.00     0.034 A 
ATOM     20  C   UNL d   1      26.472 -16.211  -1.313  0.00  0.00     0.056 A 
ATOM     21  C   UNL d   1      25.073 -16.345  -1.045  0.00  0.00     0.102 A 
ATOM     22  C   UNL d   1      24.680 -17.383  -0.174  0.00  0.00     0.108 A 
ATOM     23  C   UNL d   1      25.670 -18.197   0.411  0.00  0.00     0.041 A 
ATOM     24  C   UNL d   1      27.027 -18.058   0.122  0.00  0.00     0.020 A 
BRANCH  21  25
ATOM     25  O   UNL d   1      24.296 -15.619  -1.926  0.00  0.00    -0.353 OA
ATOM     26  C   UNL d   1      24.784 -14.612  -2.814  0.00  0.00     0.210 C 
ENDBRANCH  21  25
BRANCH  22  27
ATOM     27  O   UNL d   1      23.453 -17.861   0.217  0.00  0.00    -0.287 OA
BRANCH  27  28
ATOM     28  C   UNL d   1      22.532 -18.056  -0.811  0.00  0.00     0.505 C 
ATOM     29  F   UNL d   1      23.023 -19.013  -1.630  0.00  0.00    -0.184 F 
ATOM     30  F   UNL d   1      21.369 -18.546  -0.320  0.00  0.00    -0.184 F 
ENDBRANCH  27  28
ENDBRANCH  22  27
ENDBRANCH   1  19
TORSDOF 10
ENDMDL
MODEL 7
REMARK VINA RESULT:    -4.738      5.051      8.853
REMARK INTER + INTRA:         -10.603
REMARK INTER:                  -7.721
REMARK INTRA:                  -2.882
REMARK CONF_INDEPENDENT:        2.983
REMARK UNBOUND:                -2.882
REMARK  10 active torsions:
REMARK  status: ('A' for Active; 'I' for Inactive)
REMARK    1  A    between atoms: O_2  and  C_3 
REMARK    2  A    between atoms: C_5  and  C_6 
REMARK       I    between atoms: C_6  and  N_8 
REMARK    3  A    between atoms: N_8  and  C_9 
REMARK    4  A    between atoms: C_9  and  C_10 
REMARK       I    between atoms: C_10  and  N_12 
REMARK    5  A    between atoms: N_12  and  N_13 
REMARK    6  A    between atoms: N_13  and  C_14 
REMARK    7  A    between atoms: C_14  and  N_16 
REMARK    8  A    between atoms: N_16  and  C_17 
REMARK    9  A    between atoms: C_22  and  O_23 
REMARK   10  A    between atoms: O_23  and  C_24 
ROOT
ATOM      1  C   UNL d   1      28.646 -16.831  -1.375  0.00  0.00     0.252 C 
ATOM      2  O   UNL d   1      29.143 -16.268  -2.332  0.00  0.00    -0.268 OA
ATOM      3  N   UNL d   1      29.399 -17.648  -0.526  0.00  0.00    -0.348 N 
ATOM      4  H   UNL d   1      28.982 -18.159   0.237  0.00  0.00     0.163 HD
ENDROOT
BRANCH   3   5
ATOM      5  C   UNL d   1      30.835 -17.906  -0.720  0.00  0.00     0.227 C 
BRANCH   5   6
ATOM      6  C   UNL d   1      31.137 -18.533  -2.116  0.00  0.00     0.253 C 
ATOM      7  O   UNL d   1      31.309 -19.745  -2.265  0.00  0.00    -0.270 OA
ATOM      8  N   UNL d   1      31.196 -17.641  -3.179  0.00  0.00    -0.267 N 
ATOM      9  H   UNL d   1      31.045 -16.637  -3.077  0.00  0.00     0.190 HD
BRANCH   8  10
ATOM     10  N   UNL d   1      31.452 -18.088  -4.525  0.00  0.00    -0.274 N 
ATOM     11  H   UNL d   1      32.273 -18.678  -4.650  0.00  0.00     0.189 HD
BRANCH  10  12
ATOM     12  C   UNL d   1      30.611 -17.680  -5.563  0.00  0.00     0.186 C 
ATOM     13  S   UNL d   1      30.796 -18.282  -7.127  0.00  0.00    -0.040 SA
BRANCH  12  14
ATOM     14  N   UNL d   1      29.655 -16.728  -5.199  0.00  0.00    -0.361 N 
ATOM     15  H   UNL d   1      29.068 -16.902  -4.389  0.00  0.00     0.162 HD
BRANCH  14  16
ATOM     16  C   UNL d   1      29.277 -15.588  -6.019  0.00  0.00     0.084 A 
ATOM     17  C   UNL d   1      27.988 -14.821  -5.814  0.00  0.00     0.027 A 
ATOM     18  C   UNL d   1      29.290 -14.196  -5.429  0.00  0.00     0.027 A 
ENDBRANCH  14  16
ENDBRANCH  12  14
ENDBRANCH  10  12
ENDBRANCH   8  10
ENDBRANCH   5   6
ENDBRANCH   3   5
BRANCH   1  19
ATOM     19  C   UNL d   1      27.154 -16.697  -1.108  0.00  0.00     0.034 A 
ATOM     20  C   UNL d   1      26.375 -15.726  -1.794  0.00  0.00     0.056 A 
ATOM     21  C   UNL d   1      24.945 -15.713  -1.768  0.00  0.00     0.102 A 
ATOM     22  C   UNL d   1      24.306 -16.688  -0.971  0.00  0.00     0.108 A 
ATOM     23  C   UNL d   1      25.095 -17.584  -0.223  0.00  0.00     0.041 A 
ATOM     24  C   UNL d   1      26.488 -17.588  -0.277  0.00  0.00     0.020 A 
BRANCH  21  25
ATOM     25  O   UNL d   1      24.406 -14.932  -2.771  0.00  0.00    -0.353 OA
ATOM     26  C   UNL d   1      25.161 -14.146  -3.694  0.00  0.00     0.210 C 
ENDBRANCH  21  25
BRANCH  22  27
ATOM     27  O   UNL d   1      22.988 -17.031  -0.794  0.00  0.00    -0.287 OA
BRANCH  27  28
ATOM     28  C   UNL d   1      22.746 -18.390  -0.595  0.00  0.00     0.505 C 
ATOM     29  F   UNL d   1      21.437 -18.535  -0.285  0.00  0.00    -0.184 F 
ATOM     30  F   UNL d   1      22.936 -19.079  -1.744  0.00  0.00    -0.184 F 
ENDBRANCH  27  28
ENDBRANCH  22  27
ENDBRANCH   1  19
TORSDOF 10
ENDMDL
MODEL 8
REMARK VINA RESULT:    -4.734      5.329      8.836
REMARK INTER + INTRA:         -10.379
REMARK INTER:                  -7.717
REMARK INTRA:                  -2.662
REMARK CONF_INDEPENDENT:        2.983
REMARK UNBOUND:                -2.662
REMARK  10 active torsions:
REMARK  status: ('A' for Active; 'I' for Inactive)
REMARK    1  A    between atoms: O_2  and  C_3 
REMARK    2  A    between atoms: C_5  and  C_6 
REMARK       I    between atoms: C_6  and  N_8 
REMARK    3  A    between atoms: N_8  and  C_9 
REMARK    4  A    between atoms: C_9  and  C_10 
REMARK       I    between atoms: C_10  and  N_12 
REMARK    5  A    between atoms: N_12  and  N_13 
REMARK    6  A    between atoms: N_13  and  C_14 
REMARK    7  A    between atoms: C_14  and  N_16 
REMARK    8  A    between atoms: N_16  and  C_17 
REMARK    9  A    between atoms: C_22  and  O_23 
REMARK   10  A    between atoms: O_23  and  C_24 
ROOT
ATOM      1  C   UNL d   1      29.084 -17.064  -0.885  0.00  0.00     0.252 C 
ATOM      2  O   UNL d   1      29.545 -17.359  -1.972  0.00  0.00    -0.268 OA
ATOM      3  N   UNL d   1      29.899 -16.852   0.230  0.00  0.00    -0.348 N 
ATOM      4  H   UNL d   1      29.521 -16.659   1.145  0.00  0.00     0.163 HD
ENDROOT
BRANCH   3   5
ATOM      5  C   UNL d   1      31.366 -16.977   0.192  0.00  0.00     0.227 C 
BRANCH   5   6
ATOM      6  C   UNL d   1      31.831 -18.178  -0.689  0.00  0.00     0.253 C 
ATOM      7  O   UNL d   1      32.876 -18.142  -1.343  0.00  0.00    -0.270 OA
ATOM      8  N   UNL d   1      30.995 -19.287  -0.687  0.00  0.00    -0.267 N 
ATOM      9  H   UNL d   1      30.134 -19.340  -0.143  0.00  0.00     0.190 HD
BRANCH   8  10
ATOM     10  N   UNL d   1      31.313 -20.471  -1.445  0.00  0.00    -0.274 N 
ATOM     11  H   UNL d   1      31.624 -21.276  -0.906  0.00  0.00     0.189 HD
BRANCH  10  12
ATOM     12  C   UNL d   1      31.213 -20.450  -2.839  0.00  0.00     0.186 C 
ATOM     13  S   UNL d   1      31.249 -21.874  -3.740  0.00  0.00    -0.040 SA
BRANCH  12  14
ATOM     14  N   UNL d   1      31.118 -19.172  -3.397  0.00  0.00    -0.361 N 
ATOM     15  H   UNL d   1      31.285 -18.362  -2.809  0.00  0.00     0.162 HD
BRANCH  14  16
ATOM     16  C   UNL d   1      30.585 -18.892  -4.721  0.00  0.00     0.084 A 
ATOM     17  C   UNL d   1      30.031 -17.540  -5.113  0.00  0.00     0.027 A 
ATOM     18  C   UNL d   1      31.344 -17.989  -5.665  0.00  0.00     0.027 A 
ENDBRANCH  14  16
ENDBRANCH  12  14
ENDBRANCH  10  12
ENDBRANCH   8  10
ENDBRANCH   5   6
ENDBRANCH   3   5
BRANCH   1  19
ATOM     19  C   UNL d   1      27.576 -16.970  -0.702  0.00  0.00     0.034 A 
ATOM     20  C   UNL d   1      26.787 -16.158  -1.562  0.00  0.00     0.056 A 
ATOM     21  C   UNL d   1      25.358 -16.218  -1.595  0.00  0.00     0.102 A 
ATOM     22  C   UNL d   1      24.728 -17.091  -0.683  0.00  0.00     0.108 A 
ATOM     23  C   UNL d   1      25.521 -17.818   0.227  0.00  0.00     0.041 A 
ATOM     24  C   UNL d   1      26.913 -17.756   0.230  0.00  0.00     0.020 A 
BRANCH  21  25
ATOM     25  O   UNL d   1      24.832 -15.630  -2.728  0.00  0.00    -0.353 OA
ATOM     26  C   UNL d   1      25.063 -14.281  -3.136  0.00  0.00     0.210 C 
ENDBRANCH  21  25
BRANCH  22  27
ATOM     27  O   UNL d   1      23.420 -17.473  -0.506  0.00  0.00    -0.287 OA
BRANCH  27  28
ATOM     28  C   UNL d   1      23.027 -18.605  -1.217  0.00  0.00     0.505 C 
ATOM     29  F   UNL d   1      23.468 -19.691  -0.542  0.00  0.00    -0.184 F 
ATOM     30  F   UNL d   1      21.677 -18.705  -1.243  0.00  0.00    -0.184 F 
ENDBRANCH  27  28
ENDBRANCH  22  27
ENDBRANCH   1  19
TORSDOF 10
ENDMDL
MODEL 9
REMARK VINA RESULT:    -4.343      5.377      7.681
REMARK INTER + INTRA:         -10.573
REMARK INTER:                  -7.326
REMARK INTRA:                  -3.247
REMARK CONF_INDEPENDENT:        2.983
REMARK UNBOUND:                -3.247
REMARK  10 active torsions:
REMARK  status: ('A' for Active; 'I' for Inactive)
REMARK    1  A    between atoms: O_2  and  C_3 
REMARK    2  A    between atoms: C_5  and  C_6 
REMARK       I    between atoms: C_6  and  N_8 
REMARK    3  A    between atoms: N_8  and  C_9 
REMARK    4  A    between atoms: C_9  and  C_10 
REMARK       I    between atoms: C_10  and  N_12 
REMARK    5  A    between atoms: N_12  and  N_13 
REMARK    6  A    between atoms: N_13  and  C_14 
REMARK    7  A    between atoms: C_14  and  N_16 
REMARK    8  A    between atoms: N_16  and  C_17 
REMARK    9  A    between atoms: C_22  and  O_23 
REMARK   10  A    between atoms: O_23  and  C_24 
ROOT
ATOM      1  C   UNL d   1      29.477 -15.620  -0.469  0.00  0.00     0.252 C 
ATOM      2  O   UNL d   1      29.348 -16.180   0.604  0.00  0.00    -0.268 OA
ATOM      3  N   UNL d   1      30.635 -14.906  -0.793  0.00  0.00    -0.348 N 
ATOM      4  H   UNL d   1      30.728 -14.396  -1.658  0.00  0.00     0.163 HD
ENDROOT
BRANCH   3   5
ATOM      5  C   UNL d   1      31.777 -14.761   0.124  0.00  0.00     0.227 C 
BRANCH   5   6
ATOM      6  C   UNL d   1      31.367 -14.090   1.472  0.00  0.00     0.253 C 
ATOM      7  O   UNL d   1      31.493 -12.878   1.663  0.00  0.00    -0.270 OA
ATOM      8  N   UNL d   1      30.850 -14.942   2.439  0.00  0.00    -0.267 N 
ATOM      9  H   UNL d   1      30.728 -15.945   2.295  0.00  0.00     0.190 HD
BRANCH   8  10
ATOM     10  N   UNL d   1      30.418 -14.452   3.723  0.00  0.00    -0.274 N 
ATOM     11  H   UNL d   1      31.156 -14.148   4.355  0.00  0.00     0.189 HD
BRANCH  10  12
ATOM     12  C   UNL d   1      29.058 -14.446   4.042  0.00  0.00     0.186 C 
ATOM     13  S   UNL d   1      28.531 -14.226   5.628  0.00  0.00    -0.040 SA
BRANCH  12  14
ATOM     14  N   UNL d   1      28.204 -14.667   2.957  0.00  0.00    -0.361 N 
ATOM     15  H   UNL d   1      28.335 -15.494   2.385  0.00  0.00     0.162 HD
BRANCH  14  16
ATOM     16  C   UNL d   1      27.260 -13.687   2.442  0.00  0.00     0.084 A 
ATOM     17  C   UNL d   1      27.654 -12.608   1.457  0.00  0.00     0.027 A 
ATOM     18  C   UNL d   1      26.813 -13.755   1.000  0.00  0.00     0.027 A 
ENDBRANCH  14  16
ENDBRANCH  12  14
ENDBRANCH  10  12
ENDBRANCH   8  10
ENDBRANCH   5   6
ENDBRANCH   3   5
BRANCH   1  19
ATOM     19  C   UNL d   1      28.338 -15.640  -1.477  0.00  0.00     0.034 A 
ATOM     20  C   UNL d   1      27.080 -16.211  -1.143  0.00  0.00     0.056 A 
ATOM     21  C   UNL d   1      25.910 -16.044  -1.950  0.00  0.00     0.102 A 
ATOM     22  C   UNL d   1      26.055 -15.323  -3.154  0.00  0.00     0.108 A 
ATOM     23  C   UNL d   1      27.330 -14.845  -3.516  0.00  0.00     0.041 A 
ATOM     24  C   UNL d   1      28.453 -15.005  -2.706  0.00  0.00     0.020 A 
BRANCH  21  25
ATOM     25  O   UNL d   1      24.751 -16.361  -1.269  0.00  0.00    -0.353 OA
ATOM     26  C   UNL d   1      24.580 -17.501  -0.425  0.00  0.00     0.210 C 
ENDBRANCH  21  25
BRANCH  22  27
ATOM     27  O   UNL d   1      25.155 -14.891  -4.098  0.00  0.00    -0.287 OA
BRANCH  27  28
ATOM     28  C   UNL d   1      24.863 -13.528  -4.066  0.00  0.00     0.505 C 
ATOM     29  F   UNL d   1      25.160 -13.071  -2.828  0.00  0.00    -0.184 F 
ATOM     30  F   UNL d   1      25.668 -12.850  -4.917  0.00  0.00    -0.184 F 
ENDBRANCH  27  28
ENDBRANCH  22  27
ENDBRANCH   1  19
TORSDOF 10
ENDMDL
