MODEL 1
REMARK VINA RESULT:    -8.607      0.000      0.000
REMARK INTER + INTRA:         -12.269
REMARK INTER:                 -10.696
REMARK INTRA:                  -1.574
REMARK CONF_INDEPENDENT:        2.088
REMARK UNBOUND:                -1.574
REMARK  7 active torsions:
REMARK  status: ('A' for Active; 'I' for Inactive)
REMARK    1  A    between atoms: C_4  and  S_5 
REMARK    2  A    between atoms: S_5  and  N_6 
REMARK    3  A    between atoms: C_10  and  N_11 
REMARK       I    between atoms: N_11  and  C_12 
REMARK    4  A    between atoms: C_12  and  C_14 
REMARK    5  A    between atoms: C_14  and  O_15 
REMARK    6  A    between atoms: O_15  and  C_16 
REMARK    7  A    between atoms: C_20  and  N_21 
ROOT
ATOM      1  N   UNL d   1      26.099 -16.026  -2.998  0.00  0.00    -0.325 N 
ATOM      2  C   UNL d   1      25.451 -14.914  -3.551  0.00  0.00     0.246 C 
ATOM      3  O   UNL d   1      24.369 -14.456  -3.191  0.00  0.00    -0.271 OA
ATOM      4  H   UNL d   1      26.979 -16.312  -3.409  0.00  0.00     0.169 HD
ENDROOT
BRANCH   1   5
ATOM      5  C   UNL d   1      25.598 -16.802  -1.909  0.00  0.00     0.042 A 
ATOM      6  C   UNL d   1      24.229 -17.100  -1.852  0.00  0.00     0.055 A 
ATOM      7  C   UNL d   1      23.667 -17.845  -0.828  0.00  0.00     0.082 A 
ATOM      8  C   UNL d   1      24.462 -18.307   0.203  0.00  0.00     0.032 A 
ATOM      9  C   UNL d   1      25.843 -18.033   0.197  0.00  0.00    -0.052 A 
ATOM     10  C   UNL d   1      26.655 -18.558   1.355  0.00  0.00     0.049 C 
ATOM     11  C   UNL d   1      26.435 -17.291  -0.874  0.00  0.00    -0.029 A 
ATOM     12  C   UNL d   1      27.933 -17.076  -0.844  0.00  0.00     0.051 C 
BRANCH   7  13
ATOM     13  S   UNL d   1      21.937 -18.225  -0.917  0.00  0.00     0.256 S 
ATOM     14  O   UNL d   1      21.217 -16.974  -1.045  0.00  0.00    -0.201 OA
ATOM     15  O   UNL d   1      21.764 -19.321  -1.834  0.00  0.00    -0.201 OA
BRANCH  13  16
ATOM     16  N   UNL d   1      21.625 -18.823   0.611  0.00  0.00    -0.324 N 
ATOM     17  H   UNL d   1      21.448 -18.131   1.336  0.00  0.00     0.169 HD
ATOM     18  H   UNL d   1      22.071 -19.703   0.845  0.00  0.00     0.169 HD
ENDBRANCH  13  16
ENDBRANCH   7  13
ENDBRANCH   1   5
BRANCH   2  19
ATOM     19  C   UNL d   1      26.158 -14.288  -4.736  0.00  0.00     0.278 C 
BRANCH  19  20
ATOM     20  O   UNL d   1      27.159 -15.205  -5.195  0.00  0.00    -0.341 OA
BRANCH  20  21
ATOM     21  C   UNL d   1      28.258 -14.727  -5.858  0.00  0.00     0.077 A 
ATOM     22  C   UNL d   1      28.018 -13.524  -6.548  0.00  0.00     0.037 A 
ATOM     23  C   UNL d   1      29.017 -12.936  -7.313  0.00  0.00     0.005 A 
ATOM     24  C   UNL d   1      30.258 -13.556  -7.408  0.00  0.00     0.037 A 
ATOM     25  C   UNL d   1      30.507 -14.786  -6.761  0.00  0.00     0.111 A 
ATOM     26  C   UNL d   1      29.496 -15.405  -5.986  0.00  0.00     0.004 A 
ATOM     27  C   UNL d   1      29.655 -16.745  -5.332  0.00  0.00     0.054 C 
BRANCH  25  28
ATOM     28  N   UNL d   1      31.866 -15.357  -6.952  0.00  0.00    -0.115 N 
ATOM     29  O   UNL d   1      31.951 -16.443  -7.543  0.00  0.00    -0.532 OA
ATOM     30  O   UNL d   1      32.857 -14.743  -6.545  0.00  0.00    -0.532 OA
ENDBRANCH  25  28
ENDBRANCH  20  21
ENDBRANCH  19  20
ENDBRANCH   2  19
TORSDOF 7
ENDMDL
MODEL 2
REMARK VINA RESULT:    -8.291      3.574      5.060
REMARK INTER + INTRA:         -11.972
REMARK INTER:                 -10.379
REMARK INTRA:                  -1.593
REMARK CONF_INDEPENDENT:        2.088
REMARK UNBOUND:                -1.593
REMARK  7 active torsions:
REMARK  status: ('A' for Active; 'I' for Inactive)
REMARK    1  A    between atoms: C_4  and  S_5 
REMARK    2  A    between atoms: S_5  and  N_6 
REMARK    3  A    between atoms: C_10  and  N_11 
REMARK       I    between atoms: N_11  and  C_12 
REMARK    4  A    between atoms: C_12  and  C_14 
REMARK    5  A    between atoms: C_14  and  O_15 
REMARK    6  A    between atoms: O_15  and  C_16 
REMARK    7  A    between atoms: C_20  and  N_21 
ROOT
ATOM      1  N   UNL d   1      25.499 -14.881  -2.432  0.00  0.00    -0.325 N 
ATOM      2  C   UNL d   1      25.627 -14.896  -3.827  0.00  0.00     0.246 C 
ATOM      3  O   UNL d   1      25.530 -15.884  -4.551  0.00  0.00    -0.271 OA
ATOM      4  H   UNL d   1      25.628 -13.997  -1.956  0.00  0.00     0.169 HD
ENDROOT
BRANCH   1   5
ATOM      5  C   UNL d   1      25.223 -16.028  -1.629  0.00  0.00     0.042 A 
ATOM      6  C   UNL d   1      23.914 -16.528  -1.572  0.00  0.00     0.055 A 
ATOM      7  C   UNL d   1      23.568 -17.635  -0.815  0.00  0.00     0.082 A 
ATOM      8  C   UNL d   1      24.527 -18.279  -0.057  0.00  0.00     0.032 A 
ATOM      9  C   UNL d   1      25.856 -17.816  -0.074  0.00  0.00    -0.052 A 
ATOM     10  C   UNL d   1      26.855 -18.556   0.781  0.00  0.00     0.049 C 
ATOM     11  C   UNL d   1      26.227 -16.692  -0.879  0.00  0.00    -0.029 A 
ATOM     12  C   UNL d   1      27.683 -16.279  -0.890  0.00  0.00     0.051 C 
BRANCH   7  13
ATOM     13  S   UNL d   1      21.894 -18.219  -0.896  0.00  0.00     0.256 S 
ATOM     14  O   UNL d   1      21.030 -17.062  -1.017  0.00  0.00    -0.201 OA
ATOM     15  O   UNL d   1      21.849 -19.325  -1.815  0.00  0.00    -0.201 OA
BRANCH  13  16
ATOM     16  N   UNL d   1      21.664 -18.852   0.632  0.00  0.00    -0.324 N 
ATOM     17  H   UNL d   1      21.454 -18.183   1.368  0.00  0.00     0.169 HD
ATOM     18  H   UNL d   1      22.178 -19.700   0.845  0.00  0.00     0.169 HD
ENDBRANCH  13  16
ENDBRANCH   7  13
ENDBRANCH   1   5
BRANCH   2  19
ATOM     19  C   UNL d   1      25.975 -13.558  -4.450  0.00  0.00     0.278 C 
BRANCH  19  20
ATOM     20  O   UNL d   1      26.644 -12.766  -3.461  0.00  0.00    -0.341 OA
BRANCH  20  21
ATOM     21  C   UNL d   1      26.341 -11.435  -3.347  0.00  0.00     0.077 A 
ATOM     22  C   UNL d   1      25.770 -10.888  -4.510  0.00  0.00     0.037 A 
ATOM     23  C   UNL d   1      25.452  -9.537  -4.574  0.00  0.00     0.005 A 
ATOM     24  C   UNL d   1      25.724  -8.719  -3.482  0.00  0.00     0.037 A 
ATOM     25  C   UNL d   1      26.338  -9.238  -2.322  0.00  0.00     0.111 A 
ATOM     26  C   UNL d   1      26.677 -10.611  -2.243  0.00  0.00     0.004 A 
ATOM     27  C   UNL d   1      27.400 -11.222  -1.081  0.00  0.00     0.054 C 
BRANCH  25  28
ATOM     28  N   UNL d   1      26.591  -8.262  -1.229  0.00  0.00    -0.115 N 
ATOM     29  O   UNL d   1      25.775  -8.225  -0.297  0.00  0.00    -0.532 OA
ATOM     30  O   UNL d   1      27.595  -7.544  -1.262  0.00  0.00    -0.532 OA
ENDBRANCH  25  28
ENDBRANCH  20  21
ENDBRANCH  19  20
ENDBRANCH   2  19
TORSDOF 7
ENDMDL
MODEL 3
REMARK VINA RESULT:    -8.263      0.964      1.757
REMARK INTER + INTRA:         -11.973
REMARK INTER:                 -10.351
REMARK INTRA:                  -1.622
REMARK CONF_INDEPENDENT:        2.088
REMARK UNBOUND:                -1.622
REMARK  7 active torsions:
REMARK  status: ('A' for Active; 'I' for Inactive)
REMARK    1  A    between atoms: C_4  and  S_5 
REMARK    2  A    between atoms: S_5  and  N_6 
REMARK    3  A    between atoms: C_10  and  N_11 
REMARK       I    between atoms: N_11  and  C_12 
REMARK    4  A    between atoms: C_12  and  C_14 
REMARK    5  A    between atoms: C_14  and  O_15 
REMARK    6  A    between atoms: O_15  and  C_16 
REMARK    7  A    between atoms: C_20  and  N_21 
ROOT
ATOM      1  N   UNL d   1      26.053 -16.015  -2.989  0.00  0.00    -0.325 N 
ATOM      2  C   UNL d   1      25.410 -14.886  -3.512  0.00  0.00     0.246 C 
ATOM      3  O   UNL d   1      24.344 -14.416  -3.122  0.00  0.00    -0.271 OA
ATOM      4  H   UNL d   1      26.918 -16.309  -3.424  0.00  0.00     0.169 HD
ENDROOT
BRANCH   1   5
ATOM      5  C   UNL d   1      25.564 -16.798  -1.900  0.00  0.00     0.042 A 
ATOM      6  C   UNL d   1      24.199 -17.109  -1.837  0.00  0.00     0.055 A 
ATOM      7  C   UNL d   1      23.649 -17.862  -0.812  0.00  0.00     0.082 A 
ATOM      8  C   UNL d   1      24.453 -18.320   0.214  0.00  0.00     0.032 A 
ATOM      9  C   UNL d   1      25.831 -18.033   0.201  0.00  0.00    -0.052 A 
ATOM     10  C   UNL d   1      26.654 -18.553   1.354  0.00  0.00     0.049 C 
ATOM     11  C   UNL d   1      26.411 -17.282  -0.870  0.00  0.00    -0.029 A 
ATOM     12  C   UNL d   1      27.907 -17.054  -0.847  0.00  0.00     0.051 C 
BRANCH   7  13
ATOM     13  S   UNL d   1      21.921 -18.258  -0.893  0.00  0.00     0.256 S 
ATOM     14  O   UNL d   1      21.187 -17.011  -0.972  0.00  0.00    -0.201 OA
ATOM     15  O   UNL d   1      21.749 -19.325  -1.843  0.00  0.00    -0.201 OA
BRANCH  13  16
ATOM     16  N   UNL d   1      21.634 -18.907   0.618  0.00  0.00    -0.324 N 
ATOM     17  H   UNL d   1      21.306 -18.259   1.331  0.00  0.00     0.169 HD
ATOM     18  H   UNL d   1      22.207 -19.703   0.878  0.00  0.00     0.169 HD
ENDBRANCH  13  16
ENDBRANCH   7  13
ENDBRANCH   1   5
BRANCH   2  19
ATOM     19  C   UNL d   1      26.100 -14.254  -4.705  0.00  0.00     0.278 C 
BRANCH  19  20
ATOM     20  O   UNL d   1      26.858 -15.270  -5.371  0.00  0.00    -0.341 OA
BRANCH  20  21
ATOM     21  C   UNL d   1      28.225 -15.181  -5.400  0.00  0.00     0.077 A 
ATOM     22  C   UNL d   1      28.858 -15.957  -4.411  0.00  0.00     0.037 A 
ATOM     23  C   UNL d   1      30.240 -15.938  -4.273  0.00  0.00     0.005 A 
ATOM     24  C   UNL d   1      30.998 -15.126  -5.111  0.00  0.00     0.037 A 
ATOM     25  C   UNL d   1      30.381 -14.305  -6.080  0.00  0.00     0.111 A 
ATOM     26  C   UNL d   1      28.972 -14.305  -6.227  0.00  0.00     0.004 A 
ATOM     27  C   UNL d   1      28.236 -13.408  -7.177  0.00  0.00     0.054 C 
BRANCH  25  28
ATOM     28  N   UNL d   1      31.296 -13.471  -6.903  0.00  0.00    -0.115 N 
ATOM     29  O   UNL d   1      31.156 -12.242  -6.843  0.00  0.00    -0.532 OA
ATOM     30  O   UNL d   1      32.166 -14.009  -7.595  0.00  0.00    -0.532 OA
ENDBRANCH  25  28
ENDBRANCH  20  21
ENDBRANCH  19  20
ENDBRANCH   2  19
TORSDOF 7
ENDMDL
MODEL 4
REMARK VINA RESULT:    -8.031      1.745      2.254
REMARK INTER + INTRA:         -11.460
REMARK INTER:                 -10.119
REMARK INTRA:                  -1.341
REMARK CONF_INDEPENDENT:        2.088
REMARK UNBOUND:                -1.341
REMARK  7 active torsions:
REMARK  status: ('A' for Active; 'I' for Inactive)
REMARK    1  A    between atoms: C_4  and  S_5 
REMARK    2  A    between atoms: S_5  and  N_6 
REMARK    3  A    between atoms: C_10  and  N_11 
REMARK       I    between atoms: N_11  and  C_12 
REMARK    4  A    between atoms: C_12  and  C_14 
REMARK    5  A    between atoms: C_14  and  O_15 
REMARK    6  A    between atoms: O_15  and  C_16 
REMARK    7  A    between atoms: C_20  and  N_21 
ROOT
ATOM      1  N   UNL d   1      25.377 -14.563  -1.839  0.00  0.00    -0.325 N 
ATOM      2  C   UNL d   1      25.355 -14.285  -3.213  0.00  0.00     0.246 C 
ATOM      3  O   UNL d   1      25.155 -15.099  -4.111  0.00  0.00    -0.271 OA
ATOM      4  H   UNL d   1      25.579 -13.799  -1.207  0.00  0.00     0.169 HD
ENDROOT
BRANCH   1   5
ATOM      5  C   UNL d   1      25.157 -15.852  -1.267  0.00  0.00     0.042 A 
ATOM      6  C   UNL d   1      23.865 -16.396  -1.278  0.00  0.00     0.055 A 
ATOM      7  C   UNL d   1      23.572 -17.640  -0.741  0.00  0.00     0.082 A 
ATOM      8  C   UNL d   1      24.571 -18.386  -0.145  0.00  0.00     0.032 A 
ATOM      9  C   UNL d   1      25.885 -17.885  -0.105  0.00  0.00    -0.052 A 
ATOM     10  C   UNL d   1      26.930 -18.742   0.567  0.00  0.00     0.049 C 
ATOM     11  C   UNL d   1      26.201 -16.615  -0.685  0.00  0.00    -0.029 A 
ATOM     12  C   UNL d   1      27.644 -16.159  -0.651  0.00  0.00     0.051 C 
BRANCH   7  13
ATOM     13  S   UNL d   1      21.914 -18.252  -0.894  0.00  0.00     0.256 S 
ATOM     14  O   UNL d   1      21.030 -17.108  -0.999  0.00  0.00    -0.201 OA
ATOM     15  O   UNL d   1      21.918 -19.324  -1.853  0.00  0.00    -0.201 OA
BRANCH  13  16
ATOM     16  N   UNL d   1      21.651 -18.946   0.602  0.00  0.00    -0.324 N 
ATOM     17  H   UNL d   1      21.160 -18.371   1.283  0.00  0.00     0.169 HD
ATOM     18  H   UNL d   1      22.345 -19.619   0.909  0.00  0.00     0.169 HD
ENDBRANCH  13  16
ENDBRANCH   7  13
ENDBRANCH   1   5
BRANCH   2  19
ATOM     19  C   UNL d   1      25.671 -12.848  -3.577  0.00  0.00     0.278 C 
BRANCH  19  20
ATOM     20  O   UNL d   1      26.891 -12.836  -4.326  0.00  0.00    -0.341 OA
BRANCH  20  21
ATOM     21  C   UNL d   1      27.876 -13.740  -4.026  0.00  0.00     0.077 A 
ATOM     22  C   UNL d   1      28.475 -13.521  -2.772  0.00  0.00     0.037 A 
ATOM     23  C   UNL d   1      29.525 -14.321  -2.340  0.00  0.00     0.005 A 
ATOM     24  C   UNL d   1      29.998 -15.333  -3.169  0.00  0.00     0.037 A 
ATOM     25  C   UNL d   1      29.441 -15.542  -4.449  0.00  0.00     0.111 A 
ATOM     26  C   UNL d   1      28.377 -14.729  -4.910  0.00  0.00     0.004 A 
ATOM     27  C   UNL d   1      27.784 -14.836  -6.282  0.00  0.00     0.054 C 
BRANCH  25  28
ATOM     28  N   UNL d   1      30.041 -16.644  -5.247  0.00  0.00    -0.115 N 
ATOM     29  O   UNL d   1      30.220 -16.441  -6.456  0.00  0.00    -0.532 OA
ATOM     30  O   UNL d   1      30.360 -17.702  -4.696  0.00  0.00    -0.532 OA
ENDBRANCH  25  28
ENDBRANCH  20  21
ENDBRANCH  19  20
ENDBRANCH   2  19
TORSDOF 7
ENDMDL
MODEL 5
REMARK VINA RESULT:    -7.979      1.399      1.639
REMARK INTER + INTRA:         -11.726
REMARK INTER:                 -10.068
REMARK INTRA:                  -1.658
REMARK CONF_INDEPENDENT:        2.088
REMARK UNBOUND:                -1.658
REMARK  7 active torsions:
REMARK  status: ('A' for Active; 'I' for Inactive)
REMARK    1  A    between atoms: C_4  and  S_5 
REMARK    2  A    between atoms: S_5  and  N_6 
REMARK    3  A    between atoms: C_10  and  N_11 
REMARK       I    between atoms: N_11  and  C_12 
REMARK    4  A    between atoms: C_12  and  C_14 
REMARK    5  A    between atoms: C_14  and  O_15 
REMARK    6  A    between atoms: O_15  and  C_16 
REMARK    7  A    between atoms: C_20  and  N_21 
ROOT
ATOM      1  N   UNL d   1      26.038 -15.994  -3.002  0.00  0.00    -0.325 N 
ATOM      2  C   UNL d   1      25.366 -14.893  -3.549  0.00  0.00     0.246 C 
ATOM      3  O   UNL d   1      24.281 -14.451  -3.177  0.00  0.00    -0.271 OA
ATOM      4  H   UNL d   1      26.917 -16.267  -3.424  0.00  0.00     0.169 HD
ENDROOT
BRANCH   1   5
ATOM      5  C   UNL d   1      25.562 -16.775  -1.906  0.00  0.00     0.042 A 
ATOM      6  C   UNL d   1      24.201 -17.101  -1.836  0.00  0.00     0.055 A 
ATOM      7  C   UNL d   1      23.663 -17.853  -0.804  0.00  0.00     0.082 A 
ATOM      8  C   UNL d   1      24.476 -18.294   0.223  0.00  0.00     0.032 A 
ATOM      9  C   UNL d   1      25.850 -17.992   0.203  0.00  0.00    -0.052 A 
ATOM     10  C   UNL d   1      26.684 -18.494   1.357  0.00  0.00     0.049 C 
ATOM     11  C   UNL d   1      26.418 -17.242  -0.876  0.00  0.00    -0.029 A 
ATOM     12  C   UNL d   1      27.911 -16.996  -0.860  0.00  0.00     0.051 C 
BRANCH   7  13
ATOM     13  S   UNL d   1      21.940 -18.270  -0.876  0.00  0.00     0.256 S 
ATOM     14  O   UNL d   1      21.190 -17.031  -0.930  0.00  0.00    -0.201 OA
ATOM     15  O   UNL d   1      21.773 -19.325  -1.840  0.00  0.00    -0.201 OA
BRANCH  13  16
ATOM     16  N   UNL d   1      21.674 -18.946   0.628  0.00  0.00    -0.324 N 
ATOM     17  H   UNL d   1      21.725 -19.961   0.679  0.00  0.00     0.169 HD
ATOM     18  H   UNL d   1      21.049 -18.435   1.242  0.00  0.00     0.169 HD
ENDBRANCH  13  16
ENDBRANCH   7  13
ENDBRANCH   1   5
BRANCH   2  19
ATOM     19  C   UNL d   1      26.048 -14.259  -4.745  0.00  0.00     0.278 C 
BRANCH  19  20
ATOM     20  O   UNL d   1      26.974 -15.208  -5.286  0.00  0.00    -0.341 OA
BRANCH  20  21
ATOM     21  C   UNL d   1      28.273 -14.833  -5.506  0.00  0.00     0.077 A 
ATOM     22  C   UNL d   1      28.626 -14.806  -6.868  0.00  0.00     0.037 A 
ATOM     23  C   UNL d   1      29.923 -14.494  -7.256  0.00  0.00     0.005 A 
ATOM     24  C   UNL d   1      30.882 -14.227  -6.284  0.00  0.00     0.037 A 
ATOM     25  C   UNL d   1      30.561 -14.292  -4.911  0.00  0.00     0.111 A 
ATOM     26  C   UNL d   1      29.246 -14.618  -4.497  0.00  0.00     0.004 A 
ATOM     27  C   UNL d   1      28.844 -14.783  -3.062  0.00  0.00     0.054 C 
BRANCH  25  28
ATOM     28  N   UNL d   1      31.673 -14.001  -3.969  0.00  0.00    -0.115 N 
ATOM     29  O   UNL d   1      31.816 -12.827  -3.600  0.00  0.00    -0.532 OA
ATOM     30  O   UNL d   1      32.399 -14.917  -3.569  0.00  0.00    -0.532 OA
ENDBRANCH  25  28
ENDBRANCH  20  21
ENDBRANCH  19  20
ENDBRANCH   2  19
TORSDOF 7
ENDMDL
MODEL 6
REMARK VINA RESULT:    -7.805      3.798      5.039
REMARK INTER + INTRA:         -11.597
REMARK INTER:                  -9.893
REMARK INTRA:                  -1.704
REMARK CONF_INDEPENDENT:        2.088
REMARK UNBOUND:                -1.704
REMARK  7 active torsions:
REMARK  status: ('A' for Active; 'I' for Inactive)
REMARK    1  A    between atoms: C_4  and  S_5 
REMARK    2  A    between atoms: S_5  and  N_6 
REMARK    3  A    between atoms: C_10  and  N_11 
REMARK       I    between atoms: N_11  and  C_12 
REMARK    4  A    between atoms: C_12  and  C_14 
REMARK    5  A    between atoms: C_14  and  O_15 
REMARK    6  A    between atoms: O_15  and  C_16 
REMARK    7  A    between atoms: C_20  and  N_21 
ROOT
ATOM      1  N   UNL d   1      25.243 -14.553  -2.447  0.00  0.00    -0.325 N 
ATOM      2  C   UNL d   1      25.390 -14.497  -3.839  0.00  0.00     0.246 C 
ATOM      3  O   UNL d   1      25.422 -15.460  -4.602  0.00  0.00    -0.271 OA
ATOM      4  H   UNL d   1      25.259 -13.680  -1.936  0.00  0.00     0.169 HD
ENDROOT
BRANCH   1   5
ATOM      5  C   UNL d   1      25.096 -15.756  -1.693  0.00  0.00     0.042 A 
ATOM      6  C   UNL d   1      23.827 -16.341  -1.575  0.00  0.00     0.055 A 
ATOM      7  C   UNL d   1      23.604 -17.506  -0.859  0.00  0.00     0.082 A 
ATOM      8  C   UNL d   1      24.653 -18.126  -0.208  0.00  0.00     0.032 A 
ATOM      9  C   UNL d   1      25.947 -17.579  -0.291  0.00  0.00    -0.052 A 
ATOM     10  C   UNL d   1      27.049 -18.298   0.448  0.00  0.00     0.049 C 
ATOM     11  C   UNL d   1      26.190 -16.393  -1.054  0.00  0.00    -0.029 A 
ATOM     12  C   UNL d   1      27.614 -15.888  -1.144  0.00  0.00     0.051 C 
BRANCH   7  13
ATOM     13  S   UNL d   1      21.967 -18.191  -0.856  0.00  0.00     0.256 S 
ATOM     14  O   UNL d   1      21.030 -17.091  -0.974  0.00  0.00    -0.201 OA
ATOM     15  O   UNL d   1      21.953 -19.324  -1.743  0.00  0.00    -0.201 OA
BRANCH  13  16
ATOM     16  N   UNL d   1      21.835 -18.791   0.696  0.00  0.00    -0.324 N 
ATOM     17  H   UNL d   1      21.757 -19.802   0.781  0.00  0.00     0.169 HD
ATOM     18  H   UNL d   1      21.379 -18.187   1.370  0.00  0.00     0.169 HD
ENDBRANCH  13  16
ENDBRANCH   7  13
ENDBRANCH   1   5
BRANCH   2  19
ATOM     19  C   UNL d   1      25.584 -13.103  -4.404  0.00  0.00     0.278 C 
BRANCH  19  20
ATOM     20  O   UNL d   1      25.241 -12.157  -3.385  0.00  0.00    -0.341 OA
BRANCH  20  21
ATOM     21  C   UNL d   1      26.191 -11.280  -2.932  0.00  0.00     0.077 A 
ATOM     22  C   UNL d   1      27.092 -11.854  -2.017  0.00  0.00     0.037 A 
ATOM     23  C   UNL d   1      28.085 -11.084  -1.425  0.00  0.00     0.005 A 
ATOM     24  C   UNL d   1      28.171  -9.729  -1.730  0.00  0.00     0.037 A 
ATOM     25  C   UNL d   1      27.250  -9.123  -2.611  0.00  0.00     0.111 A 
ATOM     26  C   UNL d   1      26.225  -9.891  -3.215  0.00  0.00     0.004 A 
ATOM     27  C   UNL d   1      25.163  -9.310  -4.099  0.00  0.00     0.054 C 
BRANCH  25  28
ATOM     28  N   UNL d   1      27.435  -7.667  -2.845  0.00  0.00    -0.115 N 
ATOM     29  O   UNL d   1      26.909  -6.888  -2.038  0.00  0.00    -0.532 OA
ATOM     30  O   UNL d   1      28.111  -7.276  -3.802  0.00  0.00    -0.532 OA
ENDBRANCH  25  28
ENDBRANCH  20  21
ENDBRANCH  19  20
ENDBRANCH   2  19
TORSDOF 7
ENDMDL
MODEL 7
REMARK VINA RESULT:    -7.792      5.454      8.169
REMARK INTER + INTRA:         -10.882
REMARK INTER:                  -9.880
REMARK INTRA:                  -1.002
REMARK CONF_INDEPENDENT:        2.088
REMARK UNBOUND:                -1.002
REMARK  7 active torsions:
REMARK  status: ('A' for Active; 'I' for Inactive)
REMARK    1  A    between atoms: C_4  and  S_5 
REMARK    2  A    between atoms: S_5  and  N_6 
REMARK    3  A    between atoms: C_10  and  N_11 
REMARK       I    between atoms: N_11  and  C_12 
REMARK    4  A    between atoms: C_12  and  C_14 
REMARK    5  A    between atoms: C_14  and  O_15 
REMARK    6  A    between atoms: O_15  and  C_16 
REMARK    7  A    between atoms: C_20  and  N_21 
ROOT
ATOM      1  N   UNL d   1      27.912 -15.446   0.329  0.00  0.00    -0.325 N 
ATOM      2  C   UNL d   1      27.765 -14.587   1.426  0.00  0.00     0.246 C 
ATOM      3  O   UNL d   1      26.727 -14.030   1.775  0.00  0.00    -0.271 OA
ATOM      4  H   UNL d   1      28.834 -15.817   0.141  0.00  0.00     0.169 HD
ENDROOT
BRANCH   1   5
ATOM      5  C   UNL d   1      26.857 -15.818  -0.558  0.00  0.00     0.042 A 
ATOM      6  C   UNL d   1      26.651 -15.075  -1.729  0.00  0.00     0.055 A 
ATOM      7  C   UNL d   1      25.649 -15.373  -2.638  0.00  0.00     0.082 A 
ATOM      8  C   UNL d   1      24.789 -16.428  -2.394  0.00  0.00     0.032 A 
ATOM      9  C   UNL d   1      24.950 -17.204  -1.232  0.00  0.00    -0.052 A 
ATOM     10  C   UNL d   1      23.974 -18.336  -1.018  0.00  0.00     0.049 C 
ATOM     11  C   UNL d   1      26.002 -16.921  -0.304  0.00  0.00    -0.029 A 
ATOM     12  C   UNL d   1      26.149 -17.828   0.899  0.00  0.00     0.051 C 
BRANCH   7  13
ATOM     13  S   UNL d   1      25.546 -14.409  -4.123  0.00  0.00     0.256 S 
ATOM     14  O   UNL d   1      26.531 -13.349  -4.028  0.00  0.00    -0.201 OA
ATOM     15  O   UNL d   1      25.479 -15.312  -5.241  0.00  0.00    -0.201 OA
BRANCH  13  16
ATOM     16  N   UNL d   1      24.040 -13.701  -3.985  0.00  0.00    -0.324 N 
ATOM     17  H   UNL d   1      23.334 -14.015  -4.647  0.00  0.00     0.169 HD
ATOM     18  H   UNL d   1      24.026 -12.747  -3.639  0.00  0.00     0.169 HD
ENDBRANCH  13  16
ENDBRANCH   7  13
ENDBRANCH   1   5
BRANCH   2  19
ATOM     19  C   UNL d   1      29.045 -14.301   2.188  0.00  0.00     0.278 C 
BRANCH  19  20
ATOM     20  O   UNL d   1      29.355 -12.912   2.034  0.00  0.00    -0.341 OA
BRANCH  20  21
ATOM     21  C   UNL d   1      28.693 -11.984   2.794  0.00  0.00     0.077 A 
ATOM     22  C   UNL d   1      28.950 -12.103   4.172  0.00  0.00     0.037 A 
ATOM     23  C   UNL d   1      28.315 -11.269   5.084  0.00  0.00     0.005 A 
ATOM     24  C   UNL d   1      27.403 -10.324   4.626  0.00  0.00     0.037 A 
ATOM     25  C   UNL d   1      27.096 -10.218   3.252  0.00  0.00     0.111 A 
ATOM     26  C   UNL d   1      27.727 -11.067   2.309  0.00  0.00     0.004 A 
ATOM     27  C   UNL d   1      27.400 -11.070   0.846  0.00  0.00     0.054 C 
BRANCH  25  28
ATOM     28  N   UNL d   1      26.095  -9.181   2.887  0.00  0.00    -0.115 N 
ATOM     29  O   UNL d   1      24.979  -9.572   2.516  0.00  0.00    -0.532 OA
ATOM     30  O   UNL d   1      26.384  -7.984   2.981  0.00  0.00    -0.532 OA
ENDBRANCH  25  28
ENDBRANCH  20  21
ENDBRANCH  19  20
ENDBRANCH   2  19
TORSDOF 7
ENDMDL
MODEL 8
REMARK VINA RESULT:    -5.915      3.215      4.658
REMARK INTER + INTRA:         -11.641
REMARK INTER:                  -8.003
REMARK INTRA:                  -3.637
REMARK CONF_INDEPENDENT:        2.088
REMARK UNBOUND:                -3.637
REMARK  7 active torsions:
REMARK  status: ('A' for Active; 'I' for Inactive)
REMARK    1  A    between atoms: C_4  and  S_5 
REMARK    2  A    between atoms: S_5  and  N_6 
REMARK    3  A    between atoms: C_10  and  N_11 
REMARK       I    between atoms: N_11  and  C_12 
REMARK    4  A    between atoms: C_12  and  C_14 
REMARK    5  A    between atoms: C_14  and  O_15 
REMARK    6  A    between atoms: O_15  and  C_16 
REMARK    7  A    between atoms: C_20  and  N_21 
ROOT
ATOM      1  N   UNL d   1      28.308 -17.044  -0.981  0.00  0.00    -0.325 N 
ATOM      2  C   UNL d   1      29.183 -16.289  -0.189  0.00  0.00     0.246 C 
ATOM      3  O   UNL d   1      28.905 -15.252   0.409  0.00  0.00    -0.271 OA
ATOM      4  H   UNL d   1      28.677 -17.868  -1.438  0.00  0.00     0.169 HD
ENDROOT
BRANCH   1   5
ATOM      5  C   UNL d   1      26.936 -16.721  -1.210  0.00  0.00     0.042 A 
ATOM      6  C   UNL d   1      26.613 -15.688  -2.101  0.00  0.00     0.055 A 
ATOM      7  C   UNL d   1      25.307 -15.316  -2.374  0.00  0.00     0.082 A 
ATOM      8  C   UNL d   1      24.261 -15.958  -1.739  0.00  0.00     0.032 A 
ATOM      9  C   UNL d   1      24.529 -17.000  -0.832  0.00  0.00    -0.052 A 
ATOM     10  C   UNL d   1      23.345 -17.656  -0.165  0.00  0.00     0.049 C 
ATOM     11  C   UNL d   1      25.875 -17.411  -0.569  0.00  0.00    -0.029 A 
ATOM     12  C   UNL d   1      26.089 -18.572   0.378  0.00  0.00     0.051 C 
BRANCH   7  13
ATOM     13  S   UNL d   1      25.029 -14.051  -3.586  0.00  0.00     0.256 S 
ATOM     14  O   UNL d   1      23.621 -14.072  -3.929  0.00  0.00    -0.201 OA
ATOM     15  O   UNL d   1      25.707 -12.857  -3.152  0.00  0.00    -0.201 OA
BRANCH  13  16
ATOM     16  N   UNL d   1      25.871 -14.631  -4.906  0.00  0.00    -0.324 N 
ATOM     17  H   UNL d   1      26.015 -15.637  -4.939  0.00  0.00     0.169 HD
ATOM     18  H   UNL d   1      26.561 -14.003  -5.305  0.00  0.00     0.169 HD
ENDBRANCH  13  16
ENDBRANCH   7  13
ENDBRANCH   1   5
BRANCH   2  19
ATOM     19  C   UNL d   1      30.607 -16.807  -0.142  0.00  0.00     0.278 C 
BRANCH  19  20
ATOM     20  O   UNL d   1      31.293 -16.332  -1.306  0.00  0.00    -0.341 OA
BRANCH  20  21
ATOM     21  C   UNL d   1      30.731 -16.517  -2.542  0.00  0.00     0.077 A 
ATOM     22  C   UNL d   1      31.121 -17.718  -3.161  0.00  0.00     0.037 A 
ATOM     23  C   UNL d   1      30.679 -18.030  -4.441  0.00  0.00     0.005 A 
ATOM     24  C   UNL d   1      29.858 -17.133  -5.117  0.00  0.00     0.037 A 
ATOM     25  C   UNL d   1      29.490 -15.902  -4.532  0.00  0.00     0.111 A 
ATOM     26  C   UNL d   1      29.941 -15.563  -3.233  0.00  0.00     0.004 A 
ATOM     27  C   UNL d   1      29.660 -14.246  -2.573  0.00  0.00     0.054 C 
BRANCH  25  28
ATOM     28  N   UNL d   1      28.624 -15.022  -5.359  0.00  0.00    -0.115 N 
ATOM     29  O   UNL d   1      27.832 -15.570  -6.138  0.00  0.00    -0.532 OA
ATOM     30  O   UNL d   1      28.695 -13.795  -5.238  0.00  0.00    -0.532 OA
ENDBRANCH  25  28
ENDBRANCH  20  21
ENDBRANCH  19  20
ENDBRANCH   2  19
TORSDOF 7
ENDMDL
