MODEL 1
REMARK VINA RESULT:   -10.132      0.000      0.000
REMARK INTER + INTRA:         -13.493
REMARK INTER:                 -12.220
REMARK INTRA:                  -1.273
REMARK CONF_INDEPENDENT:        2.088
REMARK UNBOUND:                -1.273
REMARK  7 active torsions:
REMARK  status: ('A' for Active; 'I' for Inactive)
REMARK    1  A    between atoms: O_2  and  C_3 
REMARK    2  A    between atoms: C_5  and  S_6 
REMARK    3  A    between atoms: S_6  and  N_9 
REMARK    4  A    between atoms: N_9  and  C_10 
REMARK    5  A    between atoms: C_18  and  N_19 
REMARK       I    between atoms: N_19  and  C_20 
REMARK    6  A    between atoms: C_20  and  C_22 
REMARK    7  A    between atoms: C_27  and  N_28 
ROOT
ATOM      1  C   UNL d   1      25.606 -17.216  -0.085  0.00  0.00     0.096 C 
ATOM      2  C   UNL d   1      24.327 -17.799  -0.059  0.00  0.00     0.064 C 
ATOM      3  C   UNL d   1      23.296 -17.332  -0.892  0.00  0.00     0.082 C 
ATOM      4  C   UNL d   1      23.491 -16.181  -1.642  0.00  0.00     0.028 C 
ATOM      5  C   UNL d   1      24.775 -15.627  -1.709  0.00  0.00     0.034 C 
ATOM      6  C   UNL d   1      25.862 -16.196  -1.014  0.00  0.00     0.068 C 
ENDROOT
BRANCH   6   7
ATOM      7  N   UNL d   1      27.134 -15.650  -1.316  0.00  0.00    -0.320 N 
ATOM      8  C   UNL d   1      27.383 -14.656  -2.225  0.00  0.00     0.258 C 
ATOM      9  O   UNL d   1      26.581 -13.755  -2.473  0.00  0.00    -0.267 OA
ATOM     10  H   UNL d   1      27.909 -16.179  -0.939  0.00  0.00     0.169 HD
BRANCH   8  11
ATOM     11  C   UNL d   1      28.682 -14.646  -2.984  0.00  0.00     0.065 A 
ATOM     12  C   UNL d   1      29.759 -14.181  -2.186  0.00  0.00     0.020 A 
ATOM     13  C   UNL d   1      31.071 -14.136  -2.648  0.00  0.00     0.001 A 
ATOM     14  C   UNL d   1      31.354 -14.598  -3.919  0.00  0.00     0.002 A 
ATOM     15  C   UNL d   1      30.311 -14.968  -4.768  0.00  0.00     0.037 A 
ATOM     16  C   UNL d   1      28.966 -14.963  -4.327  0.00  0.00     0.118 A 
BRANCH  16  17
ATOM     17  N   UNL d   1      27.966 -15.266  -5.369  0.00  0.00    -0.115 N 
ATOM     18  O   UNL d   1      28.327 -15.196  -6.550  0.00  0.00    -0.532 OA
ATOM     19  O   UNL d   1      26.820 -15.575  -5.041  0.00  0.00    -0.532 OA
ENDBRANCH  16  17
ENDBRANCH   8  11
ENDBRANCH   6   7
BRANCH   1  20
ATOM     20  O   UNL d   1      26.497 -17.808   0.766  0.00  0.00    -0.354 OA
ATOM     21  C   UNL d   1      27.600 -18.536   0.225  0.00  0.00     0.210 C 
ENDBRANCH   1  20
BRANCH   3  22
ATOM     22  S   UNL d   1      21.816 -18.320  -1.013  0.00  0.00     0.263 S 
ATOM     23  O   UNL d   1      20.723 -17.391  -1.171  0.00  0.00    -0.200 OA
ATOM     24  O   UNL d   1      22.112 -19.325  -2.020  0.00  0.00    -0.200 OA
BRANCH  22  25
ATOM     25  N   UNL d   1      21.595 -19.091   0.473  0.00  0.00    -0.281 N 
ATOM     26  H   UNL d   1      22.347 -19.185   1.142  0.00  0.00     0.179 HD
BRANCH  25  27
ATOM     27  C   UNL d   1      20.328 -19.657   0.824  0.00  0.00     0.042 A 
ATOM     28  C   UNL d   1      19.962 -19.761   2.171  0.00  0.00     0.030 A 
ATOM     29  C   UNL d   1      18.795 -20.451   2.535  0.00  0.00     0.002 A 
ATOM     30  C   UNL d   1      17.962 -20.983   1.554  0.00  0.00     0.000 A 
ATOM     31  C   UNL d   1      18.322 -20.880   0.215  0.00  0.00     0.002 A 
ATOM     32  C   UNL d   1      19.507 -20.237  -0.141  0.00  0.00     0.030 A 
ENDBRANCH  25  27
ENDBRANCH  22  25
ENDBRANCH   3  22
TORSDOF 7
ENDMDL
MODEL 2
REMARK VINA RESULT:   -10.103      1.952      2.275
REMARK INTER + INTRA:         -14.208
REMARK INTER:                 -12.191
REMARK INTRA:                  -2.017
REMARK CONF_INDEPENDENT:        2.088
REMARK UNBOUND:                -2.017
REMARK  7 active torsions:
REMARK  status: ('A' for Active; 'I' for Inactive)
REMARK    1  A    between atoms: O_2  and  C_3 
REMARK    2  A    between atoms: C_5  and  S_6 
REMARK    3  A    between atoms: S_6  and  N_9 
REMARK    4  A    between atoms: N_9  and  C_10 
REMARK    5  A    between atoms: C_18  and  N_19 
REMARK       I    between atoms: N_19  and  C_20 
REMARK    6  A    between atoms: C_20  and  C_22 
REMARK    7  A    between atoms: C_27  and  N_28 
ROOT
ATOM      1  C   UNL d   1      26.196 -16.965  -1.274  0.00  0.00     0.096 C 
ATOM      2  C   UNL d   1      25.249 -17.895  -0.814  0.00  0.00     0.064 C 
ATOM      3  C   UNL d   1      23.871 -17.679  -0.986  0.00  0.00     0.082 C 
ATOM      4  C   UNL d   1      23.427 -16.460  -1.478  0.00  0.00     0.028 C 
ATOM      5  C   UNL d   1      24.364 -15.552  -1.982  0.00  0.00     0.034 C 
ATOM      6  C   UNL d   1      25.746 -15.837  -1.976  0.00  0.00     0.068 C 
ENDROOT
BRANCH   6   7
ATOM      7  N   UNL d   1      26.563 -14.919  -2.682  0.00  0.00    -0.320 N 
ATOM      8  C   UNL d   1      26.307 -13.583  -2.847  0.00  0.00     0.258 C 
ATOM      9  O   UNL d   1      25.711 -12.904  -2.010  0.00  0.00    -0.267 OA
ATOM     10  H   UNL d   1      27.288 -15.355  -3.235  0.00  0.00     0.169 HD
BRANCH   8  11
ATOM     11  C   UNL d   1      26.749 -12.888  -4.105  0.00  0.00     0.065 A 
ATOM     12  C   UNL d   1      26.589 -11.481  -4.019  0.00  0.00     0.020 A 
ATOM     13  C   UNL d   1      26.983 -10.617  -5.036  0.00  0.00     0.001 A 
ATOM     14  C   UNL d   1      27.593 -11.135  -6.162  0.00  0.00     0.002 A 
ATOM     15  C   UNL d   1      27.678 -12.517  -6.328  0.00  0.00     0.037 A 
ATOM     16  C   UNL d   1      27.228 -13.407  -5.324  0.00  0.00     0.118 A 
BRANCH  16  17
ATOM     17  N   UNL d   1      27.275 -14.836  -5.691  0.00  0.00    -0.115 N 
ATOM     18  O   UNL d   1      28.159 -15.200  -6.476  0.00  0.00    -0.532 OA
ATOM     19  O   UNL d   1      26.447 -15.614  -5.215  0.00  0.00    -0.532 OA
ENDBRANCH  16  17
ENDBRANCH   8  11
ENDBRANCH   6   7
BRANCH   1  20
ATOM     20  O   UNL d   1      27.491 -17.343  -1.051  0.00  0.00    -0.354 OA
ATOM     21  C   UNL d   1      28.456 -16.352  -0.700  0.00  0.00     0.210 C 
ENDBRANCH   1  20
BRANCH   3  22
ATOM     22  S   UNL d   1      22.769 -19.041  -0.653  0.00  0.00     0.263 S 
ATOM     23  O   UNL d   1      21.972 -19.215  -1.844  0.00  0.00    -0.200 OA
ATOM     24  O   UNL d   1      23.621 -20.103  -0.145  0.00  0.00    -0.200 OA
BRANCH  22  25
ATOM     25  N   UNL d   1      21.716 -18.557   0.576  0.00  0.00    -0.281 N 
ATOM     26  H   UNL d   1      21.888 -17.729   1.129  0.00  0.00     0.179 HD
BRANCH  25  27
ATOM     27  C   UNL d   1      20.548 -19.324   0.885  0.00  0.00     0.042 A 
ATOM     28  C   UNL d   1      20.214 -19.574   2.221  0.00  0.00     0.030 A 
ATOM     29  C   UNL d   1      19.164 -20.450   2.534  0.00  0.00     0.002 A 
ATOM     30  C   UNL d   1      18.407 -21.029   1.517  0.00  0.00     0.000 A 
ATOM     31  C   UNL d   1      18.735 -20.781   0.189  0.00  0.00     0.002 A 
ATOM     32  C   UNL d   1      19.811 -19.948  -0.120  0.00  0.00     0.030 A 
ENDBRANCH  25  27
ENDBRANCH  22  25
ENDBRANCH   3  22
TORSDOF 7
ENDMDL
MODEL 3
REMARK VINA RESULT:    -9.221      2.390      3.910
REMARK INTER + INTRA:         -13.463
REMARK INTER:                 -11.309
REMARK INTRA:                  -2.153
REMARK CONF_INDEPENDENT:        2.088
REMARK UNBOUND:                -2.153
REMARK  7 active torsions:
REMARK  status: ('A' for Active; 'I' for Inactive)
REMARK    1  A    between atoms: O_2  and  C_3 
REMARK    2  A    between atoms: C_5  and  S_6 
REMARK    3  A    between atoms: S_6  and  N_9 
REMARK    4  A    between atoms: N_9  and  C_10 
REMARK    5  A    between atoms: C_18  and  N_19 
REMARK       I    between atoms: N_19  and  C_20 
REMARK    6  A    between atoms: C_20  and  C_22 
REMARK    7  A    between atoms: C_27  and  N_28 
ROOT
ATOM      1  C   UNL d   1      25.380 -16.421  -2.001  0.00  0.00     0.096 C 
ATOM      2  C   UNL d   1      24.123 -17.050  -2.015  0.00  0.00     0.064 C 
ATOM      3  C   UNL d   1      23.674 -17.807  -0.920  0.00  0.00     0.082 C 
ATOM      4  C   UNL d   1      24.543 -18.072   0.130  0.00  0.00     0.028 C 
ATOM      5  C   UNL d   1      25.775 -17.410   0.171  0.00  0.00     0.034 C 
ATOM      6  C   UNL d   1      26.161 -16.505  -0.840  0.00  0.00     0.068 C 
ENDROOT
BRANCH   6   7
ATOM      7  N   UNL d   1      27.344 -15.768  -0.581  0.00  0.00    -0.320 N 
ATOM      8  C   UNL d   1      28.579 -16.301  -0.322  0.00  0.00     0.258 C 
ATOM      9  O   UNL d   1      28.965 -17.369  -0.802  0.00  0.00    -0.267 OA
ATOM     10  H   UNL d   1      27.187 -14.784  -0.413  0.00  0.00     0.169 HD
BRANCH   8  11
ATOM     11  C   UNL d   1      29.525 -15.582   0.599  0.00  0.00     0.065 A 
ATOM     12  C   UNL d   1      30.815 -16.175   0.606  0.00  0.00     0.020 A 
ATOM     13  C   UNL d   1      31.878 -15.653   1.336  0.00  0.00     0.001 A 
ATOM     14  C   UNL d   1      31.694 -14.488   2.055  0.00  0.00     0.002 A 
ATOM     15  C   UNL d   1      30.419 -13.931   2.153  0.00  0.00     0.037 A 
ATOM     16  C   UNL d   1      29.317 -14.487   1.460  0.00  0.00     0.118 A 
BRANCH  16  17
ATOM     17  N   UNL d   1      28.014 -13.860   1.755  0.00  0.00    -0.115 N 
ATOM     18  O   UNL d   1      27.600 -13.912   2.919  0.00  0.00    -0.532 OA
ATOM     19  O   UNL d   1      27.384 -13.312   0.849  0.00  0.00    -0.532 OA
ENDBRANCH  16  17
ENDBRANCH   8  11
ENDBRANCH   6   7
BRANCH   1  20
ATOM     20  O   UNL d   1      25.646 -15.702  -3.133  0.00  0.00    -0.354 OA
ATOM     21  C   UNL d   1      25.527 -14.280  -3.100  0.00  0.00     0.210 C 
ENDBRANCH   1  20
BRANCH   3  22
ATOM     22  S   UNL d   1      21.961 -18.303  -0.898  0.00  0.00     0.263 S 
ATOM     23  O   UNL d   1      21.188 -17.085  -0.956  0.00  0.00    -0.200 OA
ATOM     24  O   UNL d   1      21.849 -19.325  -1.926  0.00  0.00    -0.200 OA
BRANCH  22  25
ATOM     25  N   UNL d   1      21.654 -19.010   0.605  0.00  0.00    -0.281 N 
ATOM     26  H   UNL d   1      22.352 -19.034   1.335  0.00  0.00     0.179 HD
BRANCH  25  27
ATOM     27  C   UNL d   1      20.389 -19.618   0.883  0.00  0.00     0.042 A 
ATOM     28  C   UNL d   1      19.989 -19.815   2.211  0.00  0.00     0.030 A 
ATOM     29  C   UNL d   1      18.826 -20.546   2.497  0.00  0.00     0.002 A 
ATOM     30  C   UNL d   1      18.030 -21.029   1.461  0.00  0.00     0.000 A 
ATOM     31  C   UNL d   1      18.424 -20.834   0.142  0.00  0.00     0.002 A 
ATOM     32  C   UNL d   1      19.605 -20.149  -0.140  0.00  0.00     0.030 A 
ENDBRANCH  25  27
ENDBRANCH  22  25
ENDBRANCH   3  22
TORSDOF 7
ENDMDL
MODEL 4
REMARK VINA RESULT:    -8.912      1.703      2.351
REMARK INTER + INTRA:         -13.200
REMARK INTER:                 -11.000
REMARK INTRA:                  -2.199
REMARK CONF_INDEPENDENT:        2.088
REMARK UNBOUND:                -2.199
REMARK  7 active torsions:
REMARK  status: ('A' for Active; 'I' for Inactive)
REMARK    1  A    between atoms: O_2  and  C_3 
REMARK    2  A    between atoms: C_5  and  S_6 
REMARK    3  A    between atoms: S_6  and  N_9 
REMARK    4  A    between atoms: N_9  and  C_10 
REMARK    5  A    between atoms: C_18  and  N_19 
REMARK       I    between atoms: N_19  and  C_20 
REMARK    6  A    between atoms: C_20  and  C_22 
REMARK    7  A    between atoms: C_27  and  N_28 
ROOT
ATOM      1  C   UNL d   1      26.076 -16.886  -1.281  0.00  0.00     0.096 C 
ATOM      2  C   UNL d   1      25.153 -17.849  -0.838  0.00  0.00     0.064 C 
ATOM      3  C   UNL d   1      23.768 -17.642  -0.960  0.00  0.00     0.082 C 
ATOM      4  C   UNL d   1      23.296 -16.407  -1.380  0.00  0.00     0.028 C 
ATOM      5  C   UNL d   1      24.208 -15.464  -1.867  0.00  0.00     0.034 C 
ATOM      6  C   UNL d   1      25.592 -15.732  -1.915  0.00  0.00     0.068 C 
ENDROOT
BRANCH   6   7
ATOM      7  N   UNL d   1      26.377 -14.770  -2.600  0.00  0.00    -0.320 N 
ATOM      8  C   UNL d   1      26.434 -14.604  -3.958  0.00  0.00     0.258 C 
ATOM      9  O   UNL d   1      25.478 -14.827  -4.703  0.00  0.00    -0.267 OA
ATOM     10  H   UNL d   1      27.063 -14.309  -2.017  0.00  0.00     0.169 HD
BRANCH   8  11
ATOM     11  C   UNL d   1      27.712 -14.143  -4.602  0.00  0.00     0.065 A 
ATOM     12  C   UNL d   1      27.812 -14.570  -5.951  0.00  0.00     0.020 A 
ATOM     13  C   UNL d   1      28.878 -14.218  -6.774  0.00  0.00     0.001 A 
ATOM     14  C   UNL d   1      29.864 -13.386  -6.280  0.00  0.00     0.002 A 
ATOM     15  C   UNL d   1      29.854 -13.027  -4.933  0.00  0.00     0.037 A 
ATOM     16  C   UNL d   1      28.804 -13.427  -4.072  0.00  0.00     0.118 A 
BRANCH  16  17
ATOM     17  N   UNL d   1      28.990 -13.070  -2.652  0.00  0.00    -0.115 N 
ATOM     18  O   UNL d   1      30.035 -13.436  -2.099  0.00  0.00    -0.532 OA
ATOM     19  O   UNL d   1      28.117 -12.429  -2.066  0.00  0.00    -0.532 OA
ENDBRANCH  16  17
ENDBRANCH   8  11
ENDBRANCH   6   7
BRANCH   1  20
ATOM     20  O   UNL d   1      27.380 -17.257  -1.114  0.00  0.00    -0.354 OA
ATOM     21  C   UNL d   1      28.379 -16.700  -1.968  0.00  0.00     0.210 C 
ENDBRANCH   1  20
BRANCH   3  22
ATOM     22  S   UNL d   1      22.692 -19.033  -0.661  0.00  0.00     0.263 S 
ATOM     23  O   UNL d   1      21.924 -19.214  -1.870  0.00  0.00    -0.200 OA
ATOM     24  O   UNL d   1      23.558 -20.079  -0.146  0.00  0.00    -0.200 OA
BRANCH  22  25
ATOM     25  N   UNL d   1      21.604 -18.584   0.551  0.00  0.00    -0.281 N 
ATOM     26  H   UNL d   1      21.780 -17.798   1.160  0.00  0.00     0.179 HD
BRANCH  25  27
ATOM     27  C   UNL d   1      20.398 -19.324   0.763  0.00  0.00     0.042 A 
ATOM     28  C   UNL d   1      20.086 -19.791   2.046  0.00  0.00     0.030 A 
ATOM     29  C   UNL d   1      18.990 -20.646   2.239  0.00  0.00     0.002 A 
ATOM     30  C   UNL d   1      18.170 -20.986   1.165  0.00  0.00     0.000 A 
ATOM     31  C   UNL d   1      18.477 -20.524  -0.109  0.00  0.00     0.002 A 
ATOM     32  C   UNL d   1      19.595 -19.714  -0.307  0.00  0.00     0.030 A 
ENDBRANCH  25  27
ENDBRANCH  22  25
ENDBRANCH   3  22
TORSDOF 7
ENDMDL
MODEL 5
REMARK VINA RESULT:    -8.730      2.147      2.976
REMARK INTER + INTRA:         -12.896
REMARK INTER:                 -10.818
REMARK INTRA:                  -2.078
REMARK CONF_INDEPENDENT:        2.088
REMARK UNBOUND:                -2.078
REMARK  7 active torsions:
REMARK  status: ('A' for Active; 'I' for Inactive)
REMARK    1  A    between atoms: O_2  and  C_3 
REMARK    2  A    between atoms: C_5  and  S_6 
REMARK    3  A    between atoms: S_6  and  N_9 
REMARK    4  A    between atoms: N_9  and  C_10 
REMARK    5  A    between atoms: C_18  and  N_19 
REMARK       I    between atoms: N_19  and  C_20 
REMARK    6  A    between atoms: C_20  and  C_22 
REMARK    7  A    between atoms: C_27  and  N_28 
ROOT
ATOM      1  C   UNL d   1      26.505 -16.260  -1.949  0.00  0.00     0.096 C 
ATOM      2  C   UNL d   1      25.835 -17.148  -1.091  0.00  0.00     0.064 C 
ATOM      3  C   UNL d   1      24.440 -17.092  -0.927  0.00  0.00     0.082 C 
ATOM      4  C   UNL d   1      23.727 -16.048  -1.499  0.00  0.00     0.028 C 
ATOM      5  C   UNL d   1      24.379 -15.192  -2.393  0.00  0.00     0.034 C 
ATOM      6  C   UNL d   1      25.747 -15.351  -2.702  0.00  0.00     0.068 C 
ENDROOT
BRANCH   6   7
ATOM      7  N   UNL d   1      26.233 -14.538  -3.756  0.00  0.00    -0.320 N 
ATOM      8  C   UNL d   1      26.550 -14.968  -5.018  0.00  0.00     0.258 C 
ATOM      9  O   UNL d   1      25.973 -15.903  -5.574  0.00  0.00    -0.267 OA
ATOM     10  H   UNL d   1      26.518 -13.613  -3.464  0.00  0.00     0.169 HD
BRANCH   8  11
ATOM     11  C   UNL d   1      27.661 -14.297  -5.779  0.00  0.00     0.065 A 
ATOM     12  C   UNL d   1      28.708 -15.201  -6.097  0.00  0.00     0.020 A 
ATOM     13  C   UNL d   1      29.818 -14.828  -6.848  0.00  0.00     0.001 A 
ATOM     14  C   UNL d   1      29.896 -13.541  -7.344  0.00  0.00     0.002 A 
ATOM     15  C   UNL d   1      28.938 -12.599  -6.971  0.00  0.00     0.037 A 
ATOM     16  C   UNL d   1      27.834 -12.952  -6.159  0.00  0.00     0.118 A 
BRANCH  16  17
ATOM     17  N   UNL d   1      26.972 -11.825  -5.753  0.00  0.00    -0.115 N 
ATOM     18  O   UNL d   1      26.639 -11.754  -4.564  0.00  0.00    -0.532 OA
ATOM     19  O   UNL d   1      26.612 -11.001  -6.595  0.00  0.00    -0.532 OA
ENDBRANCH  16  17
ENDBRANCH   8  11
ENDBRANCH   6   7
BRANCH   1  20
ATOM     20  O   UNL d   1      27.854 -16.469  -2.013  0.00  0.00    -0.354 OA
ATOM     21  C   UNL d   1      28.592 -16.628  -0.801  0.00  0.00     0.210 C 
ENDBRANCH   1  20
BRANCH   3  22
ATOM     22  S   UNL d   1      23.650 -18.441  -0.069  0.00  0.00     0.263 S 
ATOM     23  O   UNL d   1      23.567 -19.527  -1.015  0.00  0.00    -0.200 OA
ATOM     24  O   UNL d   1      24.380 -18.575   1.181  0.00  0.00    -0.200 OA
BRANCH  22  25
ATOM     25  N   UNL d   1      22.066 -17.967   0.277  0.00  0.00    -0.281 N 
ATOM     26  H   UNL d   1      21.821 -16.999   0.432  0.00  0.00     0.179 HD
BRANCH  25  27
ATOM     27  C   UNL d   1      21.018 -18.935   0.381  0.00  0.00     0.042 A 
ATOM     28  C   UNL d   1      20.244 -19.245  -0.744  0.00  0.00     0.030 A 
ATOM     29  C   UNL d   1      19.119 -20.075  -0.621  0.00  0.00     0.002 A 
ATOM     30  C   UNL d   1      18.800 -20.644   0.610  0.00  0.00     0.000 A 
ATOM     31  C   UNL d   1      19.567 -20.339   1.729  0.00  0.00     0.002 A 
ATOM     32  C   UNL d   1      20.656 -19.475   1.614  0.00  0.00     0.030 A 
ENDBRANCH  25  27
ENDBRANCH  22  25
ENDBRANCH   3  22
TORSDOF 7
ENDMDL
MODEL 6
REMARK VINA RESULT:    -8.702      1.751      2.475
REMARK INTER + INTRA:         -13.043
REMARK INTER:                 -10.790
REMARK INTRA:                  -2.253
REMARK CONF_INDEPENDENT:        2.088
REMARK UNBOUND:                -2.253
REMARK  7 active torsions:
REMARK  status: ('A' for Active; 'I' for Inactive)
REMARK    1  A    between atoms: O_2  and  C_3 
REMARK    2  A    between atoms: C_5  and  S_6 
REMARK    3  A    between atoms: S_6  and  N_9 
REMARK    4  A    between atoms: N_9  and  C_10 
REMARK    5  A    between atoms: C_18  and  N_19 
REMARK       I    between atoms: N_19  and  C_20 
REMARK    6  A    between atoms: C_20  and  C_22 
REMARK    7  A    between atoms: C_27  and  N_28 
ROOT
ATOM      1  C   UNL d   1      25.359 -16.456  -1.684  0.00  0.00     0.096 C 
ATOM      2  C   UNL d   1      24.049 -16.958  -1.759  0.00  0.00     0.064 C 
ATOM      3  C   UNL d   1      23.604 -17.969  -0.890  0.00  0.00     0.082 C 
ATOM      4  C   UNL d   1      24.511 -18.592  -0.045  0.00  0.00     0.028 C 
ATOM      5  C   UNL d   1      25.802 -18.064   0.069  0.00  0.00     0.034 C 
ATOM      6  C   UNL d   1      26.205 -16.934  -0.673  0.00  0.00     0.068 C 
ENDROOT
BRANCH   6   7
ATOM      7  N   UNL d   1      27.469 -16.394  -0.325  0.00  0.00    -0.320 N 
ATOM      8  C   UNL d   1      27.755 -15.064  -0.166  0.00  0.00     0.258 C 
ATOM      9  O   UNL d   1      26.933 -14.243   0.243  0.00  0.00    -0.267 OA
ATOM     10  H   UNL d   1      28.229 -17.059  -0.377  0.00  0.00     0.169 HD
BRANCH   8  11
ATOM     11  C   UNL d   1      29.124 -14.547  -0.514  0.00  0.00     0.065 A 
ATOM     12  C   UNL d   1      29.435 -13.352   0.184  0.00  0.00     0.020 A 
ATOM     13  C   UNL d   1      30.667 -12.716   0.074  0.00  0.00     0.001 A 
ATOM     14  C   UNL d   1      31.650 -13.283  -0.714  0.00  0.00     0.002 A 
ATOM     15  C   UNL d   1      31.351 -14.400  -1.493  0.00  0.00     0.037 A 
ATOM     16  C   UNL d   1      30.081 -15.023  -1.432  0.00  0.00     0.118 A 
BRANCH  16  17
ATOM     17  N   UNL d   1      29.877 -16.120  -2.397  0.00  0.00    -0.115 N 
ATOM     18  O   UNL d   1      29.930 -15.843  -3.602  0.00  0.00    -0.532 OA
ATOM     19  O   UNL d   1      29.662 -17.261  -1.985  0.00  0.00    -0.532 OA
ENDBRANCH  16  17
ENDBRANCH   8  11
ENDBRANCH   6   7
BRANCH   1  20
ATOM     20  O   UNL d   1      25.617 -15.459  -2.582  0.00  0.00    -0.354 OA
ATOM     21  C   UNL d   1      26.875 -15.438  -3.258  0.00  0.00     0.210 C 
ENDBRANCH   1  20
BRANCH   3  22
ATOM     22  S   UNL d   1      21.856 -18.321  -0.852  0.00  0.00     0.263 S 
ATOM     23  O   UNL d   1      21.186 -17.044  -0.895  0.00  0.00    -0.200 OA
ATOM     24  O   UNL d   1      21.648 -19.325  -1.883  0.00  0.00    -0.200 OA
BRANCH  22  25
ATOM     25  N   UNL d   1      21.507 -19.009   0.651  0.00  0.00    -0.281 N 
ATOM     26  H   UNL d   1      22.168 -18.983   1.415  0.00  0.00     0.179 HD
BRANCH  25  27
ATOM     27  C   UNL d   1      20.260 -19.673   0.882  0.00  0.00     0.042 A 
ATOM     28  C   UNL d   1      19.899 -20.040   2.183  0.00  0.00     0.030 A 
ATOM     29  C   UNL d   1      18.757 -20.825   2.404  0.00  0.00     0.002 A 
ATOM     30  C   UNL d   1      17.942 -21.192   1.335  0.00  0.00     0.000 A 
ATOM     31  C   UNL d   1      18.298 -20.828   0.041  0.00  0.00     0.002 A 
ATOM     32  C   UNL d   1      19.460 -20.089  -0.181  0.00  0.00     0.030 A 
ENDBRANCH  25  27
ENDBRANCH  22  25
ENDBRANCH   3  22
TORSDOF 7
ENDMDL
MODEL 7
REMARK VINA RESULT:    -8.663      2.022      2.728
REMARK INTER + INTRA:         -12.088
REMARK INTER:                 -10.751
REMARK INTRA:                  -1.337
REMARK CONF_INDEPENDENT:        2.088
REMARK UNBOUND:                -1.337
REMARK  7 active torsions:
REMARK  status: ('A' for Active; 'I' for Inactive)
REMARK    1  A    between atoms: O_2  and  C_3 
REMARK    2  A    between atoms: C_5  and  S_6 
REMARK    3  A    between atoms: S_6  and  N_9 
REMARK    4  A    between atoms: N_9  and  C_10 
REMARK    5  A    between atoms: C_18  and  N_19 
REMARK       I    between atoms: N_19  and  C_20 
REMARK    6  A    between atoms: C_20  and  C_22 
REMARK    7  A    between atoms: C_27  and  N_28 
ROOT
ATOM      1  C   UNL d   1      26.738 -16.465  -1.707  0.00  0.00     0.096 C 
ATOM      2  C   UNL d   1      25.903 -17.282  -0.926  0.00  0.00     0.064 C 
ATOM      3  C   UNL d   1      24.506 -17.138  -0.955  0.00  0.00     0.082 C 
ATOM      4  C   UNL d   1      23.943 -16.074  -1.645  0.00  0.00     0.028 C 
ATOM      5  C   UNL d   1      24.763 -15.288  -2.463  0.00  0.00     0.034 C 
ATOM      6  C   UNL d   1      26.147 -15.538  -2.578  0.00  0.00     0.068 C 
ENDROOT
BRANCH   6   7
ATOM      7  N   UNL d   1      26.821 -14.791  -3.576  0.00  0.00    -0.320 N 
ATOM      8  C   UNL d   1      26.947 -15.145  -4.894  0.00  0.00     0.258 C 
ATOM      9  O   UNL d   1      26.092 -15.792  -5.500  0.00  0.00    -0.267 OA
ATOM     10  H   UNL d   1      27.385 -14.034  -3.213  0.00  0.00     0.169 HD
BRANCH   8  11
ATOM     11  C   UNL d   1      28.182 -14.754  -5.658  0.00  0.00     0.065 A 
ATOM     12  C   UNL d   1      27.953 -13.637  -6.503  0.00  0.00     0.020 A 
ATOM     13  C   UNL d   1      28.959 -13.054  -7.266  0.00  0.00     0.001 A 
ATOM     14  C   UNL d   1      30.246 -13.548  -7.175  0.00  0.00     0.002 A 
ATOM     15  C   UNL d   1      30.491 -14.704  -6.434  0.00  0.00     0.037 A 
ATOM     16  C   UNL d   1      29.463 -15.339  -5.699  0.00  0.00     0.118 A 
BRANCH  16  17
ATOM     17  N   UNL d   1      29.847 -16.613  -5.061  0.00  0.00    -0.115 N 
ATOM     18  O   UNL d   1      30.006 -17.598  -5.793  0.00  0.00    -0.532 OA
ATOM     19  O   UNL d   1      29.996 -16.662  -3.840  0.00  0.00    -0.532 OA
ENDBRANCH  16  17
ENDBRANCH   8  11
ENDBRANCH   6   7
BRANCH   1  20
ATOM     20  O   UNL d   1      28.067 -16.757  -1.581  0.00  0.00    -0.354 OA
ATOM     21  C   UNL d   1      28.713 -16.537  -0.326  0.00  0.00     0.210 C 
ENDBRANCH   1  20
BRANCH   3  22
ATOM     22  S   UNL d   1      23.523 -18.409  -0.180  0.00  0.00     0.263 S 
ATOM     23  O   UNL d   1      23.818 -19.633  -0.885  0.00  0.00    -0.200 OA
ATOM     24  O   UNL d   1      23.780 -18.270   1.244  0.00  0.00    -0.200 OA
BRANCH  22  25
ATOM     25  N   UNL d   1      21.900 -18.049  -0.476  0.00  0.00    -0.281 N 
ATOM     26  H   UNL d   1      21.619 -17.197  -0.940  0.00  0.00     0.179 HD
BRANCH  25  27
ATOM     27  C   UNL d   1      20.863 -18.942  -0.054  0.00  0.00     0.042 A 
ATOM     28  C   UNL d   1      19.867 -19.327  -0.959  0.00  0.00     0.030 A 
ATOM     29  C   UNL d   1      18.764 -20.075  -0.520  0.00  0.00     0.002 A 
ATOM     30  C   UNL d   1      18.684 -20.490   0.808  0.00  0.00     0.000 A 
ATOM     31  C   UNL d   1      19.673 -20.110   1.709  0.00  0.00     0.002 A 
ATOM     32  C   UNL d   1      20.743 -19.326   1.280  0.00  0.00     0.030 A 
ENDBRANCH  25  27
ENDBRANCH  22  25
ENDBRANCH   3  22
TORSDOF 7
ENDMDL
MODEL 8
REMARK VINA RESULT:    -8.640      2.240      3.634
REMARK INTER + INTRA:         -12.862
REMARK INTER:                 -10.729
REMARK INTRA:                  -2.133
REMARK CONF_INDEPENDENT:        2.088
REMARK UNBOUND:                -2.133
REMARK  7 active torsions:
REMARK  status: ('A' for Active; 'I' for Inactive)
REMARK    1  A    between atoms: O_2  and  C_3 
REMARK    2  A    between atoms: C_5  and  S_6 
REMARK    3  A    between atoms: S_6  and  N_9 
REMARK    4  A    between atoms: N_9  and  C_10 
REMARK    5  A    between atoms: C_18  and  N_19 
REMARK       I    between atoms: N_19  and  C_20 
REMARK    6  A    between atoms: C_20  and  C_22 
REMARK    7  A    between atoms: C_27  and  N_28 
ROOT
ATOM      1  C   UNL d   1      25.203 -16.053  -1.920  0.00  0.00     0.096 C 
ATOM      2  C   UNL d   1      24.002 -16.781  -1.954  0.00  0.00     0.064 C 
ATOM      3  C   UNL d   1      23.665 -17.681  -0.929  0.00  0.00     0.082 C 
ATOM      4  C   UNL d   1      24.598 -17.977   0.055  0.00  0.00     0.028 C 
ATOM      5  C   UNL d   1      25.774 -17.221   0.121  0.00  0.00     0.034 C 
ATOM      6  C   UNL d   1      26.040 -16.189  -0.803  0.00  0.00     0.068 C 
ENDROOT
BRANCH   6   7
ATOM      7  N   UNL d   1      27.171 -15.385  -0.511  0.00  0.00    -0.320 N 
ATOM      8  C   UNL d   1      27.598 -15.028   0.741  0.00  0.00     0.258 C 
ATOM      9  O   UNL d   1      27.451 -15.746   1.732  0.00  0.00    -0.267 OA
ATOM     10  H   UNL d   1      27.562 -14.917  -1.317  0.00  0.00     0.169 HD
BRANCH   8  11
ATOM     11  C   UNL d   1      28.268 -13.699   0.952  0.00  0.00     0.065 A 
ATOM     12  C   UNL d   1      28.825 -13.584   2.252  0.00  0.00     0.020 A 
ATOM     13  C   UNL d   1      29.547 -12.468   2.664  0.00  0.00     0.001 A 
ATOM     14  C   UNL d   1      29.771 -11.442   1.767  0.00  0.00     0.002 A 
ATOM     15  C   UNL d   1      29.157 -11.472   0.515  0.00  0.00     0.037 A 
ATOM     16  C   UNL d   1      28.373 -12.577   0.106  0.00  0.00     0.118 A 
BRANCH  16  17
ATOM     17  N   UNL d   1      27.694 -12.413  -1.194  0.00  0.00    -0.115 N 
ATOM     18  O   UNL d   1      27.039 -11.379  -1.375  0.00  0.00    -0.532 OA
ATOM     19  O   UNL d   1      27.795 -13.294  -2.048  0.00  0.00    -0.532 OA
ENDBRANCH  16  17
ENDBRANCH   8  11
ENDBRANCH   6   7
BRANCH   1  20
ATOM     20  O   UNL d   1      25.361 -15.203  -2.978  0.00  0.00    -0.354 OA
ATOM     21  C   UNL d   1      26.566 -15.254  -3.741  0.00  0.00     0.210 C 
ENDBRANCH   1  20
BRANCH   3  22
ATOM     22  S   UNL d   1      21.999 -18.319  -0.898  0.00  0.00     0.263 S 
ATOM     23  O   UNL d   1      21.127 -17.170  -0.917  0.00  0.00    -0.200 OA
ATOM     24  O   UNL d   1      21.958 -19.324  -1.948  0.00  0.00    -0.200 OA
BRANCH  22  25
ATOM     25  N   UNL d   1      21.774 -19.083   0.592  0.00  0.00    -0.281 N 
ATOM     26  H   UNL d   1      22.495 -19.094   1.300  0.00  0.00     0.179 HD
BRANCH  25  27
ATOM     27  C   UNL d   1      20.549 -19.761   0.889  0.00  0.00     0.042 A 
ATOM     28  C   UNL d   1      19.719 -20.186  -0.154  0.00  0.00     0.030 A 
ATOM     29  C   UNL d   1      18.448 -20.711   0.124  0.00  0.00     0.002 A 
ATOM     30  C   UNL d   1      18.030 -20.871   1.444  0.00  0.00     0.000 A 
ATOM     31  C   UNL d   1      18.854 -20.451   2.482  0.00  0.00     0.002 A 
ATOM     32  C   UNL d   1      20.096 -19.884   2.202  0.00  0.00     0.030 A 
ENDBRANCH  25  27
ENDBRANCH  22  25
ENDBRANCH   3  22
TORSDOF 7
ENDMDL
MODEL 9
REMARK VINA RESULT:    -7.751      1.810      2.810
REMARK INTER + INTRA:         -12.073
REMARK INTER:                  -9.840
REMARK INTRA:                  -2.233
REMARK CONF_INDEPENDENT:        2.088
REMARK UNBOUND:                -2.233
REMARK  7 active torsions:
REMARK  status: ('A' for Active; 'I' for Inactive)
REMARK    1  A    between atoms: O_2  and  C_3 
REMARK    2  A    between atoms: C_5  and  S_6 
REMARK    3  A    between atoms: S_6  and  N_9 
REMARK    4  A    between atoms: N_9  and  C_10 
REMARK    5  A    between atoms: C_18  and  N_19 
REMARK       I    between atoms: N_19  and  C_20 
REMARK    6  A    between atoms: C_20  and  C_22 
REMARK    7  A    between atoms: C_27  and  N_28 
ROOT
ATOM      1  C   UNL d   1      25.372 -15.480  -2.786  0.00  0.00     0.096 C 
ATOM      2  C   UNL d   1      24.276 -16.026  -2.096  0.00  0.00     0.064 C 
ATOM      3  C   UNL d   1      24.454 -16.995  -1.094  0.00  0.00     0.082 C 
ATOM      4  C   UNL d   1      25.714 -17.537  -0.884  0.00  0.00     0.028 C 
ATOM      5  C   UNL d   1      26.814 -16.964  -1.532  0.00  0.00     0.034 C 
ATOM      6  C   UNL d   1      26.665 -15.869  -2.409  0.00  0.00     0.068 C 
ENDROOT
BRANCH   6   7
ATOM      7  N   UNL d   1      27.873 -15.271  -2.850  0.00  0.00    -0.320 N 
ATOM      8  C   UNL d   1      28.114 -13.925  -2.937  0.00  0.00     0.258 C 
ATOM      9  O   UNL d   1      27.606 -13.100  -2.175  0.00  0.00    -0.267 OA
ATOM     10  H   UNL d   1      28.516 -15.917  -3.286  0.00  0.00     0.169 HD
BRANCH   8  11
ATOM     11  C   UNL d   1      29.024 -13.397  -4.011  0.00  0.00     0.065 A 
ATOM     12  C   UNL d   1      29.477 -12.083  -3.726  0.00  0.00     0.020 A 
ATOM     13  C   UNL d   1      30.376 -11.404  -4.543  0.00  0.00     0.001 A 
ATOM     14  C   UNL d   1      30.886 -12.041  -5.658  0.00  0.00     0.002 A 
ATOM     15  C   UNL d   1      30.391 -13.292  -6.026  0.00  0.00     0.037 A 
ATOM     16  C   UNL d   1      29.434 -13.968  -5.232  0.00  0.00     0.118 A 
BRANCH  16  17
ATOM     17  N   UNL d   1      28.921 -15.225  -5.809  0.00  0.00    -0.115 N 
ATOM     18  O   UNL d   1      29.269 -16.287  -5.278  0.00  0.00    -0.532 OA
ATOM     19  O   UNL d   1      28.174 -15.185  -6.788  0.00  0.00    -0.532 OA
ENDBRANCH  16  17
ENDBRANCH   8  11
ENDBRANCH   6   7
BRANCH   1  20
ATOM     20  O   UNL d   1      25.024 -14.532  -3.707  0.00  0.00    -0.354 OA
ATOM     21  C   UNL d   1      25.685 -14.513  -4.972  0.00  0.00     0.210 C 
ENDBRANCH   1  20
BRANCH   3  22
ATOM     22  S   UNL d   1      23.051 -17.397  -0.069  0.00  0.00     0.263 S 
ATOM     23  O   UNL d   1      23.549 -18.259   0.976  0.00  0.00    -0.200 OA
ATOM     24  O   UNL d   1      22.421 -16.122   0.231  0.00  0.00    -0.200 OA
BRANCH  22  25
ATOM     25  N   UNL d   1      21.987 -18.320  -1.002  0.00  0.00    -0.281 N 
ATOM     26  H   UNL d   1      22.039 -18.335  -2.011  0.00  0.00     0.179 HD
BRANCH  25  27
ATOM     27  C   UNL d   1      20.959 -19.101  -0.384  0.00  0.00     0.042 A 
ATOM     28  C   UNL d   1      19.863 -19.532  -1.142  0.00  0.00     0.030 A 
ATOM     29  C   UNL d   1      18.777 -20.164  -0.517  0.00  0.00     0.002 A 
ATOM     30  C   UNL d   1      18.810 -20.421   0.853  0.00  0.00     0.000 A 
ATOM     31  C   UNL d   1      19.898 -19.995   1.607  0.00  0.00     0.002 A 
ATOM     32  C   UNL d   1      20.954 -19.324   0.992  0.00  0.00     0.030 A 
ENDBRANCH  25  27
ENDBRANCH  22  25
ENDBRANCH   3  22
TORSDOF 7
ENDMDL
