MODEL 1
REMARK VINA RESULT:   -30.295      0.000      0.000
REMARK INTER + INTRA:         -31.723
REMARK INTER:                 -31.190
REMARK INTRA:                  -0.534
REMARK CONF_INDEPENDENT:        0.895
REMARK UNBOUND:                -0.534
REMARK  3 active torsions:
REMARK  status: ('A' for Active; 'I' for Inactive)
REMARK       I    between atoms: C_2  and  N_3 
REMARK    1  A    between atoms: C_2  and  C_11 
REMARK    2  A    between atoms: N_3  and  N_4 
REMARK    3  A    between atoms: N_4  and  C_5 
ROOT
ATOM      1  O   UNL d   1      21.088 -16.714  -0.945  0.00  0.00    -0.266 OA
ATOM      2  C   UNL d   1      21.783 -17.728  -0.960  0.00  0.00     0.265 C 
ATOM      3  N   UNL d   1      21.302 -19.020  -1.166  0.00  0.00    -0.287 N 
ATOM      4  H   UNL d   1      21.918 -19.813  -1.005  0.00  0.00     0.184 HD
ENDROOT
BRANCH   3   5
ATOM      5  N   UNL d   1      19.905 -19.229  -1.270  0.00  0.00    -0.233 NA
ATOM      6  H   UNL d   1      19.761 -20.010  -1.919  0.00  0.00     0.147 HD
BRANCH   5   7
ATOM      7  C   UNL d   1      19.239 -19.471   0.018  0.00  0.00     0.076 C 
ATOM      8  C   UNL d   1      18.405 -20.761  -0.072  0.00  0.00     0.021 C 
ATOM      9  C   UNL d   1      17.750 -21.106   1.267  0.00  0.00     0.002 C 
ATOM     10  C   UNL d   1      18.779 -21.200   2.389  0.00  0.00     0.000 C 
ATOM     11  C   UNL d   1      19.597 -19.915   2.485  0.00  0.00     0.002 C 
ATOM     12  C   UNL d   1      20.270 -19.582   1.154  0.00  0.00     0.021 C 
ENDBRANCH   5   7
ENDBRANCH   3   5
BRANCH   2  13
ATOM     13  C   UNL d   1      23.248 -17.619  -0.717  0.00  0.00     0.033 A 
ATOM     14  C   UNL d   1      23.891 -18.407   0.245  0.00  0.00     0.017 A 
ATOM     15  C   UNL d   1      25.253 -18.220   0.504  0.00  0.00     0.001 A 
ATOM     16  C   UNL d   1      25.990 -17.302  -0.248  0.00  0.00     0.000 A 
ATOM     17  C   UNL d   1      25.361 -16.545  -1.236  0.00  0.00     0.001 A 
ATOM     18  C   UNL d   1      23.991 -16.701  -1.470  0.00  0.00     0.017 A 
ENDBRANCH   2  13
TORSDOF 3
ENDMDL
MODEL 2
REMARK VINA RESULT:   -30.162      0.980      1.555
REMARK INTER + INTRA:         -32.094
REMARK INTER:                 -31.057
REMARK INTRA:                  -1.037
REMARK CONF_INDEPENDENT:        0.895
REMARK UNBOUND:                -1.037
REMARK  3 active torsions:
REMARK  status: ('A' for Active; 'I' for Inactive)
REMARK       I    between atoms: C_2  and  N_3 
REMARK    1  A    between atoms: C_2  and  C_11 
REMARK    2  A    between atoms: N_3  and  N_4 
REMARK    3  A    between atoms: N_4  and  C_5 
ROOT
ATOM      1  O   UNL d   1      22.222 -19.322  -2.288  0.00  0.00    -0.266 OA
ATOM      2  C   UNL d   1      22.297 -18.593  -1.300  0.00  0.00     0.265 C 
ATOM      3  N   UNL d   1      21.214 -18.205  -0.514  0.00  0.00    -0.287 N 
ATOM      4  H   UNL d   1      21.340 -17.477   0.185  0.00  0.00     0.184 HD
ENDROOT
BRANCH   3   5
ATOM      5  N   UNL d   1      19.905 -18.577  -0.908  0.00  0.00    -0.233 NA
ATOM      6  H   UNL d   1      19.996 -19.180  -1.733  0.00  0.00     0.147 HD
BRANCH   5   7
ATOM      7  C   UNL d   1      19.124 -19.228   0.152  0.00  0.00     0.076 C 
ATOM      8  C   UNL d   1      18.377 -20.440  -0.434  0.00  0.00     0.021 C 
ATOM      9  C   UNL d   1      17.606 -21.205   0.644  0.00  0.00     0.002 C 
ATOM     10  C   UNL d   1      18.517 -21.630   1.791  0.00  0.00     0.000 C 
ATOM     11  C   UNL d   1      19.248 -20.426   2.380  0.00  0.00     0.002 C 
ATOM     12  C   UNL d   1      20.036 -19.674   1.308  0.00  0.00     0.021 C 
ENDBRANCH   5   7
ENDBRANCH   3   5
BRANCH   2  13
ATOM     13  C   UNL d   1      23.617 -18.038  -0.894  0.00  0.00     0.033 A 
ATOM     14  C   UNL d   1      24.223 -16.997  -1.607  0.00  0.00     0.017 A 
ATOM     15  C   UNL d   1      25.501 -16.556  -1.246  0.00  0.00     0.001 A 
ATOM     16  C   UNL d   1      26.142 -17.099  -0.130  0.00  0.00     0.000 A 
ATOM     17  C   UNL d   1      25.522 -18.108   0.607  0.00  0.00     0.001 A 
ATOM     18  C   UNL d   1      24.262 -18.578   0.226  0.00  0.00     0.017 A 
ENDBRANCH   2  13
TORSDOF 3
ENDMDL
