MODEL 1
REMARK VINA RESULT:    -9.717      0.000      0.000
REMARK INTER + INTRA:         -15.508
REMARK INTER:                 -13.893
REMARK INTRA:                  -1.615
REMARK CONF_INDEPENDENT:        4.176
REMARK UNBOUND:                -1.615
REMARK  14 active torsions:
REMARK  status: ('A' for Active; 'I' for Inactive)
REMARK    1  A    between atoms: C_2  and  C_3 
REMARK    2  A    between atoms: C_3  and  C_4 
REMARK    3  A    between atoms: C_4  and  O_5 
REMARK    4  A    between atoms: O_5  and  C_6 
REMARK    5  A    between atoms: C_11  and  C_12 
REMARK       I    between atoms: C_12  and  N_14 
REMARK    6  A    between atoms: N_14  and  C_15 
REMARK    7  A    between atoms: C_15  and  N_17 
REMARK    8  A    between atoms: C_23  and  C_24 
REMARK    9  A    between atoms: C_24  and  C_25 
REMARK   10  A    between atoms: C_25  and  O_27 
REMARK   11  A    between atoms: O_27  and  C_28 
REMARK   12  A    between atoms: C_28  and  C_29 
REMARK   13  A    between atoms: C_29  and  C_30 
REMARK   14  A    between atoms: C_30  and  C_31 
ROOT
ATOM      1  N   UNL d   1      27.386 -15.824  -2.321  0.00  0.00    -0.343 N 
ATOM      2  C   UNL d   1      28.792 -16.404  -2.407  0.00  0.00     0.146 C 
ATOM      3  C   UNL d   1      29.469 -16.524  -1.047  0.00  0.00     0.142 C 
ATOM      4  N   UNL d   1      28.666 -17.407  -0.238  0.00  0.00    -0.358 N 
ATOM      5  C   UNL d   1      27.293 -17.516  -0.319  0.00  0.00     0.241 C 
ATOM      6  O   UNL d   1      26.786 -18.272   0.508  0.00  0.00    -0.271 OA
ATOM      7  C   UNL d   1      26.475 -16.719  -1.454  0.00  0.00     0.188 C 
ATOM      8  H   UNL d   1      29.060 -17.811   0.609  0.00  0.00     0.162 HD
ENDROOT
BRANCH   1   9
ATOM      9  C   UNL d   1      26.958 -14.883  -3.333  0.00  0.00     0.177 C 
ATOM     10  S   UNL d   1      25.312 -14.587  -3.567  0.00  0.00    -0.041 SA
BRANCH   9  11
ATOM     11  N   UNL d   1      27.945 -14.330  -4.218  0.00  0.00    -0.299 N 
ATOM     12  C   UNL d   1      28.223 -14.670  -5.574  0.00  0.00     0.260 C 
ATOM     13  O   UNL d   1      27.404 -15.203  -6.319  0.00  0.00    -0.267 OA
ATOM     14  H   UNL d   1      28.686 -13.751  -3.874  0.00  0.00     0.171 HD
BRANCH  12  15
ATOM     15  C   UNL d   1      29.574 -14.352  -6.206  0.00  0.00     0.065 A 
ATOM     16  C   UNL d   1      30.058 -13.035  -5.998  0.00  0.00     0.020 A 
ATOM     17  C   UNL d   1      31.302 -12.597  -6.474  0.00  0.00     0.001 A 
ATOM     18  C   UNL d   1      32.114 -13.475  -7.172  0.00  0.00     0.003 A 
ATOM     19  C   UNL d   1      31.635 -14.753  -7.465  0.00  0.00     0.038 A 
ATOM     20  C   UNL d   1      30.374 -15.190  -6.995  0.00  0.00     0.084 A 
BRANCH  20  21
ATOM     21  O   UNL d   1      30.106 -16.503  -7.240  0.00  0.00    -0.350 OA
BRANCH  21  22
ATOM     22  C   UNL d   1      31.189 -17.396  -7.012  0.00  0.00     0.175 C 
BRANCH  22  23
ATOM     23  C   UNL d   1      30.628 -18.490  -6.120  0.00  0.00     0.026 C 
BRANCH  23  24
ATOM     24  C   UNL d   1      30.404 -17.925  -4.753  0.00  0.00    -0.002 C 
ATOM     25  C   UNL d   1      31.556 -17.031  -4.373  0.00  0.00     0.005 C 
ENDBRANCH  23  24
ENDBRANCH  22  23
ENDBRANCH  21  22
ENDBRANCH  20  21
ENDBRANCH  12  15
ENDBRANCH   9  11
ENDBRANCH   1   9
BRANCH   7  26
ATOM     26  C   UNL d   1      25.218 -15.959  -1.006  0.00  0.00     0.146 C 
BRANCH  26  27
ATOM     27  C   UNL d   1      23.954 -16.660  -0.593  0.00  0.00     0.261 C 
ATOM     28  O   UNL d   1      22.831 -16.145  -0.589  0.00  0.00    -0.265 OA
BRANCH  27  29
ATOM     29  O   UNL d   1      24.178 -17.932  -0.126  0.00  0.00    -0.321 OA
BRANCH  29  30
ATOM     30  C   UNL d   1      22.946 -18.576   0.250  0.00  0.00     0.179 C 
BRANCH  30  31
ATOM     31  C   UNL d   1      22.165 -19.094  -0.951  0.00  0.00     0.031 C 
BRANCH  31  32
ATOM     32  C   UNL d   1      20.726 -18.579  -0.896  0.00  0.00     0.041 C 
BRANCH  32  33
ATOM     33  C   UNL d   1      19.831 -19.375   0.016  0.00  0.00    -0.058 A 
ATOM     34  C   UNL d   1      20.124 -19.509   1.380  0.00  0.00     0.007 A 
ATOM     35  C   UNL d   1      19.430 -20.437   2.155  0.00  0.00     0.001 A 
ATOM     36  C   UNL d   1      18.375 -21.160   1.601  0.00  0.00     0.000 A 
ATOM     37  C   UNL d   1      18.030 -20.979   0.264  0.00  0.00     0.001 A 
ATOM     38  C   UNL d   1      18.757 -20.092  -0.526  0.00  0.00     0.007 A 
ENDBRANCH  32  33
ENDBRANCH  31  32
ENDBRANCH  30  31
ENDBRANCH  29  30
ENDBRANCH  27  29
ENDBRANCH  26  27
ENDBRANCH   7  26
TORSDOF 14
ENDMDL
MODEL 2
REMARK VINA RESULT:    -8.885      3.925      6.717
REMARK INTER + INTRA:         -15.260
REMARK INTER:                 -13.061
REMARK INTRA:                  -2.199
REMARK CONF_INDEPENDENT:        4.176
REMARK UNBOUND:                -2.199
REMARK  14 active torsions:
REMARK  status: ('A' for Active; 'I' for Inactive)
REMARK    1  A    between atoms: C_2  and  C_3 
REMARK    2  A    between atoms: C_3  and  C_4 
REMARK    3  A    between atoms: C_4  and  O_5 
REMARK    4  A    between atoms: O_5  and  C_6 
REMARK    5  A    between atoms: C_11  and  C_12 
REMARK       I    between atoms: C_12  and  N_14 
REMARK    6  A    between atoms: N_14  and  C_15 
REMARK    7  A    between atoms: C_15  and  N_17 
REMARK    8  A    between atoms: C_23  and  C_24 
REMARK    9  A    between atoms: C_24  and  C_25 
REMARK   10  A    between atoms: C_25  and  O_27 
REMARK   11  A    between atoms: O_27  and  C_28 
REMARK   12  A    between atoms: C_28  and  C_29 
REMARK   13  A    between atoms: C_29  and  C_30 
REMARK   14  A    between atoms: C_30  and  C_31 
ROOT
ATOM      1  N   UNL d   1      27.476 -15.743  -1.483  0.00  0.00    -0.343 N 
ATOM      2  C   UNL d   1      28.472 -14.736  -2.044  0.00  0.00     0.146 C 
ATOM      3  C   UNL d   1      28.816 -14.992  -3.506  0.00  0.00     0.142 C 
ATOM      4  N   UNL d   1      27.594 -14.890  -4.265  0.00  0.00    -0.358 N 
ATOM      5  C   UNL d   1      26.345 -15.240  -3.795  0.00  0.00     0.241 C 
ATOM      6  O   UNL d   1      25.438 -15.147  -4.621  0.00  0.00    -0.271 OA
ATOM      7  C   UNL d   1      26.145 -15.693  -2.263  0.00  0.00     0.188 C 
ATOM      8  H   UNL d   1      27.636 -14.785  -5.276  0.00  0.00     0.162 HD
ENDROOT
BRANCH   1   9
ATOM      9  C   UNL d   1      27.667 -16.234  -0.136  0.00  0.00     0.177 C 
ATOM     10  S   UNL d   1      27.487 -17.880   0.196  0.00  0.00    -0.041 SA
BRANCH   9  11
ATOM     11  N   UNL d   1      27.862 -15.280   0.921  0.00  0.00    -0.299 N 
ATOM     12  C   UNL d   1      27.085 -14.128   1.242  0.00  0.00     0.260 C 
ATOM     13  O   UNL d   1      25.907 -13.996   0.919  0.00  0.00    -0.267 OA
ATOM     14  H   UNL d   1      28.718 -15.244   1.438  0.00  0.00     0.171 HD
BRANCH  12  15
ATOM     15  C   UNL d   1      27.675 -12.982   2.057  0.00  0.00     0.065 A 
ATOM     16  C   UNL d   1      26.994 -11.742   1.959  0.00  0.00     0.020 A 
ATOM     17  C   UNL d   1      27.381 -10.602   2.679  0.00  0.00     0.001 A 
ATOM     18  C   UNL d   1      28.467 -10.672   3.536  0.00  0.00     0.003 A 
ATOM     19  C   UNL d   1      29.208 -11.853   3.595  0.00  0.00     0.038 A 
ATOM     20  C   UNL d   1      28.824 -12.998   2.859  0.00  0.00     0.084 A 
BRANCH  20  21
ATOM     21  O   UNL d   1      29.560 -14.113   3.127  0.00  0.00    -0.350 OA
BRANCH  21  22
ATOM     22  C   UNL d   1      29.453 -14.605   4.457  0.00  0.00     0.175 C 
BRANCH  22  23
ATOM     23  C   UNL d   1      28.032 -14.288   4.890  0.00  0.00     0.026 C 
BRANCH  23  24
ATOM     24  C   UNL d   1      28.085 -13.401   6.094  0.00  0.00    -0.002 C 
ATOM     25  C   UNL d   1      28.909 -14.054   7.175  0.00  0.00     0.005 C 
ENDBRANCH  23  24
ENDBRANCH  22  23
ENDBRANCH  21  22
ENDBRANCH  20  21
ENDBRANCH  12  15
ENDBRANCH   9  11
ENDBRANCH   1   9
BRANCH   7  26
ATOM     26  C   UNL d   1      25.308 -16.955  -2.010  0.00  0.00     0.146 C 
BRANCH  26  27
ATOM     27  C   UNL d   1      24.194 -16.999  -1.002  0.00  0.00     0.261 C 
ATOM     28  O   UNL d   1      23.654 -16.005  -0.504  0.00  0.00    -0.265 OA
BRANCH  27  29
ATOM     29  O   UNL d   1      23.878 -18.277  -0.611  0.00  0.00    -0.321 OA
BRANCH  29  30
ATOM     30  C   UNL d   1      23.071 -18.943  -1.601  0.00  0.00     0.179 C 
BRANCH  30  31
ATOM     31  C   UNL d   1      21.588 -18.932  -1.252  0.00  0.00     0.031 C 
BRANCH  31  32
ATOM     32  C   UNL d   1      21.413 -18.931   0.267  0.00  0.00     0.041 C 
BRANCH  32  33
ATOM     33  C   UNL d   1      20.272 -19.788   0.748  0.00  0.00    -0.058 A 
ATOM     34  C   UNL d   1      19.434 -20.451  -0.159  0.00  0.00     0.007 A 
ATOM     35  C   UNL d   1      18.250 -21.036   0.284  0.00  0.00     0.001 A 
ATOM     36  C   UNL d   1      17.946 -21.054   1.645  0.00  0.00     0.000 A 
ATOM     37  C   UNL d   1      18.811 -20.461   2.561  0.00  0.00     0.001 A 
ATOM     38  C   UNL d   1      19.968 -19.828   2.113  0.00  0.00     0.007 A 
ENDBRANCH  32  33
ENDBRANCH  31  32
ENDBRANCH  30  31
ENDBRANCH  29  30
ENDBRANCH  27  29
ENDBRANCH  26  27
ENDBRANCH   7  26
TORSDOF 14
ENDMDL
MODEL 3
REMARK VINA RESULT:    -8.821      2.058      3.530
REMARK INTER + INTRA:         -15.436
REMARK INTER:                 -12.997
REMARK INTRA:                  -2.439
REMARK CONF_INDEPENDENT:        4.176
REMARK UNBOUND:                -2.439
REMARK  14 active torsions:
REMARK  status: ('A' for Active; 'I' for Inactive)
REMARK    1  A    between atoms: C_2  and  C_3 
REMARK    2  A    between atoms: C_3  and  C_4 
REMARK    3  A    between atoms: C_4  and  O_5 
REMARK    4  A    between atoms: O_5  and  C_6 
REMARK    5  A    between atoms: C_11  and  C_12 
REMARK       I    between atoms: C_12  and  N_14 
REMARK    6  A    between atoms: N_14  and  C_15 
REMARK    7  A    between atoms: C_15  and  N_17 
REMARK    8  A    between atoms: C_23  and  C_24 
REMARK    9  A    between atoms: C_24  and  C_25 
REMARK   10  A    between atoms: C_25  and  O_27 
REMARK   11  A    between atoms: O_27  and  C_28 
REMARK   12  A    between atoms: C_28  and  C_29 
REMARK   13  A    between atoms: C_29  and  C_30 
REMARK   14  A    between atoms: C_30  and  C_31 
ROOT
ATOM      1  N   UNL d   1      27.618 -15.573  -3.267  0.00  0.00    -0.343 N 
ATOM      2  C   UNL d   1      27.874 -14.429  -4.239  0.00  0.00     0.146 C 
ATOM      3  C   UNL d   1      26.844 -14.360  -5.361  0.00  0.00     0.142 C 
ATOM      4  N   UNL d   1      25.553 -14.155  -4.753  0.00  0.00    -0.358 N 
ATOM      5  C   UNL d   1      25.176 -14.649  -3.522  0.00  0.00     0.241 C 
ATOM      6  O   UNL d   1      24.007 -14.427  -3.213  0.00  0.00    -0.271 OA
ATOM      7  C   UNL d   1      26.239 -15.420  -2.590  0.00  0.00     0.188 C 
ATOM      8  H   UNL d   1      24.772 -13.840  -5.324  0.00  0.00     0.162 HD
ENDROOT
BRANCH   1   9
ATOM      9  C   UNL d   1      28.746 -16.325  -2.763  0.00  0.00     0.177 C 
ATOM     10  S   UNL d   1      29.268 -16.098  -1.174  0.00  0.00    -0.041 SA
BRANCH   9  11
ATOM     11  N   UNL d   1      29.489 -17.145  -3.680  0.00  0.00    -0.299 N 
ATOM     12  C   UNL d   1      30.314 -16.745  -4.772  0.00  0.00     0.260 C 
ATOM     13  O   UNL d   1      30.839 -15.636  -4.852  0.00  0.00    -0.267 OA
ATOM     14  H   UNL d   1      29.331 -18.131  -3.741  0.00  0.00     0.171 HD
BRANCH  12  15
ATOM     15  C   UNL d   1      30.632 -17.706  -5.913  0.00  0.00     0.065 A 
ATOM     16  C   UNL d   1      31.147 -17.112  -7.094  0.00  0.00     0.020 A 
ATOM     17  C   UNL d   1      31.531 -17.860  -8.216  0.00  0.00     0.001 A 
ATOM     18  C   UNL d   1      31.420 -19.240  -8.188  0.00  0.00     0.003 A 
ATOM     19  C   UNL d   1      30.843 -19.850  -7.074  0.00  0.00     0.038 A 
ATOM     20  C   UNL d   1      30.444 -19.095  -5.946  0.00  0.00     0.084 A 
BRANCH  20  21
ATOM     21  O   UNL d   1      30.030 -19.841  -4.885  0.00  0.00    -0.350 OA
BRANCH  21  22
ATOM     22  C   UNL d   1      30.768 -21.037  -4.660  0.00  0.00     0.175 C 
BRANCH  22  23
ATOM     23  C   UNL d   1      31.710 -20.718  -3.513  0.00  0.00     0.026 C 
BRANCH  23  24
ATOM     24  C   UNL d   1      31.229 -19.478  -2.828  0.00  0.00    -0.002 C 
ATOM     25  C   UNL d   1      31.446 -19.597  -1.341  0.00  0.00     0.005 C 
ENDBRANCH  23  24
ENDBRANCH  22  23
ENDBRANCH  21  22
ENDBRANCH  20  21
ENDBRANCH  12  15
ENDBRANCH   9  11
ENDBRANCH   1   9
BRANCH   7  26
ATOM     26  C   UNL d   1      25.784 -16.742  -1.955  0.00  0.00     0.146 C 
BRANCH  26  27
ATOM     27  C   UNL d   1      25.645 -16.921  -0.470  0.00  0.00     0.261 C 
ATOM     28  O   UNL d   1      26.537 -16.694   0.355  0.00  0.00    -0.265 OA
BRANCH  27  29
ATOM     29  O   UNL d   1      24.432 -17.455  -0.109  0.00  0.00    -0.321 OA
BRANCH  29  30
ATOM     30  C   UNL d   1      23.627 -17.755  -1.265  0.00  0.00     0.179 C 
BRANCH  30  31
ATOM     31  C   UNL d   1      22.547 -18.790  -0.974  0.00  0.00     0.031 C 
BRANCH  31  32
ATOM     32  C   UNL d   1      22.000 -18.586   0.439  0.00  0.00     0.041 C 
BRANCH  32  33
ATOM     33  C   UNL d   1      20.678 -19.264   0.682  0.00  0.00    -0.058 A 
ATOM     34  C   UNL d   1      20.273 -19.614   1.977  0.00  0.00     0.007 A 
ATOM     35  C   UNL d   1      19.172 -20.449   2.162  0.00  0.00     0.001 A 
ATOM     36  C   UNL d   1      18.411 -20.854   1.067  0.00  0.00     0.000 A 
ATOM     37  C   UNL d   1      18.765 -20.450  -0.217  0.00  0.00     0.001 A 
ATOM     38  C   UNL d   1      19.895 -19.660  -0.409  0.00  0.00     0.007 A 
ENDBRANCH  32  33
ENDBRANCH  31  32
ENDBRANCH  30  31
ENDBRANCH  29  30
ENDBRANCH  27  29
ENDBRANCH  26  27
ENDBRANCH   7  26
TORSDOF 14
ENDMDL
MODEL 4
REMARK VINA RESULT:    -8.711      3.194      5.871
REMARK INTER + INTRA:         -15.635
REMARK INTER:                 -12.888
REMARK INTRA:                  -2.747
REMARK CONF_INDEPENDENT:        4.176
REMARK UNBOUND:                -2.747
REMARK  14 active torsions:
REMARK  status: ('A' for Active; 'I' for Inactive)
REMARK    1  A    between atoms: C_2  and  C_3 
REMARK    2  A    between atoms: C_3  and  C_4 
REMARK    3  A    between atoms: C_4  and  O_5 
REMARK    4  A    between atoms: O_5  and  C_6 
REMARK    5  A    between atoms: C_11  and  C_12 
REMARK       I    between atoms: C_12  and  N_14 
REMARK    6  A    between atoms: N_14  and  C_15 
REMARK    7  A    between atoms: C_15  and  N_17 
REMARK    8  A    between atoms: C_23  and  C_24 
REMARK    9  A    between atoms: C_24  and  C_25 
REMARK   10  A    between atoms: C_25  and  O_27 
REMARK   11  A    between atoms: O_27  and  C_28 
REMARK   12  A    between atoms: C_28  and  C_29 
REMARK   13  A    between atoms: C_29  and  C_30 
REMARK   14  A    between atoms: C_30  and  C_31 
ROOT
ATOM      1  N   UNL d   1      27.187 -15.987  -1.381  0.00  0.00    -0.343 N 
ATOM      2  C   UNL d   1      28.300 -15.104  -1.931  0.00  0.00     0.146 C 
ATOM      3  C   UNL d   1      28.555 -15.326  -3.417  0.00  0.00     0.142 C 
ATOM      4  N   UNL d   1      27.338 -15.008  -4.120  0.00  0.00    -0.358 N 
ATOM      5  C   UNL d   1      26.067 -15.200  -3.619  0.00  0.00     0.241 C 
ATOM      6  O   UNL d   1      25.157 -14.933  -4.403  0.00  0.00    -0.271 OA
ATOM      7  C   UNL d   1      25.853 -15.703  -2.105  0.00  0.00     0.188 C 
ATOM      8  H   UNL d   1      27.362 -14.855  -5.126  0.00  0.00     0.162 HD
ENDROOT
BRANCH   1   9
ATOM      9  C   UNL d   1      27.347 -16.573  -0.069  0.00  0.00     0.177 C 
ATOM     10  S   UNL d   1      27.030 -18.215   0.166  0.00  0.00    -0.041 SA
BRANCH   9  11
ATOM     11  N   UNL d   1      27.633 -15.705   1.040  0.00  0.00    -0.299 N 
ATOM     12  C   UNL d   1      27.176 -14.376   1.277  0.00  0.00     0.260 C 
ATOM     13  O   UNL d   1      26.153 -13.913   0.778  0.00  0.00    -0.267 OA
ATOM     14  H   UNL d   1      28.369 -15.912   1.686  0.00  0.00     0.171 HD
BRANCH  12  15
ATOM     15  C   UNL d   1      27.928 -13.439   2.217  0.00  0.00     0.065 A 
ATOM     16  C   UNL d   1      27.250 -12.244   2.569  0.00  0.00     0.020 A 
ATOM     17  C   UNL d   1      27.785 -11.300   3.458  0.00  0.00     0.001 A 
ATOM     18  C   UNL d   1      29.023 -11.529   4.035  0.00  0.00     0.003 A 
ATOM     19  C   UNL d   1      29.752 -12.654   3.648  0.00  0.00     0.038 A 
ATOM     20  C   UNL d   1      29.218 -13.600   2.742  0.00  0.00     0.084 A 
BRANCH  20  21
ATOM     21  O   UNL d   1      29.985 -14.712   2.570  0.00  0.00    -0.350 OA
BRANCH  21  22
ATOM     22  C   UNL d   1      31.380 -14.470   2.426  0.00  0.00     0.175 C 
BRANCH  22  23
ATOM     23  C   UNL d   1      31.733 -14.973   1.037  0.00  0.00     0.026 C 
BRANCH  23  24
ATOM     24  C   UNL d   1      30.683 -15.945   0.598  0.00  0.00    -0.002 C 
ATOM     25  C   UNL d   1      31.109 -16.616  -0.682  0.00  0.00     0.005 C 
ENDBRANCH  23  24
ENDBRANCH  22  23
ENDBRANCH  21  22
ENDBRANCH  20  21
ENDBRANCH  12  15
ENDBRANCH   9  11
ENDBRANCH   1   9
BRANCH   7  26
ATOM     26  C   UNL d   1      24.849 -16.844  -1.881  0.00  0.00     0.146 C 
BRANCH  26  27
ATOM     27  C   UNL d   1      23.747 -16.763  -0.863  0.00  0.00     0.261 C 
ATOM     28  O   UNL d   1      22.813 -15.955  -0.896  0.00  0.00    -0.265 OA
BRANCH  27  29
ATOM     29  O   UNL d   1      23.921 -17.638   0.182  0.00  0.00    -0.321 OA
BRANCH  29  30
ATOM     30  C   UNL d   1      23.422 -18.949  -0.145  0.00  0.00     0.179 C 
BRANCH  30  31
ATOM     31  C   UNL d   1      22.466 -18.934  -1.331  0.00  0.00     0.031 C 
BRANCH  31  32
ATOM     32  C   UNL d   1      21.107 -18.385  -0.895  0.00  0.00     0.041 C 
BRANCH  32  33
ATOM     33  C   UNL d   1      20.329 -19.324  -0.011  0.00  0.00    -0.058 A 
ATOM     34  C   UNL d   1      19.260 -20.075  -0.519  0.00  0.00     0.007 A 
ATOM     35  C   UNL d   1      18.405 -20.748   0.352  0.00  0.00     0.001 A 
ATOM     36  C   UNL d   1      18.668 -20.760   1.721  0.00  0.00     0.000 A 
ATOM     37  C   UNL d   1      19.771 -20.075   2.225  0.00  0.00     0.001 A 
ATOM     38  C   UNL d   1      20.596 -19.358   1.363  0.00  0.00     0.007 A 
ENDBRANCH  32  33
ENDBRANCH  31  32
ENDBRANCH  30  31
ENDBRANCH  29  30
ENDBRANCH  27  29
ENDBRANCH  26  27
ENDBRANCH   7  26
TORSDOF 14
ENDMDL
MODEL 5
REMARK VINA RESULT:    -8.325      3.051      5.317
REMARK INTER + INTRA:         -16.086
REMARK INTER:                 -12.501
REMARK INTRA:                  -3.585
REMARK CONF_INDEPENDENT:        4.176
REMARK UNBOUND:                -3.585
REMARK  14 active torsions:
REMARK  status: ('A' for Active; 'I' for Inactive)
REMARK    1  A    between atoms: C_2  and  C_3 
REMARK    2  A    between atoms: C_3  and  C_4 
REMARK    3  A    between atoms: C_4  and  O_5 
REMARK    4  A    between atoms: O_5  and  C_6 
REMARK    5  A    between atoms: C_11  and  C_12 
REMARK       I    between atoms: C_12  and  N_14 
REMARK    6  A    between atoms: N_14  and  C_15 
REMARK    7  A    between atoms: C_15  and  N_17 
REMARK    8  A    between atoms: C_23  and  C_24 
REMARK    9  A    between atoms: C_24  and  C_25 
REMARK   10  A    between atoms: C_25  and  O_27 
REMARK   11  A    between atoms: O_27  and  C_28 
REMARK   12  A    between atoms: C_28  and  C_29 
REMARK   13  A    between atoms: C_29  and  C_30 
REMARK   14  A    between atoms: C_30  and  C_31 
ROOT
ATOM      1  N   UNL d   1      27.602 -12.284  -6.066  0.00  0.00    -0.343 N 
ATOM      2  C   UNL d   1      27.187 -10.878  -6.478  0.00  0.00     0.146 C 
ATOM      3  C   UNL d   1      25.722 -10.580  -6.182  0.00  0.00     0.142 C 
ATOM      4  N   UNL d   1      25.530 -10.708  -4.759  0.00  0.00    -0.358 N 
ATOM      5  C   UNL d   1      26.216 -11.591  -3.950  0.00  0.00     0.241 C 
ATOM      6  O   UNL d   1      25.856 -11.599  -2.773  0.00  0.00    -0.271 OA
ATOM      7  C   UNL d   1      27.409 -12.491  -4.548  0.00  0.00     0.188 C 
ATOM      8  H   UNL d   1      24.696 -10.320  -4.325  0.00  0.00     0.162 HD
ENDROOT
BRANCH   1   9
ATOM      9  C   UNL d   1      28.491 -13.028  -6.931  0.00  0.00     0.177 C 
ATOM     10  S   UNL d   1      28.621 -12.616  -8.563  0.00  0.00    -0.041 SA
BRANCH   9  11
ATOM     11  N   UNL d   1      29.135 -14.201  -6.406  0.00  0.00    -0.299 N 
ATOM     12  C   UNL d   1      30.246 -14.923  -6.933  0.00  0.00     0.260 C 
ATOM     13  O   UNL d   1      31.075 -14.429  -7.694  0.00  0.00    -0.267 OA
ATOM     14  H   UNL d   1      28.714 -14.745  -5.680  0.00  0.00     0.171 HD
BRANCH  12  15
ATOM     15  C   UNL d   1      30.498 -16.376  -6.544  0.00  0.00     0.065 A 
ATOM     16  C   UNL d   1      31.265 -17.137  -7.463  0.00  0.00     0.020 A 
ATOM     17  C   UNL d   1      31.623 -18.473  -7.232  0.00  0.00     0.001 A 
ATOM     18  C   UNL d   1      31.227 -19.094  -6.059  0.00  0.00     0.003 A 
ATOM     19  C   UNL d   1      30.404 -18.401  -5.171  0.00  0.00     0.038 A 
ATOM     20  C   UNL d   1      30.033 -17.056  -5.409  0.00  0.00     0.084 A 
BRANCH  20  21
ATOM     21  O   UNL d   1      29.346 -16.472  -4.389  0.00  0.00    -0.350 OA
BRANCH  21  22
ATOM     22  C   UNL d   1      30.119 -16.162  -3.236  0.00  0.00     0.175 C 
BRANCH  22  23
ATOM     23  C   UNL d   1      29.111 -15.963  -2.118  0.00  0.00     0.026 C 
BRANCH  23  24
ATOM     24  C   UNL d   1      29.336 -17.015  -1.078  0.00  0.00    -0.002 C 
ATOM     25  C   UNL d   1      28.500 -16.718   0.141  0.00  0.00     0.005 C 
ENDBRANCH  23  24
ENDBRANCH  22  23
ENDBRANCH  21  22
ENDBRANCH  20  21
ENDBRANCH  12  15
ENDBRANCH   9  11
ENDBRANCH   1   9
BRANCH   7  26
ATOM     26  C   UNL d   1      27.407 -13.985  -4.190  0.00  0.00     0.146 C 
BRANCH  26  27
ATOM     27  C   UNL d   1      26.490 -14.974  -4.852  0.00  0.00     0.261 C 
ATOM     28  O   UNL d   1      26.739 -15.575  -5.902  0.00  0.00    -0.265 OA
BRANCH  27  29
ATOM     29  O   UNL d   1      25.280 -15.090  -4.211  0.00  0.00    -0.321 OA
BRANCH  29  30
ATOM     30  C   UNL d   1      25.373 -15.969  -3.073  0.00  0.00     0.179 C 
BRANCH  30  31
ATOM     31  C   UNL d   1      25.525 -15.212  -1.760  0.00  0.00     0.031 C 
BRANCH  31  32
ATOM     32  C   UNL d   1      25.537 -16.198  -0.591  0.00  0.00     0.041 C 
BRANCH  32  33
ATOM     33  C   UNL d   1      24.312 -17.072  -0.523  0.00  0.00    -0.058 A 
ATOM     34  C   UNL d   1      24.423 -18.457  -0.338  0.00  0.00     0.007 A 
ATOM     35  C   UNL d   1      23.310 -19.276  -0.518  0.00  0.00     0.001 A 
ATOM     36  C   UNL d   1      22.062 -18.712  -0.782  0.00  0.00     0.000 A 
ATOM     37  C   UNL d   1      21.931 -17.330  -0.895  0.00  0.00     0.001 A 
ATOM     38  C   UNL d   1      23.052 -16.514  -0.768  0.00  0.00     0.007 A 
ENDBRANCH  32  33
ENDBRANCH  31  32
ENDBRANCH  30  31
ENDBRANCH  29  30
ENDBRANCH  27  29
ENDBRANCH  26  27
ENDBRANCH   7  26
TORSDOF 14
ENDMDL
MODEL 6
REMARK VINA RESULT:    -7.859      3.517      6.663
REMARK INTER + INTRA:         -15.533
REMARK INTER:                 -12.035
REMARK INTRA:                  -3.498
REMARK CONF_INDEPENDENT:        4.176
REMARK UNBOUND:                -3.498
REMARK  14 active torsions:
REMARK  status: ('A' for Active; 'I' for Inactive)
REMARK    1  A    between atoms: C_2  and  C_3 
REMARK    2  A    between atoms: C_3  and  C_4 
REMARK    3  A    between atoms: C_4  and  O_5 
REMARK    4  A    between atoms: O_5  and  C_6 
REMARK    5  A    between atoms: C_11  and  C_12 
REMARK       I    between atoms: C_12  and  N_14 
REMARK    6  A    between atoms: N_14  and  C_15 
REMARK    7  A    between atoms: C_15  and  N_17 
REMARK    8  A    between atoms: C_23  and  C_24 
REMARK    9  A    between atoms: C_24  and  C_25 
REMARK   10  A    between atoms: C_25  and  O_27 
REMARK   11  A    between atoms: O_27  and  C_28 
REMARK   12  A    between atoms: C_28  and  C_29 
REMARK   13  A    between atoms: C_29  and  C_30 
REMARK   14  A    between atoms: C_30  and  C_31 
ROOT
ATOM      1  N   UNL d   1      28.360 -15.574  -2.262  0.00  0.00    -0.343 N 
ATOM      2  C   UNL d   1      29.104 -14.735  -3.293  0.00  0.00     0.146 C 
ATOM      3  C   UNL d   1      28.848 -15.189  -4.725  0.00  0.00     0.142 C 
ATOM      4  N   UNL d   1      27.434 -15.062  -4.976  0.00  0.00    -0.358 N 
ATOM      5  C   UNL d   1      26.448 -15.238  -4.027  0.00  0.00     0.241 C 
ATOM      6  O   UNL d   1      25.298 -15.158  -4.456  0.00  0.00    -0.271 OA
ATOM      7  C   UNL d   1      26.835 -15.491  -2.484  0.00  0.00     0.188 C 
ATOM      8  H   UNL d   1      27.088 -15.079  -5.932  0.00  0.00     0.162 HD
ENDROOT
BRANCH   1   9
ATOM      9  C   UNL d   1      29.033 -15.921  -1.030  0.00  0.00     0.177 C 
ATOM     10  S   UNL d   1      30.028 -17.285  -0.968  0.00  0.00    -0.041 SA
BRANCH   9  11
ATOM     11  N   UNL d   1      28.721 -15.174   0.157  0.00  0.00    -0.299 N 
ATOM     12  C   UNL d   1      29.591 -14.754   1.205  0.00  0.00     0.260 C 
ATOM     13  O   UNL d   1      30.804 -14.617   1.063  0.00  0.00    -0.267 OA
ATOM     14  H   UNL d   1      27.774 -15.037   0.451  0.00  0.00     0.171 HD
BRANCH  12  15
ATOM     15  C   UNL d   1      29.049 -14.407   2.588  0.00  0.00     0.065 A 
ATOM     16  C   UNL d   1      29.991 -14.449   3.648  0.00  0.00     0.020 A 
ATOM     17  C   UNL d   1      29.664 -14.114   4.970  0.00  0.00     0.001 A 
ATOM     18  C   UNL d   1      28.373 -13.713   5.274  0.00  0.00     0.003 A 
ATOM     19  C   UNL d   1      27.403 -13.738   4.272  0.00  0.00     0.038 A 
ATOM     20  C   UNL d   1      27.730 -14.089   2.941  0.00  0.00     0.084 A 
BRANCH  20  21
ATOM     21  O   UNL d   1      26.712 -13.932   2.050  0.00  0.00    -0.350 OA
BRANCH  21  22
ATOM     22  C   UNL d   1      26.844 -12.824   1.166  0.00  0.00     0.175 C 
BRANCH  22  23
ATOM     23  C   UNL d   1      26.656 -11.593   2.035  0.00  0.00     0.026 C 
BRANCH  23  24
ATOM     24  C   UNL d   1      27.895 -10.758   1.957  0.00  0.00    -0.002 C 
ATOM     25  C   UNL d   1      28.809 -11.297   0.886  0.00  0.00     0.005 C 
ENDBRANCH  23  24
ENDBRANCH  22  23
ENDBRANCH  21  22
ENDBRANCH  20  21
ENDBRANCH  12  15
ENDBRANCH   9  11
ENDBRANCH   1   9
BRANCH   7  26
ATOM     26  C   UNL d   1      26.107 -16.633  -1.758  0.00  0.00     0.146 C 
BRANCH  26  27
ATOM     27  C   UNL d   1      25.757 -16.570  -0.298  0.00  0.00     0.261 C 
ATOM     28  O   UNL d   1      26.544 -16.799   0.626  0.00  0.00    -0.265 OA
BRANCH  27  29
ATOM     29  O   UNL d   1      24.426 -16.311  -0.080  0.00  0.00    -0.321 OA
BRANCH  29  30
ATOM     30  C   UNL d   1      23.628 -16.670  -1.224  0.00  0.00     0.179 C 
BRANCH  30  31
ATOM     31  C   UNL d   1      23.287 -18.155  -1.256  0.00  0.00     0.031 C 
BRANCH  31  32
ATOM     32  C   UNL d   1      22.768 -18.598   0.113  0.00  0.00     0.041 C 
BRANCH  32  33
ATOM     33  C   UNL d   1      21.315 -18.995   0.112  0.00  0.00    -0.058 A 
ATOM     34  C   UNL d   1      20.656 -19.325   1.303  0.00  0.00     0.007 A 
ATOM     35  C   UNL d   1      19.395 -19.919   1.262  0.00  0.00     0.001 A 
ATOM     36  C   UNL d   1      18.744 -20.093   0.042  0.00  0.00     0.000 A 
ATOM     37  C   UNL d   1      19.364 -19.700  -1.142  0.00  0.00     0.001 A 
ATOM     38  C   UNL d   1      20.645 -19.156  -1.107  0.00  0.00     0.007 A 
ENDBRANCH  32  33
ENDBRANCH  31  32
ENDBRANCH  30  31
ENDBRANCH  29  30
ENDBRANCH  27  29
ENDBRANCH  26  27
ENDBRANCH   7  26
TORSDOF 14
ENDMDL
MODEL 7
REMARK VINA RESULT:    -7.720      2.427      3.765
REMARK INTER + INTRA:         -15.501
REMARK INTER:                 -11.896
REMARK INTRA:                  -3.605
REMARK CONF_INDEPENDENT:        4.176
REMARK UNBOUND:                -3.605
REMARK  14 active torsions:
REMARK  status: ('A' for Active; 'I' for Inactive)
REMARK    1  A    between atoms: C_2  and  C_3 
REMARK    2  A    between atoms: C_3  and  C_4 
REMARK    3  A    between atoms: C_4  and  O_5 
REMARK    4  A    between atoms: O_5  and  C_6 
REMARK    5  A    between atoms: C_11  and  C_12 
REMARK       I    between atoms: C_12  and  N_14 
REMARK    6  A    between atoms: N_14  and  C_15 
REMARK    7  A    between atoms: C_15  and  N_17 
REMARK    8  A    between atoms: C_23  and  C_24 
REMARK    9  A    between atoms: C_24  and  C_25 
REMARK   10  A    between atoms: C_25  and  O_27 
REMARK   11  A    between atoms: O_27  and  C_28 
REMARK   12  A    between atoms: C_28  and  C_29 
REMARK   13  A    between atoms: C_29  and  C_30 
REMARK   14  A    between atoms: C_30  and  C_31 
ROOT
ATOM      1  N   UNL d   1      27.934 -15.425  -0.147  0.00  0.00    -0.343 N 
ATOM      2  C   UNL d   1      28.971 -15.249   0.955  0.00  0.00     0.146 C 
ATOM      3  C   UNL d   1      29.531 -13.833   1.023  0.00  0.00     0.142 C 
ATOM      4  N   UNL d   1      28.430 -12.942   1.291  0.00  0.00    -0.358 N 
ATOM      5  C   UNL d   1      27.137 -13.134   0.851  0.00  0.00     0.241 C 
ATOM      6  O   UNL d   1      26.358 -12.222   1.124  0.00  0.00    -0.271 OA
ATOM      7  C   UNL d   1      26.730 -14.486   0.076  0.00  0.00     0.188 C 
ATOM      8  H   UNL d   1      28.616 -11.995   1.614  0.00  0.00     0.162 HD
ENDROOT
BRANCH   1   9
ATOM      9  C   UNL d   1      27.941 -16.648  -0.920  0.00  0.00     0.177 C 
ATOM     10  S   UNL d   1      27.841 -18.141  -0.137  0.00  0.00    -0.041 SA
BRANCH   9  11
ATOM     11  N   UNL d   1      28.182 -16.565  -2.334  0.00  0.00    -0.299 N 
ATOM     12  C   UNL d   1      29.382 -16.834  -3.055  0.00  0.00     0.260 C 
ATOM     13  O   UNL d   1      30.278 -17.561  -2.630  0.00  0.00    -0.267 OA
ATOM     14  H   UNL d   1      27.536 -16.107  -2.945  0.00  0.00     0.171 HD
BRANCH  12  15
ATOM     15  C   UNL d   1      29.615 -16.250  -4.444  0.00  0.00     0.065 A 
ATOM     16  C   UNL d   1      30.951 -16.298  -4.918  0.00  0.00     0.020 A 
ATOM     17  C   UNL d   1      31.323 -15.844  -6.191  0.00  0.00     0.001 A 
ATOM     18  C   UNL d   1      30.359 -15.333  -7.044  0.00  0.00     0.003 A 
ATOM     19  C   UNL d   1      29.050 -15.197  -6.581  0.00  0.00     0.038 A 
ATOM     20  C   UNL d   1      28.676 -15.643  -5.291  0.00  0.00     0.084 A 
BRANCH  20  21
ATOM     21  O   UNL d   1      27.341 -15.573  -5.035  0.00  0.00    -0.350 OA
BRANCH  21  22
ATOM     22  C   UNL d   1      26.785 -14.264  -5.069  0.00  0.00     0.175 C 
BRANCH  22  23
ATOM     23  C   UNL d   1      27.700 -13.416  -4.203  0.00  0.00     0.026 C 
BRANCH  23  24
ATOM     24  C   UNL d   1      26.879 -12.366  -3.524  0.00  0.00    -0.002 C 
ATOM     25  C   UNL d   1      25.548 -12.227  -4.219  0.00  0.00     0.005 C 
ENDBRANCH  23  24
ENDBRANCH  22  23
ENDBRANCH  21  22
ENDBRANCH  20  21
ENDBRANCH  12  15
ENDBRANCH   9  11
ENDBRANCH   1   9
BRANCH   7  26
ATOM     26  C   UNL d   1      25.903 -14.333  -1.209  0.00  0.00     0.146 C 
BRANCH  26  27
ATOM     27  C   UNL d   1      25.219 -15.495  -1.874  0.00  0.00     0.261 C 
ATOM     28  O   UNL d   1      25.373 -15.823  -3.055  0.00  0.00    -0.265 OA
BRANCH  27  29
ATOM     29  O   UNL d   1      24.318 -16.126  -1.050  0.00  0.00    -0.321 OA
BRANCH  29  30
ATOM     30  C   UNL d   1      24.448 -17.558  -1.133  0.00  0.00     0.179 C 
BRANCH  30  31
ATOM     31  C   UNL d   1      23.389 -18.290  -0.317  0.00  0.00     0.031 C 
BRANCH  31  32
ATOM     32  C   UNL d   1      22.034 -18.189  -1.018  0.00  0.00     0.041 C 
BRANCH  32  33
ATOM     33  C   UNL d   1      20.964 -19.049  -0.398  0.00  0.00    -0.058 A 
ATOM     34  C   UNL d   1      19.871 -19.498  -1.151  0.00  0.00     0.007 A 
ATOM     35  C   UNL d   1      18.777 -20.081  -0.514  0.00  0.00     0.001 A 
ATOM     36  C   UNL d   1      18.810 -20.312   0.860  0.00  0.00     0.000 A 
ATOM     37  C   UNL d   1      19.925 -19.934   1.605  0.00  0.00     0.001 A 
ATOM     38  C   UNL d   1      20.996 -19.303   0.978  0.00  0.00     0.007 A 
ENDBRANCH  32  33
ENDBRANCH  31  32
ENDBRANCH  30  31
ENDBRANCH  29  30
ENDBRANCH  27  29
ENDBRANCH  26  27
ENDBRANCH   7  26
TORSDOF 14
ENDMDL
MODEL 8
REMARK VINA RESULT:    -7.134      2.814      8.694
REMARK INTER + INTRA:         -15.261
REMARK INTER:                 -11.310
REMARK INTRA:                  -3.951
REMARK CONF_INDEPENDENT:        4.176
REMARK UNBOUND:                -3.951
REMARK  14 active torsions:
REMARK  status: ('A' for Active; 'I' for Inactive)
REMARK    1  A    between atoms: C_2  and  C_3 
REMARK    2  A    between atoms: C_3  and  C_4 
REMARK    3  A    between atoms: C_4  and  O_5 
REMARK    4  A    between atoms: O_5  and  C_6 
REMARK    5  A    between atoms: C_11  and  C_12 
REMARK       I    between atoms: C_12  and  N_14 
REMARK    6  A    between atoms: N_14  and  C_15 
REMARK    7  A    between atoms: C_15  and  N_17 
REMARK    8  A    between atoms: C_23  and  C_24 
REMARK    9  A    between atoms: C_24  and  C_25 
REMARK   10  A    between atoms: C_25  and  O_27 
REMARK   11  A    between atoms: O_27  and  C_28 
REMARK   12  A    between atoms: C_28  and  C_29 
REMARK   13  A    between atoms: C_29  and  C_30 
REMARK   14  A    between atoms: C_30  and  C_31 
ROOT
ATOM      1  N   UNL d   1      29.383 -16.888  -2.981  0.00  0.00    -0.343 N 
ATOM      2  C   UNL d   1      30.593 -17.614  -3.554  0.00  0.00     0.146 C 
ATOM      3  C   UNL d   1      30.343 -18.179  -4.948  0.00  0.00     0.142 C 
ATOM      4  N   UNL d   1      30.027 -17.072  -5.816  0.00  0.00    -0.358 N 
ATOM      5  C   UNL d   1      29.363 -15.929  -5.423  0.00  0.00     0.241 C 
ATOM      6  O   UNL d   1      29.125 -15.133  -6.329  0.00  0.00    -0.271 OA
ATOM      7  C   UNL d   1      28.984 -15.694  -3.875  0.00  0.00     0.188 C 
ATOM      8  H   UNL d   1      30.065 -17.197  -6.825  0.00  0.00     0.162 HD
ENDROOT
BRANCH   1   9
ATOM      9  C   UNL d   1      29.070 -17.057  -1.579  0.00  0.00     0.177 C 
ATOM     10  S   UNL d   1      30.240 -17.657  -0.520  0.00  0.00    -0.041 SA
BRANCH   9  11
ATOM     11  N   UNL d   1      27.716 -16.844  -1.149  0.00  0.00    -0.299 N 
ATOM     12  C   UNL d   1      26.821 -17.761  -0.523  0.00  0.00     0.260 C 
ATOM     13  O   UNL d   1      27.195 -18.748   0.106  0.00  0.00    -0.267 OA
ATOM     14  H   UNL d   1      27.199 -16.037  -1.436  0.00  0.00     0.171 HD
BRANCH  12  15
ATOM     15  C   UNL d   1      25.312 -17.546  -0.569  0.00  0.00     0.065 A 
ATOM     16  C   UNL d   1      24.517 -18.687  -0.287  0.00  0.00     0.020 A 
ATOM     17  C   UNL d   1      23.116 -18.646  -0.244  0.00  0.00     0.001 A 
ATOM     18  C   UNL d   1      22.460 -17.448  -0.475  0.00  0.00     0.003 A 
ATOM     19  C   UNL d   1      23.207 -16.326  -0.834  0.00  0.00     0.038 A 
ATOM     20  C   UNL d   1      24.620 -16.370  -0.890  0.00  0.00     0.084 A 
BRANCH  20  21
ATOM     21  O   UNL d   1      25.213 -15.165  -1.117  0.00  0.00    -0.350 OA
BRANCH  21  22
ATOM     22  C   UNL d   1      25.982 -14.655  -0.034  0.00  0.00     0.175 C 
BRANCH  22  23
ATOM     23  C   UNL d   1      26.835 -13.550  -0.633  0.00  0.00     0.026 C 
BRANCH  23  24
ATOM     24  C   UNL d   1      28.272 -13.837  -0.331  0.00  0.00    -0.002 C 
ATOM     25  C   UNL d   1      28.380 -14.593   0.969  0.00  0.00     0.005 C 
ENDBRANCH  23  24
ENDBRANCH  22  23
ENDBRANCH  21  22
ENDBRANCH  20  21
ENDBRANCH  12  15
ENDBRANCH   9  11
ENDBRANCH   1   9
BRANCH   7  26
ATOM     26  C   UNL d   1      27.555 -15.226  -3.567  0.00  0.00     0.146 C 
BRANCH  26  27
ATOM     27  C   UNL d   1      26.435 -15.338  -4.563  0.00  0.00     0.261 C 
ATOM     28  O   UNL d   1      26.582 -15.574  -5.767  0.00  0.00    -0.265 OA
BRANCH  27  29
ATOM     29  O   UNL d   1      25.205 -15.061  -4.016  0.00  0.00    -0.321 OA
BRANCH  29  30
ATOM     30  C   UNL d   1      24.803 -13.706  -4.291  0.00  0.00     0.179 C 
BRANCH  30  31
ATOM     31  C   UNL d   1      25.156 -12.748  -3.160  0.00  0.00     0.031 C 
BRANCH  31  32
ATOM     32  C   UNL d   1      26.413 -11.957  -3.524  0.00  0.00     0.041 C 
BRANCH  32  33
ATOM     33  C   UNL d   1      26.656 -11.852  -5.006  0.00  0.00    -0.058 A 
ATOM     34  C   UNL d   1      27.700 -12.558  -5.619  0.00  0.00     0.007 A 
ATOM     35  C   UNL d   1      28.062 -12.267  -6.933  0.00  0.00     0.001 A 
ATOM     36  C   UNL d   1      27.323 -11.347  -7.674  0.00  0.00     0.000 A 
ATOM     37  C   UNL d   1      26.239 -10.694  -7.094  0.00  0.00     0.001 A 
ATOM     38  C   UNL d   1      25.908 -10.943  -5.765  0.00  0.00     0.007 A 
ENDBRANCH  32  33
ENDBRANCH  31  32
ENDBRANCH  30  31
ENDBRANCH  29  30
ENDBRANCH  27  29
ENDBRANCH  26  27
ENDBRANCH   7  26
TORSDOF 14
ENDMDL
