MODEL 1
REMARK VINA RESULT:   -30.407      0.000      0.000
REMARK INTER + INTRA:         -32.872
REMARK INTER:                 -32.197
REMARK INTRA:                  -0.675
REMARK CONF_INDEPENDENT:        1.790
REMARK UNBOUND:                -0.675
REMARK  6 active torsions:
REMARK  status: ('A' for Active; 'I' for Inactive)
REMARK    1  A    between atoms: N_1  and  C_2 
REMARK    2  A    between atoms: C_4  and  S_5 
REMARK    3  A    between atoms: S_5  and  C_6 
REMARK    4  A    between atoms: C_6  and  C_7 
REMARK       I    between atoms: C_7  and  N_9 
REMARK    5  A    between atoms: N_9  and  N_10 
REMARK    6  A    between atoms: N_10  and  C_11 
ROOT
ATOM      1  C   UNL d   1      23.750 -16.973  -0.704  0.00  0.00     0.245 C 
ATOM      2  O   UNL d   1      24.555 -17.297   0.182  0.00  0.00    -0.271 OA
ATOM      3  N   UNL d   1      24.096 -15.994  -1.638  0.00  0.00    -0.269 N 
ATOM      4  H   UNL d   1      23.452 -15.616  -2.326  0.00  0.00     0.190 HD
ENDROOT
BRANCH   1   5
ATOM      5  C   UNL d   1      22.347 -17.610  -0.875  0.00  0.00     0.187 C 
BRANCH   5   6
ATOM      6  S   UNL d   1      22.347 -19.313  -0.219  0.00  0.00    -0.079 SA
BRANCH   6   7
ATOM      7  C   UNL d   1      20.688 -19.842  -0.198  0.00  0.00     0.226 A 
ATOM      8  N   UNL d   1      20.144 -20.773   0.651  0.00  0.00    -0.035 NA
ATOM      9  C   UNL d   1      18.884 -20.819   0.283  0.00  0.00     0.716 A 
ATOM     10  N   UNL d   1      18.685 -19.948  -0.752  0.00  0.00    -0.105 N 
ATOM     11  N   UNL d   1      19.822 -19.314  -1.075  0.00  0.00    -0.132 NA
ATOM     12  H   UNL d   1      17.832 -19.750  -1.261  0.00  0.00     0.208 HD
BRANCH   9  13
ATOM     13  N   UNL d   1      17.892 -21.567   0.781  0.00  0.00    -0.231 N 
ATOM     14  H   UNL d   1      17.702 -21.533   1.777  0.00  0.00     0.174 HD
ATOM     15  H   UNL d   1      17.246 -22.123   0.232  0.00  0.00     0.174 HD
ENDBRANCH   9  13
ENDBRANCH   6   7
ENDBRANCH   5   6
ENDBRANCH   1   5
BRANCH   3  16
ATOM     16  N   UNL d   1      25.334 -15.335  -1.458  0.00  0.00    -0.295 N 
ATOM     17  H   UNL d   1      25.615 -15.158  -0.488  0.00  0.00     0.187 HD
BRANCH  16  18
ATOM     18  C   UNL d   1      26.293 -15.267  -2.492  0.00  0.00     0.091 A 
ATOM     19  C   UNL d   1      27.554 -15.897  -2.412  0.00  0.00     0.065 A 
ATOM     20 CL   UNL d   1      28.020 -16.848  -1.041  0.00  0.00    -0.082 Cl
ATOM     21  C   UNL d   1      28.471 -15.853  -3.474  0.00  0.00     0.050 A 
ATOM     22  C   UNL d   1      28.171 -15.147  -4.630  0.00  0.00     0.037 A 
ATOM     23 CL   UNL d   1      29.307 -15.100  -5.922  0.00  0.00    -0.084 Cl
ATOM     24  C   UNL d   1      26.958 -14.483  -4.743  0.00  0.00     0.050 A 
ATOM     25  C   UNL d   1      26.030 -14.552  -3.689  0.00  0.00     0.065 A 
ATOM     26 CL   UNL d   1      24.535 -13.705  -3.915  0.00  0.00    -0.082 Cl
ENDBRANCH  16  18
ENDBRANCH   3  16
TORSDOF 6
ENDMDL
MODEL 2
REMARK VINA RESULT:   -30.398      0.229      2.005
REMARK INTER + INTRA:         -32.922
REMARK INTER:                 -32.188
REMARK INTRA:                  -0.733
REMARK CONF_INDEPENDENT:        1.790
REMARK UNBOUND:                -0.733
REMARK  6 active torsions:
REMARK  status: ('A' for Active; 'I' for Inactive)
REMARK    1  A    between atoms: N_1  and  C_2 
REMARK    2  A    between atoms: C_4  and  S_5 
REMARK    3  A    between atoms: S_5  and  C_6 
REMARK    4  A    between atoms: C_6  and  C_7 
REMARK       I    between atoms: C_7  and  N_9 
REMARK    5  A    between atoms: N_9  and  N_10 
REMARK    6  A    between atoms: N_10  and  C_11 
ROOT
ATOM      1  C   UNL d   1      23.899 -16.968  -0.642  0.00  0.00     0.245 C 
ATOM      2  O   UNL d   1      24.740 -17.326   0.196  0.00  0.00    -0.271 OA
ATOM      3  N   UNL d   1      24.240 -16.024  -1.615  0.00  0.00    -0.269 N 
ATOM      4  H   UNL d   1      23.576 -15.620  -2.267  0.00  0.00     0.190 HD
ENDROOT
BRANCH   1   5
ATOM      5  C   UNL d   1      22.453 -17.524  -0.712  0.00  0.00     0.187 C 
BRANCH   5   6
ATOM      6  S   UNL d   1      22.460 -19.324  -0.411  0.00  0.00    -0.079 SA
BRANCH   6   7
ATOM      7  C   UNL d   1      20.793 -19.820  -0.305  0.00  0.00     0.226 A 
ATOM      8  N   UNL d   1      20.265 -20.695   0.610  0.00  0.00    -0.035 NA
ATOM      9  C   UNL d   1      18.992 -20.736   0.290  0.00  0.00     0.716 A 
ATOM     10  N   UNL d   1      18.770 -19.915  -0.780  0.00  0.00    -0.105 N 
ATOM     11  N   UNL d   1      19.905 -19.321  -1.176  0.00  0.00    -0.132 NA
ATOM     12  H   UNL d   1      17.903 -19.727  -1.269  0.00  0.00     0.208 HD
BRANCH   9  13
ATOM     13  N   UNL d   1      18.006 -21.439   0.861  0.00  0.00    -0.231 N 
ATOM     14  H   UNL d   1      17.591 -21.096   1.721  0.00  0.00     0.174 HD
ATOM     15  H   UNL d   1      17.570 -22.264   0.465  0.00  0.00     0.174 HD
ENDBRANCH   9  13
ENDBRANCH   6   7
ENDBRANCH   5   6
ENDBRANCH   1   5
BRANCH   3  16
ATOM     16  N   UNL d   1      25.523 -15.437  -1.525  0.00  0.00    -0.295 N 
ATOM     17  H   UNL d   1      25.924 -15.369  -0.584  0.00  0.00     0.187 HD
BRANCH  16  18
ATOM     18  C   UNL d   1      26.356 -15.305  -2.658  0.00  0.00     0.091 A 
ATOM     19  C   UNL d   1      25.984 -14.570  -3.804  0.00  0.00     0.065 A 
ATOM     20 CL   UNL d   1      24.474 -13.725  -3.901  0.00  0.00    -0.082 Cl
ATOM     21  C   UNL d   1      26.850 -14.416  -4.897  0.00  0.00     0.050 A 
ATOM     22  C   UNL d   1      28.097 -15.025  -4.895  0.00  0.00     0.037 A 
ATOM     23 CL   UNL d   1      29.147 -14.829  -6.245  0.00  0.00    -0.084 Cl
ATOM     24  C   UNL d   1      28.495 -15.786  -3.805  0.00  0.00     0.050 A 
ATOM     25  C   UNL d   1      27.637 -15.916  -2.699  0.00  0.00     0.065 A 
ATOM     26 CL   UNL d   1      28.216 -16.873  -1.376  0.00  0.00    -0.082 Cl
ENDBRANCH  16  18
ENDBRANCH   3  16
TORSDOF 6
ENDMDL
MODEL 3
REMARK VINA RESULT:   -30.140      1.797      2.072
REMARK INTER + INTRA:         -32.540
REMARK INTER:                 -31.930
REMARK INTRA:                  -0.611
REMARK CONF_INDEPENDENT:        1.790
REMARK UNBOUND:                -0.611
REMARK  6 active torsions:
REMARK  status: ('A' for Active; 'I' for Inactive)
REMARK    1  A    between atoms: N_1  and  C_2 
REMARK    2  A    between atoms: C_4  and  S_5 
REMARK    3  A    between atoms: S_5  and  C_6 
REMARK    4  A    between atoms: C_6  and  C_7 
REMARK       I    between atoms: C_7  and  N_9 
REMARK    5  A    between atoms: N_9  and  N_10 
REMARK    6  A    between atoms: N_10  and  C_11 
ROOT
ATOM      1  C   UNL d   1      24.006 -17.666  -1.435  0.00  0.00     0.245 C 
ATOM      2  O   UNL d   1      24.686 -17.452  -2.449  0.00  0.00    -0.271 OA
ATOM      3  N   UNL d   1      24.138 -16.837  -0.317  0.00  0.00    -0.269 N 
ATOM      4  H   UNL d   1      23.684 -17.013   0.573  0.00  0.00     0.190 HD
ENDROOT
BRANCH   1   5
ATOM      5  C   UNL d   1      22.965 -18.809  -1.314  0.00  0.00     0.187 C 
BRANCH   5   6
ATOM      6  S   UNL d   1      22.038 -18.647   0.250  0.00  0.00    -0.079 SA
BRANCH   6   7
ATOM      7  C   UNL d   1      20.530 -19.491   0.028  0.00  0.00     0.226 A 
ATOM      8  N   UNL d   1      19.962 -20.380   0.904  0.00  0.00    -0.035 NA
ATOM      9  C   UNL d   1      18.849 -20.731   0.301  0.00  0.00     0.716 A 
ATOM     10  N   UNL d   1      18.760 -20.075  -0.895  0.00  0.00    -0.105 N 
ATOM     11  N   UNL d   1      19.820 -19.278  -1.090  0.00  0.00    -0.132 NA
ATOM     12  H   UNL d   1      18.030 -20.127  -1.596  0.00  0.00     0.208 HD
BRANCH   9  13
ATOM     13  N   UNL d   1      17.905 -21.584   0.714  0.00  0.00    -0.231 N 
ATOM     14  H   UNL d   1      17.695 -21.645   1.705  0.00  0.00     0.174 HD
ATOM     15  H   UNL d   1      17.309 -22.137   0.108  0.00  0.00     0.174 HD
ENDBRANCH   9  13
ENDBRANCH   6   7
ENDBRANCH   5   6
ENDBRANCH   1   5
BRANCH   3  16
ATOM     16  N   UNL d   1      25.139 -15.839  -0.366  0.00  0.00    -0.295 N 
ATOM     17  H   UNL d   1      24.963 -14.995   0.189  0.00  0.00     0.187 HD
BRANCH  16  18
ATOM     18  C   UNL d   1      26.445 -16.124  -0.820  0.00  0.00     0.091 A 
ATOM     19  C   UNL d   1      27.239 -17.158  -0.277  0.00  0.00     0.065 A 
ATOM     20 CL   UNL d   1      26.654 -18.200   0.978  0.00  0.00    -0.082 Cl
ATOM     21  C   UNL d   1      28.516 -17.450  -0.778  0.00  0.00     0.050 A 
ATOM     22  C   UNL d   1      29.055 -16.694  -1.810  0.00  0.00     0.037 A 
ATOM     23 CL   UNL d   1      30.624 -17.063  -2.412  0.00  0.00    -0.084 Cl
ATOM     24  C   UNL d   1      28.327 -15.646  -2.354  0.00  0.00     0.050 A 
ATOM     25  C   UNL d   1      27.036 -15.372  -1.869  0.00  0.00     0.065 A 
ATOM     26 CL   UNL d   1      26.191 -14.054  -2.611  0.00  0.00    -0.082 Cl
ENDBRANCH  16  18
ENDBRANCH   3  16
TORSDOF 6
ENDMDL
MODEL 4
REMARK VINA RESULT:   -30.139      1.785      2.745
REMARK INTER + INTRA:         -32.508
REMARK INTER:                 -31.928
REMARK INTRA:                  -0.579
REMARK CONF_INDEPENDENT:        1.790
REMARK UNBOUND:                -0.579
REMARK  6 active torsions:
REMARK  status: ('A' for Active; 'I' for Inactive)
REMARK    1  A    between atoms: N_1  and  C_2 
REMARK    2  A    between atoms: C_4  and  S_5 
REMARK    3  A    between atoms: S_5  and  C_6 
REMARK    4  A    between atoms: C_6  and  C_7 
REMARK       I    between atoms: C_7  and  N_9 
REMARK    5  A    between atoms: N_9  and  N_10 
REMARK    6  A    between atoms: N_10  and  C_11 
ROOT
ATOM      1  C   UNL d   1      24.000 -17.685  -1.442  0.00  0.00     0.245 C 
ATOM      2  O   UNL d   1      24.662 -17.449  -2.463  0.00  0.00    -0.271 OA
ATOM      3  N   UNL d   1      24.148 -16.878  -0.310  0.00  0.00    -0.269 N 
ATOM      4  H   UNL d   1      23.709 -17.073   0.584  0.00  0.00     0.190 HD
ENDROOT
BRANCH   1   5
ATOM      5  C   UNL d   1      22.964 -18.833  -1.326  0.00  0.00     0.187 C 
BRANCH   5   6
ATOM      6  S   UNL d   1      22.059 -18.703   0.254  0.00  0.00    -0.079 SA
BRANCH   6   7
ATOM      7  C   UNL d   1      20.538 -19.522   0.030  0.00  0.00     0.226 A 
ATOM      8  N   UNL d   1      19.956 -20.403   0.905  0.00  0.00    -0.035 NA
ATOM      9  C   UNL d   1      18.838 -20.736   0.300  0.00  0.00     0.716 A 
ATOM     10  N   UNL d   1      18.760 -20.077  -0.895  0.00  0.00    -0.105 N 
ATOM     11  N   UNL d   1      19.833 -19.298  -1.088  0.00  0.00    -0.132 NA
ATOM     12  H   UNL d   1      18.030 -20.118  -1.597  0.00  0.00     0.208 HD
BRANCH   9  13
ATOM     13  N   UNL d   1      17.879 -21.574   0.712  0.00  0.00    -0.231 N 
ATOM     14  H   UNL d   1      17.657 -21.621   1.700  0.00  0.00     0.174 HD
ATOM     15  H   UNL d   1      17.286 -22.129   0.105  0.00  0.00     0.174 HD
ENDBRANCH   9  13
ENDBRANCH   6   7
ENDBRANCH   5   6
ENDBRANCH   1   5
BRANCH   3  16
ATOM     16  N   UNL d   1      25.145 -15.876  -0.356  0.00  0.00    -0.295 N 
ATOM     17  H   UNL d   1      24.987 -15.055   0.237  0.00  0.00     0.187 HD
BRANCH  16  18
ATOM     18  C   UNL d   1      26.435 -16.140  -0.866  0.00  0.00     0.091 A 
ATOM     19  C   UNL d   1      27.007 -15.403  -1.925  0.00  0.00     0.065 A 
ATOM     20 CL   UNL d   1      26.181 -14.074  -2.669  0.00  0.00    -0.082 Cl
ATOM     21  C   UNL d   1      28.309 -15.655  -2.383  0.00  0.00     0.050 A 
ATOM     22  C   UNL d   1      29.064 -16.676  -1.822  0.00  0.00     0.037 A 
ATOM     23 CL   UNL d   1      30.659 -16.975  -2.395  0.00  0.00    -0.084 Cl
ATOM     24  C   UNL d   1      28.533 -17.450  -0.800  0.00  0.00     0.050 A 
ATOM     25  C   UNL d   1      27.238 -17.178  -0.325  0.00  0.00     0.065 A 
ATOM     26 CL   UNL d   1      26.655 -18.183   0.960  0.00  0.00    -0.082 Cl
ENDBRANCH  16  18
ENDBRANCH   3  16
TORSDOF 6
ENDMDL
MODEL 5
REMARK VINA RESULT:   -29.755      1.786      2.261
REMARK INTER + INTRA:         -32.161
REMARK INTER:                 -31.545
REMARK INTRA:                  -0.617
REMARK CONF_INDEPENDENT:        1.790
REMARK UNBOUND:                -0.617
REMARK  6 active torsions:
REMARK  status: ('A' for Active; 'I' for Inactive)
REMARK    1  A    between atoms: N_1  and  C_2 
REMARK    2  A    between atoms: C_4  and  S_5 
REMARK    3  A    between atoms: S_5  and  C_6 
REMARK    4  A    between atoms: C_6  and  C_7 
REMARK       I    between atoms: C_7  and  N_9 
REMARK    5  A    between atoms: N_9  and  N_10 
REMARK    6  A    between atoms: N_10  and  C_11 
ROOT
ATOM      1  C   UNL d   1      24.884 -17.815  -0.372  0.00  0.00     0.245 C 
ATOM      2  O   UNL d   1      25.973 -18.135   0.126  0.00  0.00    -0.271 OA
ATOM      3  N   UNL d   1      24.846 -16.971  -1.486  0.00  0.00    -0.269 N 
ATOM      4  H   UNL d   1      23.989 -16.596  -1.881  0.00  0.00     0.190 HD
ENDROOT
BRANCH   1   5
ATOM      5  C   UNL d   1      23.511 -18.314   0.149  0.00  0.00     0.187 C 
BRANCH   5   6
ATOM      6  S   UNL d   1      22.400 -18.668  -1.255  0.00  0.00    -0.079 SA
BRANCH   6   7
ATOM      7  C   UNL d   1      20.951 -19.365  -0.583  0.00  0.00     0.226 A 
ATOM      8  N   UNL d   1      20.848 -20.018   0.619  0.00  0.00    -0.035 NA
ATOM      9  C   UNL d   1      19.577 -20.344   0.678  0.00  0.00     0.716 A 
ATOM     10  N   UNL d   1      18.946 -19.902  -0.452  0.00  0.00    -0.105 N 
ATOM     11  N   UNL d   1      19.803 -19.275  -1.270  0.00  0.00    -0.132 NA
ATOM     12  H   UNL d   1      17.972 -19.995  -0.714  0.00  0.00     0.208 HD
BRANCH   9  13
ATOM     13  N   UNL d   1      18.924 -21.001   1.644  0.00  0.00    -0.231 N 
ATOM     14  H   UNL d   1      18.211 -21.675   1.386  0.00  0.00     0.174 HD
ATOM     15  H   UNL d   1      19.131 -20.943   2.635  0.00  0.00     0.174 HD
ENDBRANCH   9  13
ENDBRANCH   6   7
ENDBRANCH   5   6
ENDBRANCH   1   5
BRANCH   3  16
ATOM     16  N   UNL d   1      26.074 -16.432  -1.932  0.00  0.00    -0.295 N 
ATOM     17  H   UNL d   1      26.747 -17.101  -2.320  0.00  0.00     0.187 HD
BRANCH  16  18
ATOM     18  C   UNL d   1      26.226 -15.051  -2.187  0.00  0.00     0.091 A 
ATOM     19  C   UNL d   1      26.482 -14.106  -1.171  0.00  0.00     0.065 A 
ATOM     20 CL   UNL d   1      26.674 -14.571   0.488  0.00  0.00    -0.082 Cl
ATOM     21  C   UNL d   1      26.675 -12.746  -1.457  0.00  0.00     0.050 A 
ATOM     22  C   UNL d   1      26.579 -12.284  -2.762  0.00  0.00     0.037 A 
ATOM     23 CL   UNL d   1      26.816 -10.612  -3.097  0.00  0.00    -0.084 Cl
ATOM     24  C   UNL d   1      26.296 -13.169  -3.792  0.00  0.00     0.050 A 
ATOM     25  C   UNL d   1      26.130 -14.536  -3.506  0.00  0.00     0.065 A 
ATOM     26 CL   UNL d   1      25.790 -15.575  -4.851  0.00  0.00    -0.082 Cl
ENDBRANCH  16  18
ENDBRANCH   3  16
TORSDOF 6
ENDMDL
MODEL 6
REMARK VINA RESULT:   -29.571      1.870      2.670
REMARK INTER + INTRA:         -32.109
REMARK INTER:                 -31.361
REMARK INTRA:                  -0.748
REMARK CONF_INDEPENDENT:        1.790
REMARK UNBOUND:                -0.748
REMARK  6 active torsions:
REMARK  status: ('A' for Active; 'I' for Inactive)
REMARK    1  A    between atoms: N_1  and  C_2 
REMARK    2  A    between atoms: C_4  and  S_5 
REMARK    3  A    between atoms: S_5  and  C_6 
REMARK    4  A    between atoms: C_6  and  C_7 
REMARK       I    between atoms: C_7  and  N_9 
REMARK    5  A    between atoms: N_9  and  N_10 
REMARK    6  A    between atoms: N_10  and  C_11 
ROOT
ATOM      1  C   UNL d   1      24.931 -17.864  -0.491  0.00  0.00     0.245 C 
ATOM      2  O   UNL d   1      25.984 -18.499  -0.329  0.00  0.00    -0.271 OA
ATOM      3  N   UNL d   1      24.913 -16.741  -1.322  0.00  0.00    -0.269 N 
ATOM      4  H   UNL d   1      24.113 -16.125  -1.421  0.00  0.00     0.190 HD
ENDROOT
BRANCH   1   5
ATOM      5  C   UNL d   1      23.578 -18.247   0.162  0.00  0.00     0.187 C 
BRANCH   5   6
ATOM      6  S   UNL d   1      22.228 -18.089  -1.057  0.00  0.00    -0.079 SA
BRANCH   6   7
ATOM      7  C   UNL d   1      20.887 -19.017  -0.442  0.00  0.00     0.226 A 
ATOM      8  N   UNL d   1      20.744 -19.483   0.840  0.00  0.00    -0.035 NA
ATOM      9  C   UNL d   1      19.587 -20.104   0.808  0.00  0.00     0.716 A 
ATOM     10  N   UNL d   1      19.062 -20.014  -0.450  0.00  0.00    -0.105 N 
ATOM     11  N   UNL d   1      19.874 -19.324  -1.264  0.00  0.00    -0.132 NA
ATOM     12  H   UNL d   1      18.189 -20.388  -0.803  0.00  0.00     0.208 HD
BRANCH   9  13
ATOM     13  N   UNL d   1      18.955 -20.749   1.796  0.00  0.00    -0.231 N 
ATOM     14  H   UNL d   1      18.060 -21.186   1.605  0.00  0.00     0.174 HD
ATOM     15  H   UNL d   1      19.330 -20.910   2.724  0.00  0.00     0.174 HD
ENDBRANCH   9  13
ENDBRANCH   6   7
ENDBRANCH   5   6
ENDBRANCH   1   5
BRANCH   3  16
ATOM     16  N   UNL d   1      26.148 -16.316  -1.863  0.00  0.00    -0.295 N 
ATOM     17  H   UNL d   1      26.755 -17.054  -2.236  0.00  0.00     0.187 HD
BRANCH  16  18
ATOM     18  C   UNL d   1      26.374 -14.969  -2.222  0.00  0.00     0.091 A 
ATOM     19  C   UNL d   1      26.310 -14.508  -3.554  0.00  0.00     0.065 A 
ATOM     20 CL   UNL d   1      25.904 -15.560  -4.871  0.00  0.00    -0.082 Cl
ATOM     21  C   UNL d   1      26.493 -13.155  -3.879  0.00  0.00     0.050 A 
ATOM     22  C   UNL d   1      26.784 -12.230  -2.886  0.00  0.00     0.037 A 
ATOM     23 CL   UNL d   1      27.008 -10.574  -3.299  0.00  0.00    -0.084 Cl
ATOM     24  C   UNL d   1      26.891 -12.640  -1.565  0.00  0.00     0.050 A 
ATOM     25  C   UNL d   1      26.680 -13.991  -1.240  0.00  0.00     0.065 A 
ATOM     26 CL   UNL d   1      26.821 -14.418   0.434  0.00  0.00    -0.082 Cl
ENDBRANCH  16  18
ENDBRANCH   3  16
TORSDOF 6
ENDMDL
