MODEL 1
REMARK VINA RESULT:   -30.738      0.000      0.000
REMARK INTER + INTRA:         -32.292
REMARK INTER:                 -31.931
REMARK INTRA:                  -0.361
REMARK CONF_INDEPENDENT:        1.193
REMARK UNBOUND:                -0.361
REMARK  4 active torsions:
REMARK  status: ('A' for Active; 'I' for Inactive)
REMARK    1  A    between atoms: C_2  and  C_3 
REMARK    2  A    between atoms: C_3  and  C_4 
REMARK    3  A    between atoms: C_3  and  N_6 
REMARK       I    between atoms: N_6  and  C_7 
REMARK       I    between atoms: C_7  and  N_9 
REMARK    4  A    between atoms: N_9  and  C_10 
ROOT
ATOM      1  N   UNL d   1      23.813 -17.720  -0.140  0.00  0.00    -0.338 N 
ATOM      2  C   UNL d   1      22.683 -18.433  -0.527  0.00  0.00     0.322 C 
ATOM      3  O   UNL d   1      22.573 -18.903  -1.649  0.00  0.00    -0.247 OA
ATOM      4  N   UNL d   1      21.719 -18.580   0.455  0.00  0.00    -0.291 N 
ATOM      5  H   UNL d   1      23.835 -17.269   0.763  0.00  0.00     0.164 HD
ATOM      6  H   UNL d   1      21.620 -17.886   1.178  0.00  0.00     0.172 HD
ENDROOT
BRANCH   1   7
ATOM      7  C   UNL d   1      24.968 -17.526  -1.076  0.00  0.00     0.085 C 
BRANCH   7   8
ATOM      8  C   UNL d   1      24.742 -16.308  -2.019  0.00  0.00     0.021 C 
ATOM      9  C   UNL d   1      25.985 -15.746  -2.718  0.00  0.00     0.007 C 
ENDBRANCH   7   8
BRANCH   7  10
ATOM     10  C   UNL d   1      26.276 -17.398  -0.255  0.00  0.00     0.021 C 
ATOM     11  C   UNL d   1      26.656 -18.575   0.630  0.00  0.00     0.007 C 
ENDBRANCH   7  10
ENDBRANCH   1   7
BRANCH   4  12
ATOM     12  C   UNL d   1      20.558 -19.310   0.183  0.00  0.00     0.161 A 
ATOM     13  C   UNL d   1      19.873 -20.182   1.065  0.00  0.00     0.087 A 
ATOM     14  C   UNL d   1      18.802 -20.660   0.354  0.00  0.00     0.078 A 
ATOM     15  C   UNL d   1      17.685 -21.575   0.676  0.00  0.00     0.079 C 
ATOM     16  O   UNL d   1      18.834 -20.113  -0.894  0.00  0.00    -0.216 OA
ATOM     17  N   UNL d   1      19.899 -19.217  -0.982  0.00  0.00    -0.110 NA
ENDBRANCH   4  12
TORSDOF 4
ENDMDL
MODEL 2
REMARK VINA RESULT:   -30.170      0.844      1.963
REMARK INTER + INTRA:         -31.712
REMARK INTER:                 -31.363
REMARK INTRA:                  -0.349
REMARK CONF_INDEPENDENT:        1.193
REMARK UNBOUND:                -0.349
REMARK  4 active torsions:
REMARK  status: ('A' for Active; 'I' for Inactive)
REMARK    1  A    between atoms: C_2  and  C_3 
REMARK    2  A    between atoms: C_3  and  C_4 
REMARK    3  A    between atoms: C_3  and  N_6 
REMARK       I    between atoms: N_6  and  C_7 
REMARK       I    between atoms: C_7  and  N_9 
REMARK    4  A    between atoms: N_9  and  C_10 
ROOT
ATOM      1  N   UNL d   1      23.945 -18.062  -0.574  0.00  0.00    -0.338 N 
ATOM      2  C   UNL d   1      22.570 -18.257  -0.495  0.00  0.00     0.322 C 
ATOM      3  O   UNL d   1      21.781 -17.334  -0.636  0.00  0.00    -0.247 OA
ATOM      4  N   UNL d   1      22.176 -19.564  -0.268  0.00  0.00    -0.291 N 
ATOM      5  H   UNL d   1      24.572 -18.825  -0.365  0.00  0.00     0.164 HD
ATOM      6  H   UNL d   1      22.776 -20.195   0.237  0.00  0.00     0.172 HD
ENDROOT
BRANCH   1   7
ATOM      7  C   UNL d   1      24.524 -16.711  -0.872  0.00  0.00     0.085 C 
BRANCH   7   8
ATOM      8  C   UNL d   1      25.809 -16.442  -0.034  0.00  0.00     0.021 C 
ATOM      9  C   UNL d   1      26.705 -17.654   0.245  0.00  0.00     0.007 C 
ENDBRANCH   7   8
BRANCH   7  10
ATOM     10  C   UNL d   1      24.778 -16.587  -2.395  0.00  0.00     0.021 C 
ATOM     11  C   UNL d   1      25.533 -15.355  -2.872  0.00  0.00     0.007 C 
ENDBRANCH   7  10
ENDBRANCH   1   7
BRANCH   4  12
ATOM     12  C   UNL d   1      20.815 -19.877  -0.206  0.00  0.00     0.161 A 
ATOM     13  C   UNL d   1      20.180 -20.744   0.718  0.00  0.00     0.087 A 
ATOM     14  C   UNL d   1      18.850 -20.729   0.383  0.00  0.00     0.078 A 
ATOM     15  C   UNL d   1      17.646 -21.380   0.945  0.00  0.00     0.079 C 
ATOM     16  O   UNL d   1      18.683 -19.903  -0.688  0.00  0.00    -0.216 OA
ATOM     17  N   UNL d   1      19.905 -19.318  -1.018  0.00  0.00    -0.110 NA
ENDBRANCH   4  12
TORSDOF 4
ENDMDL
