MODEL 1
REMARK VINA RESULT:    -9.892      0.000      0.000
REMARK INTER + INTRA:         -12.857
REMARK INTER:                 -11.682
REMARK INTRA:                  -1.175
REMARK CONF_INDEPENDENT:        1.790
REMARK UNBOUND:                -1.175
REMARK  6 active torsions:
REMARK  status: ('A' for Active; 'I' for Inactive)
REMARK       I    between atoms: C_2  and  N_4 
REMARK    1  A    between atoms: N_4  and  C_5 
REMARK    2  A    between atoms: C_8  and  N_9 
REMARK       I    between atoms: N_9  and  C_10 
REMARK    3  A    between atoms: C_10  and  C_12 
REMARK    4  A    between atoms: C_12  and  S_13 
REMARK    5  A    between atoms: S_13  and  C_14 
REMARK    6  A    between atoms: C_23  and  N_24 
ROOT
ATOM      1  S   UNL d   1      26.565 -13.999  -4.998  0.00  0.00    -0.098 SA
ENDROOT
BRANCH   1   2
ATOM      2  C   UNL d   1      26.664 -14.498  -3.229  0.00  0.00     0.184 C 
BRANCH   2   3
ATOM      3  C   UNL d   1      25.413 -15.133  -2.715  0.00  0.00     0.231 C 
ATOM      4  N   UNL d   1      25.617 -16.172  -1.751  0.00  0.00    -0.327 N 
ATOM      5  H   UNL d   1      26.536 -16.498  -1.474  0.00  0.00     0.169 HD
ATOM      6  O   UNL d   1      24.413 -14.821  -3.240  0.00  0.00    -0.272 OA
BRANCH   4   7
ATOM      7  C   UNL d   1      24.495 -16.901  -1.273  0.00  0.00     0.034 A 
ATOM      8  C   UNL d   1      23.199 -16.376  -1.224  0.00  0.00     0.032 A 
ATOM      9  C   UNL d   1      22.153 -17.162  -0.672  0.00  0.00     0.032 A 
ATOM     10  C   UNL d   1      22.401 -18.458  -0.194  0.00  0.00     0.034 A 
ATOM     11  C   UNL d   1      23.675 -18.962  -0.273  0.00  0.00     0.032 A 
ATOM     12  C   UNL d   1      24.672 -18.202  -0.819  0.00  0.00     0.032 A 
BRANCH  10  13
ATOM     13  N   UNL d   1      21.396 -19.306   0.305  0.00  0.00    -0.328 N 
ATOM     14  C   UNL d   1      20.292 -19.660  -0.463  0.00  0.00     0.218 C 
ATOM     15  C   UNL d   1      19.258 -20.486   0.245  0.00  0.00     0.117 C 
ATOM     16  O   UNL d   1      20.140 -19.390  -1.654  0.00  0.00    -0.274 OA
ATOM     17  H   UNL d   1      21.510 -19.665   1.242  0.00  0.00     0.169 HD
ENDBRANCH  10  13
ENDBRANCH   4   7
ENDBRANCH   2   3
ENDBRANCH   1   2
BRANCH   1  18
ATOM     18  C   UNL d   1      28.051 -14.655  -5.780  0.00  0.00     0.129 C 
ATOM     19  N   UNL d   1      28.426 -15.926  -5.495  0.00  0.00    -0.258 NA
ATOM     20  C   UNL d   1      29.733 -16.341  -5.912  0.00  0.00     0.140 C 
ATOM     21  C   UNL d   1      30.417 -16.244  -7.214  0.00  0.00     0.012 C 
ATOM     22  C   UNL d   1      30.669 -15.876  -5.211  0.00  0.00     0.141 C 
ATOM     23  C   UNL d   1      31.756 -16.668  -7.480  0.00  0.00    -0.001 C 
ATOM     24  C   UNL d   1      32.413 -17.261  -6.456  0.00  0.00    -0.001 C 
ATOM     25  C   UNL d   1      31.816 -16.951  -5.233  0.00  0.00     0.012 C 
ATOM     26  N   UNL d   1      30.426 -14.406  -5.580  0.00  0.00    -0.254 NA
ATOM     27  C   UNL d   1      29.105 -13.899  -6.196  0.00  0.00     0.136 C 
BRANCH  27  28
ATOM     28  N   UNL d   1      28.971 -13.157  -7.592  0.00  0.00    -0.266 NA
ATOM     29  C   UNL d   1      28.073 -11.898  -8.093  0.00  0.00     0.097 C 
ATOM     30  C   UNL d   1      28.300 -11.795  -9.691  0.00  0.00     0.015 C 
ATOM     31  C   UNL d   1      29.762 -11.585 -10.128  0.00  0.00     0.002 C 
ATOM     32  C   UNL d   1      30.663 -12.560  -9.378  0.00  0.00     0.015 C 
ATOM     33  C   UNL d   1      30.308 -12.639  -7.921  0.00  0.00     0.097 C 
ENDBRANCH  27  28
ENDBRANCH   1  18
TORSDOF 6
ENDMDL
MODEL 2
REMARK VINA RESULT:    -9.686      2.081      3.917
REMARK INTER + INTRA:         -12.992
REMARK INTER:                 -11.476
REMARK INTRA:                  -1.516
REMARK CONF_INDEPENDENT:        1.790
REMARK UNBOUND:                -1.516
REMARK  6 active torsions:
REMARK  status: ('A' for Active; 'I' for Inactive)
REMARK       I    between atoms: C_2  and  N_4 
REMARK    1  A    between atoms: N_4  and  C_5 
REMARK    2  A    between atoms: C_8  and  N_9 
REMARK       I    between atoms: N_9  and  C_10 
REMARK    3  A    between atoms: C_10  and  C_12 
REMARK    4  A    between atoms: C_12  and  S_13 
REMARK    5  A    between atoms: S_13  and  C_14 
REMARK    6  A    between atoms: C_23  and  N_24 
ROOT
ATOM      1  S   UNL d   1      26.897 -14.846  -5.074  0.00  0.00    -0.098 SA
ENDROOT
BRANCH   1   2
ATOM      2  C   UNL d   1      26.651 -14.521  -3.279  0.00  0.00     0.184 C 
BRANCH   2   3
ATOM      3  C   UNL d   1      25.400 -15.123  -2.728  0.00  0.00     0.231 C 
ATOM      4  N   UNL d   1      25.604 -16.169  -1.772  0.00  0.00    -0.327 N 
ATOM      5  H   UNL d   1      26.522 -16.521  -1.524  0.00  0.00     0.169 HD
ATOM      6  O   UNL d   1      24.393 -14.782  -3.221  0.00  0.00    -0.272 OA
BRANCH   4   7
ATOM      7  C   UNL d   1      24.477 -16.868  -1.261  0.00  0.00     0.034 A 
ATOM      8  C   UNL d   1      23.215 -16.285  -1.102  0.00  0.00     0.032 A 
ATOM      9  C   UNL d   1      22.167 -17.048  -0.525  0.00  0.00     0.032 A 
ATOM     10  C   UNL d   1      22.377 -18.379  -0.131  0.00  0.00     0.034 A 
ATOM     11  C   UNL d   1      23.616 -18.939  -0.318  0.00  0.00     0.032 A 
ATOM     12  C   UNL d   1      24.615 -18.199  -0.887  0.00  0.00     0.032 A 
BRANCH  10  13
ATOM     13  N   UNL d   1      21.362 -19.203   0.388  0.00  0.00    -0.328 N 
ATOM     14  C   UNL d   1      20.344 -19.704  -0.419  0.00  0.00     0.218 C 
ATOM     15  C   UNL d   1      19.282 -20.481   0.301  0.00  0.00     0.117 C 
ATOM     16  O   UNL d   1      20.290 -19.594  -1.643  0.00  0.00    -0.274 OA
ATOM     17  H   UNL d   1      21.404 -19.435   1.369  0.00  0.00     0.169 HD
ENDBRANCH  10  13
ENDBRANCH   4   7
ENDBRANCH   2   3
ENDBRANCH   1   2
BRANCH   1  18
ATOM     18  C   UNL d   1      28.618 -15.357  -5.251  0.00  0.00     0.129 C 
ATOM     19  N   UNL d   1      29.216 -15.209  -6.458  0.00  0.00    -0.258 NA
ATOM     20  C   UNL d   1      30.482 -15.851  -6.653  0.00  0.00     0.140 C 
ATOM     21  C   UNL d   1      31.715 -15.842  -5.844  0.00  0.00     0.012 C 
ATOM     22  C   UNL d   1      30.409 -17.098  -6.808  0.00  0.00     0.141 C 
ATOM     23  C   UNL d   1      32.907 -16.573  -6.142  0.00  0.00    -0.001 C 
ATOM     24  C   UNL d   1      32.907 -17.277  -7.297  0.00  0.00    -0.001 C 
ATOM     25  C   UNL d   1      31.605 -17.499  -7.747  0.00  0.00     0.012 C 
ATOM     26  N   UNL d   1      29.862 -17.399  -5.406  0.00  0.00    -0.254 NA
ATOM     27  C   UNL d   1      29.219 -16.325  -4.504  0.00  0.00     0.136 C 
BRANCH  27  28
ATOM     28  N   UNL d   1      29.723 -15.926  -3.053  0.00  0.00    -0.266 NA
ATOM     29  C   UNL d   1      29.788 -14.511  -2.257  0.00  0.00     0.097 C 
ATOM     30  C   UNL d   1      30.590 -14.807  -0.883  0.00  0.00     0.015 C 
ATOM     31  C   UNL d   1      29.952 -15.876   0.024  0.00  0.00     0.002 C 
ATOM     32  C   UNL d   1      29.568 -17.091  -0.812  0.00  0.00     0.015 C 
ATOM     33  C   UNL d   1      28.908 -16.695  -2.101  0.00  0.00     0.097 C 
ENDBRANCH  27  28
ENDBRANCH   1  18
TORSDOF 6
ENDMDL
MODEL 3
REMARK VINA RESULT:    -9.605      3.119      4.638
REMARK INTER + INTRA:         -13.451
REMARK INTER:                 -11.395
REMARK INTRA:                  -2.056
REMARK CONF_INDEPENDENT:        1.790
REMARK UNBOUND:                -2.056
REMARK  6 active torsions:
REMARK  status: ('A' for Active; 'I' for Inactive)
REMARK       I    between atoms: C_2  and  N_4 
REMARK    1  A    between atoms: N_4  and  C_5 
REMARK    2  A    between atoms: C_8  and  N_9 
REMARK       I    between atoms: N_9  and  C_10 
REMARK    3  A    between atoms: C_10  and  C_12 
REMARK    4  A    between atoms: C_12  and  S_13 
REMARK    5  A    between atoms: S_13  and  C_14 
REMARK    6  A    between atoms: C_23  and  N_24 
ROOT
ATOM      1  S   UNL d   1      27.783 -15.223  -4.681  0.00  0.00    -0.098 SA
ENDROOT
BRANCH   1   2
ATOM      2  C   UNL d   1      26.752 -14.176  -3.573  0.00  0.00     0.184 C 
BRANCH   2   3
ATOM      3  C   UNL d   1      25.620 -14.913  -2.935  0.00  0.00     0.231 C 
ATOM      4  N   UNL d   1      25.997 -15.798  -1.875  0.00  0.00    -0.327 N 
ATOM      5  H   UNL d   1      26.960 -15.963  -1.608  0.00  0.00     0.169 HD
ATOM      6  O   UNL d   1      24.570 -14.801  -3.444  0.00  0.00    -0.272 OA
BRANCH   4   7
ATOM      7  C   UNL d   1      25.003 -16.614  -1.270  0.00  0.00     0.034 A 
ATOM      8  C   UNL d   1      25.278 -17.846  -0.668  0.00  0.00     0.032 A 
ATOM      9  C   UNL d   1      24.207 -18.616  -0.144  0.00  0.00     0.032 A 
ATOM     10  C   UNL d   1      22.885 -18.150  -0.209  0.00  0.00     0.034 A 
ATOM     11  C   UNL d   1      22.640 -16.928  -0.783  0.00  0.00     0.032 A 
ATOM     12  C   UNL d   1      23.680 -16.187  -1.272  0.00  0.00     0.032 A 
BRANCH  10  13
ATOM     13  N   UNL d   1      21.792 -18.839   0.347  0.00  0.00    -0.328 N 
ATOM     14  C   UNL d   1      20.759 -19.330  -0.445  0.00  0.00     0.218 C 
ATOM     15  C   UNL d   1      19.617 -19.950   0.306  0.00  0.00     0.117 C 
ATOM     16  O   UNL d   1      20.746 -19.331  -1.675  0.00  0.00    -0.274 OA
ATOM     17  H   UNL d   1      21.789 -18.982   1.346  0.00  0.00     0.169 HD
ENDBRANCH  10  13
ENDBRANCH   4   7
ENDBRANCH   2   3
ENDBRANCH   1   2
BRANCH   1  18
ATOM     18  C   UNL d   1      28.871 -16.167  -3.596  0.00  0.00     0.129 C 
ATOM     19  N   UNL d   1      28.725 -16.032  -2.256  0.00  0.00    -0.258 NA
ATOM     20  C   UNL d   1      29.753 -16.578  -1.419  0.00  0.00     0.140 C 
ATOM     21  C   UNL d   1      30.385 -17.911  -1.394  0.00  0.00     0.012 C 
ATOM     22  C   UNL d   1      30.815 -15.904  -1.401  0.00  0.00     0.141 C 
ATOM     23  C   UNL d   1      31.443 -18.309  -0.519  0.00  0.00    -0.001 C 
ATOM     24  C   UNL d   1      31.842 -17.396   0.396  0.00  0.00    -0.001 C 
ATOM     25  C   UNL d   1      31.448 -16.110   0.023  0.00  0.00     0.012 C 
ATOM     26  N   UNL d   1      31.158 -16.112  -2.883  0.00  0.00    -0.254 NA
ATOM     27  C   UNL d   1      30.126 -16.582  -3.929  0.00  0.00     0.136 C 
BRANCH  27  28
ATOM     28  N   UNL d   1      30.255 -17.887  -4.821  0.00  0.00    -0.266 NA
ATOM     29  C   UNL d   1      30.659 -18.126  -6.377  0.00  0.00     0.097 C 
ATOM     30  C   UNL d   1      30.405 -19.698  -6.669  0.00  0.00     0.015 C 
ATOM     31  C   UNL d   1      31.209 -20.662  -5.778  0.00  0.00     0.002 C 
ATOM     32  C   UNL d   1      31.107 -20.219  -4.324  0.00  0.00     0.015 C 
ATOM     33  C   UNL d   1      31.274 -18.733  -4.181  0.00  0.00     0.097 C 
ENDBRANCH  27  28
ENDBRANCH   1  18
TORSDOF 6
ENDMDL
MODEL 4
REMARK VINA RESULT:    -9.536      6.042      8.856
REMARK INTER + INTRA:         -12.777
REMARK INTER:                 -11.325
REMARK INTRA:                  -1.452
REMARK CONF_INDEPENDENT:        1.790
REMARK UNBOUND:                -1.452
REMARK  6 active torsions:
REMARK  status: ('A' for Active; 'I' for Inactive)
REMARK       I    between atoms: C_2  and  N_4 
REMARK    1  A    between atoms: N_4  and  C_5 
REMARK    2  A    between atoms: C_8  and  N_9 
REMARK       I    between atoms: N_9  and  C_10 
REMARK    3  A    between atoms: C_10  and  C_12 
REMARK    4  A    between atoms: C_12  and  S_13 
REMARK    5  A    between atoms: S_13  and  C_14 
REMARK    6  A    between atoms: C_23  and  N_24 
ROOT
ATOM      1  S   UNL d   1      28.317 -16.126  -0.398  0.00  0.00    -0.098 SA
ENDROOT
BRANCH   1   2
ATOM      2  C   UNL d   1      28.607 -14.335  -0.088  0.00  0.00     0.184 C 
BRANCH   2   3
ATOM      3  C   UNL d   1      28.429 -13.938   1.341  0.00  0.00     0.231 C 
ATOM      4  N   UNL d   1      29.184 -14.712   2.281  0.00  0.00    -0.327 N 
ATOM      5  H   UNL d   1      29.754 -15.506   2.013  0.00  0.00     0.169 HD
ATOM      6  O   UNL d   1      27.602 -13.139   1.564  0.00  0.00    -0.272 OA
BRANCH   4   7
ATOM      7  C   UNL d   1      29.010 -14.473   3.671  0.00  0.00     0.034 A 
ATOM      8  C   UNL d   1      27.859 -13.893   4.215  0.00  0.00     0.032 A 
ATOM      9  C   UNL d   1      27.805 -13.639   5.611  0.00  0.00     0.032 A 
ATOM     10  C   UNL d   1      28.881 -13.976   6.447  0.00  0.00     0.034 A 
ATOM     11  C   UNL d   1      29.990 -14.565   5.896  0.00  0.00     0.032 A 
ATOM     12  C   UNL d   1      30.027 -14.819   4.552  0.00  0.00     0.032 A 
BRANCH  10  13
ATOM     13  N   UNL d   1      28.860 -13.805   7.843  0.00  0.00    -0.328 N 
ATOM     14  C   UNL d   1      28.548 -12.581   8.425  0.00  0.00     0.218 C 
ATOM     15  C   UNL d   1      28.668 -12.533   9.920  0.00  0.00     0.117 C 
ATOM     16  O   UNL d   1      28.148 -11.588   7.818  0.00  0.00    -0.274 OA
ATOM     17  H   UNL d   1      29.064 -14.611   8.415  0.00  0.00     0.169 HD
ENDBRANCH  10  13
ENDBRANCH   4   7
ENDBRANCH   2   3
ENDBRANCH   1   2
BRANCH   1  18
ATOM     18  C   UNL d   1      26.540 -16.304  -0.643  0.00  0.00     0.129 C 
ATOM     19  N   UNL d   1      25.812 -16.926   0.316  0.00  0.00    -0.258 NA
ATOM     20  C   UNL d   1      24.463 -17.288  -0.005  0.00  0.00     0.140 C 
ATOM     21  C   UNL d   1      23.356 -16.506  -0.586  0.00  0.00     0.012 C 
ATOM     22  C   UNL d   1      24.365 -18.284  -0.768  0.00  0.00     0.141 C 
ATOM     23  C   UNL d   1      22.056 -17.015  -0.896  0.00  0.00    -0.001 C 
ATOM     24  C   UNL d   1      21.821 -18.305  -0.565  0.00  0.00    -0.001 C 
ATOM     25  C   UNL d   1      23.018 -19.002  -0.389  0.00  0.00     0.012 C 
ATOM     26  N   UNL d   1      25.049 -17.627  -1.974  0.00  0.00    -0.254 NA
ATOM     27  C   UNL d   1      25.928 -16.364  -1.859  0.00  0.00     0.136 C 
BRANCH  27  28
ATOM     28  N   UNL d   1      25.669 -14.995  -2.619  0.00  0.00    -0.266 NA
ATOM     29  C   UNL d   1      25.838 -13.439  -2.182  0.00  0.00     0.097 C 
ATOM     30  C   UNL d   1      25.213 -12.564  -3.391  0.00  0.00     0.015 C 
ATOM     31  C   UNL d   1      25.876 -12.784  -4.762  0.00  0.00     0.002 C 
ATOM     32  C   UNL d   1      26.033 -14.278  -5.019  0.00  0.00     0.015 C 
ATOM     33  C   UNL d   1      26.538 -15.002  -3.805  0.00  0.00     0.097 C 
ENDBRANCH  27  28
ENDBRANCH   1  18
TORSDOF 6
ENDMDL
MODEL 5
REMARK VINA RESULT:    -9.123      4.486      6.986
REMARK INTER + INTRA:         -13.465
REMARK INTER:                 -10.913
REMARK INTRA:                  -2.552
REMARK CONF_INDEPENDENT:        1.790
REMARK UNBOUND:                -2.552
REMARK  6 active torsions:
REMARK  status: ('A' for Active; 'I' for Inactive)
REMARK       I    between atoms: C_2  and  N_4 
REMARK    1  A    between atoms: N_4  and  C_5 
REMARK    2  A    between atoms: C_8  and  N_9 
REMARK       I    between atoms: N_9  and  C_10 
REMARK    3  A    between atoms: C_10  and  C_12 
REMARK    4  A    between atoms: C_12  and  S_13 
REMARK    5  A    between atoms: S_13  and  C_14 
REMARK    6  A    between atoms: C_23  and  N_24 
ROOT
ATOM      1  S   UNL d   1      26.913 -12.708  -1.518  0.00  0.00    -0.098 SA
ENDROOT
BRANCH   1   2
ATOM      2  C   UNL d   1      26.903 -14.138  -2.676  0.00  0.00     0.184 C 
BRANCH   2   3
ATOM      3  C   UNL d   1      25.757 -15.072  -2.464  0.00  0.00     0.231 C 
ATOM      4  N   UNL d   1      25.431 -15.326  -1.093  0.00  0.00    -0.327 N 
ATOM      5  H   UNL d   1      25.966 -14.951  -0.319  0.00  0.00     0.169 HD
ATOM      6  O   UNL d   1      25.331 -15.604  -3.418  0.00  0.00    -0.272 OA
BRANCH   4   7
ATOM      7  C   UNL d   1      24.418 -16.275  -0.789  0.00  0.00     0.034 A 
ATOM      8  C   UNL d   1      23.062 -16.071  -1.068  0.00  0.00     0.032 A 
ATOM      9  C   UNL d   1      22.117 -17.053  -0.669  0.00  0.00     0.032 A 
ATOM     10  C   UNL d   1      22.528 -18.225  -0.016  0.00  0.00     0.034 A 
ATOM     11  C   UNL d   1      23.865 -18.415   0.227  0.00  0.00     0.032 A 
ATOM     12  C   UNL d   1      24.769 -17.471  -0.174  0.00  0.00     0.032 A 
BRANCH  10  13
ATOM     13  N   UNL d   1      21.647 -19.260   0.347  0.00  0.00    -0.328 N 
ATOM     14  C   UNL d   1      20.638 -19.693  -0.508  0.00  0.00     0.218 C 
ATOM     15  C   UNL d   1      19.718 -20.732   0.063  0.00  0.00     0.117 C 
ATOM     16  O   UNL d   1      20.490 -19.327  -1.674  0.00  0.00    -0.274 OA
ATOM     17  H   UNL d   1      21.781 -19.693   1.248  0.00  0.00     0.169 HD
ENDBRANCH  10  13
ENDBRANCH   4   7
ENDBRANCH   2   3
ENDBRANCH   1   2
BRANCH   1  18
ATOM     18  C   UNL d   1      27.402 -13.374   0.085  0.00  0.00     0.129 C 
ATOM     19  N   UNL d   1      26.586 -13.172   1.147  0.00  0.00    -0.258 NA
ATOM     20  C   UNL d   1      27.104 -13.475   2.449  0.00  0.00     0.140 C 
ATOM     21  C   UNL d   1      27.781 -14.675   2.974  0.00  0.00     0.012 C 
ATOM     22  C   UNL d   1      27.929 -12.630   2.884  0.00  0.00     0.141 C 
ATOM     23  C   UNL d   1      28.289 -14.826   4.302  0.00  0.00    -0.001 C 
ATOM     24  C   UNL d   1      28.067 -13.796   5.150  0.00  0.00    -0.001 C 
ATOM     25  C   UNL d   1      27.775 -12.625   4.449  0.00  0.00     0.012 C 
ATOM     26  N   UNL d   1      28.994 -12.882   1.808  0.00  0.00    -0.254 NA
ATOM     27  C   UNL d   1      28.690 -13.592   0.472  0.00  0.00     0.136 C 
BRANCH  27  28
ATOM     28  N   UNL d   1      29.397 -14.917  -0.042  0.00  0.00    -0.266 NA
ATOM     29  C   UNL d   1      30.662 -15.778   0.506  0.00  0.00     0.097 C 
ATOM     30  C   UNL d   1      30.951 -16.910  -0.613  0.00  0.00     0.015 C 
ATOM     31  C   UNL d   1      29.772 -17.858  -0.897  0.00  0.00     0.002 C 
ATOM     32  C   UNL d   1      28.495 -17.046  -1.070  0.00  0.00     0.015 C 
ATOM     33  C   UNL d   1      28.372 -15.971  -0.029  0.00  0.00     0.097 C 
ENDBRANCH  27  28
ENDBRANCH   1  18
TORSDOF 6
ENDMDL
MODEL 6
REMARK VINA RESULT:    -8.718      2.569      4.436
REMARK INTER + INTRA:         -13.550
REMARK INTER:                 -10.507
REMARK INTRA:                  -3.043
REMARK CONF_INDEPENDENT:        1.790
REMARK UNBOUND:                -3.043
REMARK  6 active torsions:
REMARK  status: ('A' for Active; 'I' for Inactive)
REMARK       I    between atoms: C_2  and  N_4 
REMARK    1  A    between atoms: N_4  and  C_5 
REMARK    2  A    between atoms: C_8  and  N_9 
REMARK       I    between atoms: N_9  and  C_10 
REMARK    3  A    between atoms: C_10  and  C_12 
REMARK    4  A    between atoms: C_12  and  S_13 
REMARK    5  A    between atoms: S_13  and  C_14 
REMARK    6  A    between atoms: C_23  and  N_24 
ROOT
ATOM      1  S   UNL d   1      30.092 -16.308  -1.631  0.00  0.00    -0.098 SA
ENDROOT
BRANCH   1   2
ATOM      2  C   UNL d   1      29.408 -15.791  -0.002  0.00  0.00     0.184 C 
BRANCH   2   3
ATOM      3  C   UNL d   1      28.025 -16.296   0.254  0.00  0.00     0.231 C 
ATOM      4  N   UNL d   1      27.189 -16.380  -0.906  0.00  0.00    -0.327 N 
ATOM      5  H   UNL d   1      27.484 -16.069  -1.824  0.00  0.00     0.169 HD
ATOM      6  O   UNL d   1      27.720 -16.442   1.376  0.00  0.00    -0.272 OA
BRANCH   4   7
ATOM      7  C   UNL d   1      25.828 -16.759  -0.750  0.00  0.00     0.034 A 
ATOM      8  C   UNL d   1      24.756 -15.992  -1.218  0.00  0.00     0.032 A 
ATOM      9  C   UNL d   1      23.429 -16.426  -0.960  0.00  0.00     0.032 A 
ATOM     10  C   UNL d   1      23.184 -17.617  -0.259  0.00  0.00     0.034 A 
ATOM     11  C   UNL d   1      24.250 -18.366   0.170  0.00  0.00     0.032 A 
ATOM     12  C   UNL d   1      25.524 -17.947  -0.095  0.00  0.00     0.032 A 
BRANCH  10  13
ATOM     13  N   UNL d   1      21.894 -18.129  -0.028  0.00  0.00    -0.328 N 
ATOM     14  C   UNL d   1      21.237 -18.907  -0.975  0.00  0.00     0.218 C 
ATOM     15  C   UNL d   1      19.829 -19.291  -0.623  0.00  0.00     0.117 C 
ATOM     16  O   UNL d   1      21.735 -19.325  -2.020  0.00  0.00    -0.274 OA
ATOM     17  H   UNL d   1      21.463 -17.925   0.862  0.00  0.00     0.169 HD
ENDBRANCH  10  13
ENDBRANCH   4   7
ENDBRANCH   2   3
ENDBRANCH   1   2
BRANCH   1  18
ATOM     18  C   UNL d   1      29.160 -15.389  -2.872  0.00  0.00     0.129 C 
ATOM     19  N   UNL d   1      28.570 -14.224  -2.508  0.00  0.00    -0.258 NA
ATOM     20  C   UNL d   1      27.628 -13.645  -3.420  0.00  0.00     0.140 C 
ATOM     21  C   UNL d   1      27.721 -13.352  -4.862  0.00  0.00     0.012 C 
ATOM     22  C   UNL d   1      26.516 -14.232  -3.453  0.00  0.00     0.141 C 
ATOM     23  C   UNL d   1      26.672 -12.804  -5.665  0.00  0.00    -0.001 C 
ATOM     24  C   UNL d   1      25.530 -12.475  -5.018  0.00  0.00    -0.001 C 
ATOM     25  C   UNL d   1      25.444 -13.133  -3.791  0.00  0.00     0.012 C 
ATOM     26  N   UNL d   1      27.055 -15.559  -4.005  0.00  0.00    -0.254 NA
ATOM     27  C   UNL d   1      28.547 -15.950  -3.952  0.00  0.00     0.136 C 
BRANCH  27  28
ATOM     28  N   UNL d   1      29.449 -16.294  -5.211  0.00  0.00    -0.266 NA
ATOM     29  C   UNL d   1      30.679 -15.517  -5.935  0.00  0.00     0.097 C 
ATOM     30  C   UNL d   1      31.007 -16.355  -7.280  0.00  0.00     0.015 C 
ATOM     31  C   UNL d   1      31.397 -17.827  -7.050  0.00  0.00     0.002 C 
ATOM     32  C   UNL d   1      30.415 -18.468  -6.077  0.00  0.00     0.015 C 
ATOM     33  C   UNL d   1      30.118 -17.569  -4.911  0.00  0.00     0.097 C 
ENDBRANCH  27  28
ENDBRANCH   1  18
TORSDOF 6
ENDMDL
MODEL 7
REMARK VINA RESULT:    -8.714      3.937      5.745
REMARK INTER + INTRA:         -12.953
REMARK INTER:                 -10.503
REMARK INTRA:                  -2.449
REMARK CONF_INDEPENDENT:        1.790
REMARK UNBOUND:                -2.449
REMARK  6 active torsions:
REMARK  status: ('A' for Active; 'I' for Inactive)
REMARK       I    between atoms: C_2  and  N_4 
REMARK    1  A    between atoms: N_4  and  C_5 
REMARK    2  A    between atoms: C_8  and  N_9 
REMARK       I    between atoms: N_9  and  C_10 
REMARK    3  A    between atoms: C_10  and  C_12 
REMARK    4  A    between atoms: C_12  and  S_13 
REMARK    5  A    between atoms: S_13  and  C_14 
REMARK    6  A    between atoms: C_23  and  N_24 
ROOT
ATOM      1  S   UNL d   1      28.187 -15.155  -3.695  0.00  0.00    -0.098 SA
ENDROOT
BRANCH   1   2
ATOM      2  C   UNL d   1      26.717 -14.284  -3.012  0.00  0.00     0.184 C 
BRANCH   2   3
ATOM      3  C   UNL d   1      25.601 -15.202  -2.630  0.00  0.00     0.231 C 
ATOM      4  N   UNL d   1      25.681 -15.729  -1.301  0.00  0.00    -0.327 N 
ATOM      5  H   UNL d   1      26.460 -15.545  -0.679  0.00  0.00     0.169 HD
ATOM      6  O   UNL d   1      24.857 -15.504  -3.483  0.00  0.00    -0.272 OA
BRANCH   4   7
ATOM      7  C   UNL d   1      24.718 -16.684  -0.878  0.00  0.00     0.034 A 
ATOM      8  C   UNL d   1      25.044 -17.989  -0.494  0.00  0.00     0.032 A 
ATOM      9  C   UNL d   1      24.003 -18.889  -0.145  0.00  0.00     0.032 A 
ATOM     10  C   UNL d   1      22.661 -18.481  -0.165  0.00  0.00     0.034 A 
ATOM     11  C   UNL d   1      22.365 -17.190  -0.522  0.00  0.00     0.032 A 
ATOM     12  C   UNL d   1      23.376 -16.327  -0.843  0.00  0.00     0.032 A 
BRANCH  10  13
ATOM     13  N   UNL d   1      21.593 -19.308   0.229  0.00  0.00    -0.328 N 
ATOM     14  C   UNL d   1      20.563 -19.638  -0.646  0.00  0.00     0.218 C 
ATOM     15  C   UNL d   1      19.447 -20.443  -0.046  0.00  0.00     0.117 C 
ATOM     16  O   UNL d   1      20.534 -19.363  -1.845  0.00  0.00    -0.274 OA
ATOM     17  H   UNL d   1      21.607 -19.671   1.171  0.00  0.00     0.169 HD
ENDBRANCH  10  13
ENDBRANCH   4   7
ENDBRANCH   2   3
ENDBRANCH   1   2
BRANCH   1  18
ATOM     18  C   UNL d   1      29.178 -15.644  -2.270  0.00  0.00     0.129 C 
ATOM     19  N   UNL d   1      30.349 -16.291  -2.486  0.00  0.00    -0.258 NA
ATOM     20  C   UNL d   1      30.989 -16.897  -1.356  0.00  0.00     0.140 C 
ATOM     21  C   UNL d   1      31.328 -16.363  -0.024  0.00  0.00     0.012 C 
ATOM     22  C   UNL d   1      30.441 -17.959  -0.962  0.00  0.00     0.141 C 
ATOM     23  C   UNL d   1      31.938 -17.104   1.035  0.00  0.00    -0.001 C 
ATOM     24  C   UNL d   1      32.282 -18.382   0.754  0.00  0.00    -0.001 C 
ATOM     25  C   UNL d   1      31.586 -18.853  -0.361  0.00  0.00     0.012 C 
ATOM     26  N   UNL d   1      29.116 -17.306  -0.544  0.00  0.00    -0.254 NA
ATOM     27  C   UNL d   1      28.675 -15.910  -1.032  0.00  0.00     0.136 C 
BRANCH  27  28
ATOM     28  N   UNL d   1      28.343 -14.675  -0.093  0.00  0.00    -0.266 NA
ATOM     29  C   UNL d   1      27.363 -13.389  -0.264  0.00  0.00     0.097 C 
ATOM     30  C   UNL d   1      27.657 -12.431   1.007  0.00  0.00     0.015 C 
ATOM     31  C   UNL d   1      27.413 -13.082   2.381  0.00  0.00     0.002 C 
ATOM     32  C   UNL d   1      28.054 -14.464   2.413  0.00  0.00     0.015 C 
ATOM     33  C   UNL d   1      27.787 -15.231   1.150  0.00  0.00     0.097 C 
ENDBRANCH  27  28
ENDBRANCH   1  18
TORSDOF 6
ENDMDL
MODEL 8
REMARK VINA RESULT:    -8.350      4.916      7.528
REMARK INTER + INTRA:         -12.738
REMARK INTER:                 -10.140
REMARK INTRA:                  -2.598
REMARK CONF_INDEPENDENT:        1.790
REMARK UNBOUND:                -2.598
REMARK  6 active torsions:
REMARK  status: ('A' for Active; 'I' for Inactive)
REMARK       I    between atoms: C_2  and  N_4 
REMARK    1  A    between atoms: N_4  and  C_5 
REMARK    2  A    between atoms: C_8  and  N_9 
REMARK       I    between atoms: N_9  and  C_10 
REMARK    3  A    between atoms: C_10  and  C_12 
REMARK    4  A    between atoms: C_12  and  S_13 
REMARK    5  A    between atoms: S_13  and  C_14 
REMARK    6  A    between atoms: C_23  and  N_24 
ROOT
ATOM      1  S   UNL d   1      29.008 -12.888  -1.112  0.00  0.00    -0.098 SA
ENDROOT
BRANCH   1   2
ATOM      2  C   UNL d   1      29.310 -14.657  -1.520  0.00  0.00     0.184 C 
BRANCH   2   3
ATOM      3  C   UNL d   1      28.060 -15.466  -1.639  0.00  0.00     0.231 C 
ATOM      4  N   UNL d   1      27.233 -15.474  -0.469  0.00  0.00    -0.327 N 
ATOM      5  H   UNL d   1      27.494 -15.016   0.396  0.00  0.00     0.169 HD
ATOM      6  O   UNL d   1      27.946 -16.115  -2.608  0.00  0.00    -0.272 OA
BRANCH   4   7
ATOM      7  C   UNL d   1      26.071 -16.291  -0.451  0.00  0.00     0.034 A 
ATOM      8  C   UNL d   1      24.874 -15.944  -1.088  0.00  0.00     0.032 A 
ATOM      9  C   UNL d   1      23.748 -16.799  -0.960  0.00  0.00     0.032 A 
ATOM     10  C   UNL d   1      23.827 -17.989  -0.220  0.00  0.00     0.034 A 
ATOM     11  C   UNL d   1      25.016 -18.321   0.377  0.00  0.00     0.032 A 
ATOM     12  C   UNL d   1      26.099 -17.499   0.237  0.00  0.00     0.032 A 
BRANCH  10  13
ATOM     13  N   UNL d   1      22.764 -18.904  -0.110  0.00  0.00    -0.328 N 
ATOM     14  C   UNL d   1      21.470 -18.571  -0.497  0.00  0.00     0.218 C 
ATOM     15  C   UNL d   1      20.431 -19.619  -0.223  0.00  0.00     0.117 C 
ATOM     16  O   UNL d   1      21.146 -17.533  -1.072  0.00  0.00    -0.274 OA
ATOM     17  H   UNL d   1      22.976 -19.824   0.247  0.00  0.00     0.169 HD
ENDBRANCH  10  13
ENDBRANCH   4   7
ENDBRANCH   2   3
ENDBRANCH   1   2
BRANCH   1  18
ATOM     18  C   UNL d   1      28.584 -12.852   0.641  0.00  0.00     0.129 C 
ATOM     19  N   UNL d   1      29.380 -13.515   1.514  0.00  0.00    -0.258 NA
ATOM     20  C   UNL d   1      28.894 -13.695   2.850  0.00  0.00     0.140 C 
ATOM     21  C   UNL d   1      28.330 -12.737   3.819  0.00  0.00     0.012 C 
ATOM     22  C   UNL d   1      27.996 -14.570   2.958  0.00  0.00     0.141 C 
ATOM     23  C   UNL d   1      27.839 -13.068   5.121  0.00  0.00    -0.001 C 
ATOM     24  C   UNL d   1      27.968 -14.360   5.501  0.00  0.00    -0.001 C 
ATOM     25  C   UNL d   1      28.152 -15.190   4.394  0.00  0.00     0.012 C 
ATOM     26  N   UNL d   1      26.957 -13.836   2.100  0.00  0.00    -0.254 NA
ATOM     27  C   UNL d   1      27.322 -12.693   1.129  0.00  0.00     0.136 C 
BRANCH  27  28
ATOM     28  N   UNL d   1      26.737 -11.219   1.188  0.00  0.00    -0.266 NA
ATOM     29  C   UNL d   1      26.549 -10.154   2.401  0.00  0.00     0.097 C 
ATOM     30  C   UNL d   1      25.715  -8.913   1.781  0.00  0.00     0.015 C 
ATOM     31  C   UNL d   1      26.385  -8.214   0.584  0.00  0.00     0.002 C 
ATOM     32  C   UNL d   1      26.879  -9.260  -0.407  0.00  0.00     0.015 C 
ATOM     33  C   UNL d   1      27.562 -10.404   0.284  0.00  0.00     0.097 C 
ENDBRANCH  27  28
ENDBRANCH   1  18
TORSDOF 6
ENDMDL
MODEL 9
REMARK VINA RESULT:    -8.220      3.205      8.688
REMARK INTER + INTRA:         -13.012
REMARK INTER:                 -10.010
REMARK INTRA:                  -3.002
REMARK CONF_INDEPENDENT:        1.790
REMARK UNBOUND:                -3.002
REMARK  6 active torsions:
REMARK  status: ('A' for Active; 'I' for Inactive)
REMARK       I    between atoms: C_2  and  N_4 
REMARK    1  A    between atoms: N_4  and  C_5 
REMARK    2  A    between atoms: C_8  and  N_9 
REMARK       I    between atoms: N_9  and  C_10 
REMARK    3  A    between atoms: C_10  and  C_12 
REMARK    4  A    between atoms: C_12  and  S_13 
REMARK    5  A    between atoms: S_13  and  C_14 
REMARK    6  A    between atoms: C_23  and  N_24 
ROOT
ATOM      1  S   UNL d   1      28.460 -16.288  -0.115  0.00  0.00    -0.098 SA
ENDROOT
BRANCH   1   2
ATOM      2  C   UNL d   1      29.242 -17.406  -1.350  0.00  0.00     0.184 C 
BRANCH   2   3
ATOM      3  C   UNL d   1      29.515 -16.750  -2.664  0.00  0.00     0.231 C 
ATOM      4  N   UNL d   1      28.784 -15.542  -2.899  0.00  0.00    -0.327 N 
ATOM      5  H   UNL d   1      28.089 -15.181  -2.255  0.00  0.00     0.169 HD
ATOM      6  O   UNL d   1      30.185 -17.347  -3.419  0.00  0.00    -0.272 OA
BRANCH   4   7
ATOM      7  C   UNL d   1      28.904 -14.895  -4.159  0.00  0.00     0.034 A 
ATOM      8  C   UNL d   1      29.380 -13.589  -4.312  0.00  0.00     0.032 A 
ATOM      9  C   UNL d   1      29.405 -13.008  -5.607  0.00  0.00     0.032 A 
ATOM     10  C   UNL d   1      28.976 -13.732  -6.730  0.00  0.00     0.034 A 
ATOM     11  C   UNL d   1      28.535 -15.020  -6.560  0.00  0.00     0.032 A 
ATOM     12  C   UNL d   1      28.527 -15.576  -5.311  0.00  0.00     0.032 A 
BRANCH  10  13
ATOM     13  N   UNL d   1      29.036 -13.233  -8.044  0.00  0.00    -0.328 N 
ATOM     14  C   UNL d   1      28.199 -12.208  -8.474  0.00  0.00     0.218 C 
ATOM     15  C   UNL d   1      28.314 -11.857  -9.929  0.00  0.00     0.117 C 
ATOM     16  O   UNL d   1      27.437 -11.564  -7.754  0.00  0.00    -0.274 OA
ATOM     17  H   UNL d   1      29.722 -13.634  -8.665  0.00  0.00     0.169 HD
ENDBRANCH  10  13
ENDBRANCH   4   7
ENDBRANCH   2   3
ENDBRANCH   1   2
BRANCH   1  18
ATOM     18  C   UNL d   1      26.686 -16.370  -0.429  0.00  0.00     0.129 C 
ATOM     19  N   UNL d   1      25.912 -17.095   0.414  0.00  0.00    -0.258 NA
ATOM     20  C   UNL d   1      24.563 -17.364   0.010  0.00  0.00     0.140 C 
ATOM     21  C   UNL d   1      23.497 -16.472  -0.483  0.00  0.00     0.012 C 
ATOM     22  C   UNL d   1      24.459 -18.239  -0.887  0.00  0.00     0.141 C 
ATOM     23  C   UNL d   1      22.193 -16.889  -0.895  0.00  0.00    -0.001 C 
ATOM     24  C   UNL d   1      21.911 -18.204  -0.755  0.00  0.00    -0.001 C 
ATOM     25  C   UNL d   1      23.081 -18.958  -0.648  0.00  0.00     0.012 C 
ATOM     26  N   UNL d   1      25.198 -17.443  -1.971  0.00  0.00    -0.254 NA
ATOM     27  C   UNL d   1      26.110 -16.238  -1.657  0.00  0.00     0.136 C 
BRANCH  27  28
ATOM     28  N   UNL d   1      25.914 -14.769  -2.223  0.00  0.00    -0.266 NA
ATOM     29  C   UNL d   1      26.795 -13.409  -2.097  0.00  0.00     0.097 C 
ATOM     30  C   UNL d   1      25.905 -12.236  -2.767  0.00  0.00     0.015 C 
ATOM     31  C   UNL d   1      25.531 -12.467  -4.242  0.00  0.00     0.002 C 
ATOM     32  C   UNL d   1      25.018 -13.891  -4.421  0.00  0.00     0.015 C 
ATOM     33  C   UNL d   1      25.870 -14.886  -3.688  0.00  0.00     0.097 C 
ENDBRANCH  27  28
ENDBRANCH   1  18
TORSDOF 6
ENDMDL
