MODEL 1
REMARK VINA RESULT:    -8.320      0.000      0.000
REMARK INTER + INTRA:         -15.588
REMARK INTER:                 -12.198
REMARK INTRA:                  -3.391
REMARK CONF_INDEPENDENT:        3.878
REMARK UNBOUND:                -3.391
REMARK  13 active torsions:
REMARK  status: ('A' for Active; 'I' for Inactive)
REMARK    1  A    between atoms: C_2  and  C_3 
REMARK    2  A    between atoms: C_3  and  O_4 
REMARK    3  A    between atoms: O_4  and  C_5 
REMARK    4  A    between atoms: C_5  and  C_6 
REMARK    5  A    between atoms: C_6  and  O_7 
REMARK    6  A    between atoms: C_6  and  C_8 
REMARK    7  A    between atoms: C_8  and  N_9 
REMARK    8  A    between atoms: N_9  and  C_10 
REMARK    9  A    between atoms: N_9  and  C_28 
REMARK   10  A    between atoms: C_10  and  C_11 
REMARK   11  A    between atoms: C_15  and  C_16 
REMARK   12  A    between atoms: C_16  and  O_18 
REMARK   13  A    between atoms: O_18  and  C_19 
ROOT
ATOM      1  C   UNL d   1      27.806 -14.633   1.347  0.00  0.00     0.134 C 
ATOM      2  N   UNL d   1      27.311 -13.524   0.904  0.00  0.00    -0.225 NA
ATOM      3  C   UNL d   1      27.251 -12.554   1.850  0.00  0.00     0.116 A 
ATOM      4  S   UNL d   1      26.609 -11.048   1.470  0.00  0.00    -0.063 SA
ATOM      5  C   UNL d   1      26.943 -10.427   3.039  0.00  0.00     0.089 A 
ATOM      6  C   UNL d   1      27.418 -11.415   3.901  0.00  0.00    -0.020 A 
ATOM      7  C   UNL d   1      27.780 -11.260   5.346  0.00  0.00     0.051 C 
ATOM      8  C   UNL d   1      27.608 -12.647   3.179  0.00  0.00     0.075 A 
ATOM      9  C   UNL d   1      28.122 -13.921   3.637  0.00  0.00     0.260 C 
ATOM     10  O   UNL d   1      28.282 -14.245   4.809  0.00  0.00    -0.267 OA
ATOM     11  N   UNL d   1      28.347 -14.825   2.615  0.00  0.00    -0.309 N 
ATOM     12  H   UNL d   1      28.451 -15.758   2.994  0.00  0.00     0.170 HD
ENDROOT
BRANCH   1  13
ATOM     13  C   UNL d   1      27.663 -15.866   0.487  0.00  0.00     0.313 C 
BRANCH  13  14
ATOM     14  N   UNL d   1      26.378 -15.947  -0.397  0.00  0.00    -0.058 N 
ATOM     15  H   UNL d   1      25.638 -15.490   0.166  0.00  0.00     0.281 HD
BRANCH  14  16
ATOM     16  C   UNL d   1      25.863 -17.363  -0.722  0.00  0.00     0.269 C 
BRANCH  16  17
ATOM     17  C   UNL d   1      24.348 -17.464  -0.779  0.00  0.00     0.167 C 
BRANCH  17  18
ATOM     18  C   UNL d   1      23.785 -18.575   0.063  0.00  0.00     0.201 C 
BRANCH  18  19
ATOM     19  O   UNL d   1      22.388 -18.301   0.177  0.00  0.00    -0.385 OA
BRANCH  19  20
ATOM     20  C   UNL d   1      21.709 -18.856  -0.929  0.00  0.00     0.194 C 
BRANCH  20  21
ATOM     21  C   UNL d   1      20.261 -18.976  -0.622  0.00  0.00    -0.011 C 
ATOM     22  C   UNL d   1      19.836 -19.886   0.263  0.00  0.00     0.009 C 
ENDBRANCH  20  21
ENDBRANCH  19  20
ENDBRANCH  18  19
ENDBRANCH  17  18
BRANCH  17  23
ATOM     23  O   UNL d   1      23.800 -16.317  -0.146  0.00  0.00    -0.392 OA
ATOM     24  H   UNL d   1      22.851 -16.409   0.026  0.00  0.00     0.210 HD
ENDBRANCH  17  23
ENDBRANCH  16  17
ENDBRANCH  14  16
BRANCH  14  25
ATOM     25  C   UNL d   1      26.560 -15.186  -1.716  0.00  0.00     0.188 C 
ATOM     26  C   UNL d   1      27.492 -15.933  -2.670  0.00  0.00     0.033 C 
ATOM     27  C   UNL d   1      27.566 -15.201  -4.015  0.00  0.00     0.002 C 
ATOM     28  C   UNL d   1      26.180 -14.975  -4.619  0.00  0.00     0.000 C 
ATOM     29  C   UNL d   1      25.283 -14.199  -3.663  0.00  0.00     0.002 C 
ATOM     30  C   UNL d   1      25.182 -14.923  -2.341  0.00  0.00     0.033 C 
ENDBRANCH  14  25
ENDBRANCH  13  14
ENDBRANCH   1  13
BRANCH   5  31
ATOM     31  C   UNL d   1      26.710  -9.009   3.203  0.00  0.00     0.301 C 
ATOM     32  O   UNL d   1      27.280  -8.297   4.036  0.00  0.00    -0.259 OA
BRANCH  31  33
ATOM     33  O   UNL d   1      25.766  -8.556   2.339  0.00  0.00    -0.312 OA
BRANCH  33  34
ATOM     34  C   UNL d   1      26.220  -7.696   1.282  0.00  0.00     0.124 C 
ATOM     35  C   UNL d   1      25.157  -7.603   0.193  0.00  0.00     0.040 C 
ATOM     36  C   UNL d   1      26.457  -6.302   1.863  0.00  0.00     0.040 C 
ENDBRANCH  33  34
ENDBRANCH  31  33
ENDBRANCH   5  31
TORSDOF 13
ENDMDL
MODEL 2
REMARK VINA RESULT:    -7.585      3.684      8.413
REMARK INTER + INTRA:         -15.590
REMARK INTER:                 -11.463
REMARK INTRA:                  -4.127
REMARK CONF_INDEPENDENT:        3.878
REMARK UNBOUND:                -4.127
REMARK  13 active torsions:
REMARK  status: ('A' for Active; 'I' for Inactive)
REMARK    1  A    between atoms: C_2  and  C_3 
REMARK    2  A    between atoms: C_3  and  O_4 
REMARK    3  A    between atoms: O_4  and  C_5 
REMARK    4  A    between atoms: C_5  and  C_6 
REMARK    5  A    between atoms: C_6  and  O_7 
REMARK    6  A    between atoms: C_6  and  C_8 
REMARK    7  A    between atoms: C_8  and  N_9 
REMARK    8  A    between atoms: N_9  and  C_10 
REMARK    9  A    between atoms: N_9  and  C_28 
REMARK   10  A    between atoms: C_10  and  C_11 
REMARK   11  A    between atoms: C_15  and  C_16 
REMARK   12  A    between atoms: C_16  and  O_18 
REMARK   13  A    between atoms: O_18  and  C_19 
ROOT
ATOM      1  C   UNL d   1      29.051 -17.327  -0.928  0.00  0.00     0.134 C 
ATOM      2  N   UNL d   1      28.097 -17.786  -0.184  0.00  0.00    -0.225 NA
ATOM      3  C   UNL d   1      26.889 -17.244  -0.478  0.00  0.00     0.116 A 
ATOM      4  S   UNL d   1      25.530 -17.696   0.403  0.00  0.00    -0.063 SA
ATOM      5  C   UNL d   1      24.492 -16.716  -0.557  0.00  0.00     0.089 A 
ATOM      6  C   UNL d   1      25.205 -15.930  -1.463  0.00  0.00    -0.020 A 
ATOM      7  C   UNL d   1      24.649 -14.933  -2.432  0.00  0.00     0.051 C 
ATOM      8  C   UNL d   1      26.604 -16.271  -1.412  0.00  0.00     0.075 A 
ATOM      9  C   UNL d   1      27.712 -15.760  -2.193  0.00  0.00     0.260 C 
ATOM     10  O   UNL d   1      27.683 -14.760  -2.902  0.00  0.00    -0.267 OA
ATOM     11  N   UNL d   1      28.889 -16.462  -2.005  0.00  0.00    -0.309 N 
ATOM     12  H   UNL d   1      29.672 -15.926  -2.356  0.00  0.00     0.170 HD
ENDROOT
BRANCH   1  13
ATOM     13  C   UNL d   1      30.474 -17.627  -0.519  0.00  0.00     0.313 C 
BRANCH  13  14
ATOM     14  N   UNL d   1      31.100 -16.680   0.554  0.00  0.00    -0.058 N 
ATOM     15  H   UNL d   1      30.458 -16.736   1.365  0.00  0.00     0.281 HD
BRANCH  14  16
ATOM     16  C   UNL d   1      31.191 -15.189   0.176  0.00  0.00     0.269 C 
BRANCH  16  17
ATOM     17  C   UNL d   1      30.374 -14.279   1.079  0.00  0.00     0.167 C 
BRANCH  17  18
ATOM     18  C   UNL d   1      28.906 -14.273   0.760  0.00  0.00     0.201 C 
BRANCH  18  19
ATOM     19  O   UNL d   1      28.276 -14.978   1.832  0.00  0.00    -0.385 OA
BRANCH  19  20
ATOM     20  C   UNL d   1      27.514 -14.075   2.603  0.00  0.00     0.194 C 
BRANCH  20  21
ATOM     21  C   UNL d   1      28.118 -13.929   3.951  0.00  0.00    -0.011 C 
ATOM     22  C   UNL d   1      27.404 -14.231   5.043  0.00  0.00     0.009 C 
ENDBRANCH  20  21
ENDBRANCH  19  20
ENDBRANCH  18  19
ENDBRANCH  17  18
BRANCH  17  23
ATOM     23  O   UNL d   1      30.382 -14.825   2.389  0.00  0.00    -0.392 OA
ATOM     24  H   UNL d   1      29.693 -15.492   2.515  0.00  0.00     0.210 HD
ENDBRANCH  17  23
ENDBRANCH  16  17
ENDBRANCH  14  16
BRANCH  14  25
ATOM     25  C   UNL d   1      32.496 -17.158   0.973  0.00  0.00     0.188 C 
ATOM     26  C   UNL d   1      33.073 -16.287   2.089  0.00  0.00     0.033 C 
ATOM     27  C   UNL d   1      34.418 -16.855   2.558  0.00  0.00     0.002 C 
ATOM     28  C   UNL d   1      34.305 -18.323   2.968  0.00  0.00     0.000 C 
ATOM     29  C   UNL d   1      33.761 -19.174   1.827  0.00  0.00     0.002 C 
ATOM     30  C   UNL d   1      32.423 -18.638   1.373  0.00  0.00     0.033 C 
ENDBRANCH  14  25
ENDBRANCH  13  14
ENDBRANCH   1  13
BRANCH   5  31
ATOM     31  C   UNL d   1      23.078 -16.876  -0.297  0.00  0.00     0.301 C 
ATOM     32  O   UNL d   1      22.204 -16.082  -0.658  0.00  0.00    -0.259 OA
BRANCH  31  33
ATOM     33  O   UNL d   1      22.828 -18.004   0.417  0.00  0.00    -0.312 OA
BRANCH  33  34
ATOM     34  C   UNL d   1      22.296 -19.122  -0.310  0.00  0.00     0.124 C 
ATOM     35  C   UNL d   1      20.781 -18.994  -0.429  0.00  0.00     0.040 C 
ATOM     36  C   UNL d   1      22.905 -19.119  -1.711  0.00  0.00     0.040 C 
ENDBRANCH  33  34
ENDBRANCH  31  33
ENDBRANCH   5  31
TORSDOF 13
ENDMDL
MODEL 3
REMARK VINA RESULT:    -7.339      3.818      7.946
REMARK INTER + INTRA:         -16.488
REMARK INTER:                 -11.217
REMARK INTRA:                  -5.271
REMARK CONF_INDEPENDENT:        3.878
REMARK UNBOUND:                -5.271
REMARK  13 active torsions:
REMARK  status: ('A' for Active; 'I' for Inactive)
REMARK    1  A    between atoms: C_2  and  C_3 
REMARK    2  A    between atoms: C_3  and  O_4 
REMARK    3  A    between atoms: O_4  and  C_5 
REMARK    4  A    between atoms: C_5  and  C_6 
REMARK    5  A    between atoms: C_6  and  O_7 
REMARK    6  A    between atoms: C_6  and  C_8 
REMARK    7  A    between atoms: C_8  and  N_9 
REMARK    8  A    between atoms: N_9  and  C_10 
REMARK    9  A    between atoms: N_9  and  C_28 
REMARK   10  A    between atoms: C_10  and  C_11 
REMARK   11  A    between atoms: C_15  and  C_16 
REMARK   12  A    between atoms: C_16  and  O_18 
REMARK   13  A    between atoms: O_18  and  C_19 
ROOT
ATOM      1  C   UNL d   1      30.092 -15.350  -0.152  0.00  0.00     0.134 C 
ATOM      2  N   UNL d   1      30.029 -15.054  -1.410  0.00  0.00    -0.225 NA
ATOM      3  C   UNL d   1      28.808 -15.293  -1.950  0.00  0.00     0.116 A 
ATOM      4  S   UNL d   1      28.539 -14.996  -3.583  0.00  0.00    -0.063 SA
ATOM      5  C   UNL d   1      26.880 -15.435  -3.465  0.00  0.00     0.089 A 
ATOM      6  C   UNL d   1      26.563 -15.946  -2.207  0.00  0.00    -0.020 A 
ATOM      7  C   UNL d   1      25.234 -16.462  -1.746  0.00  0.00     0.051 C 
ATOM      8  C   UNL d   1      27.702 -15.836  -1.331  0.00  0.00     0.075 A 
ATOM      9  C   UNL d   1      27.834 -16.187   0.068  0.00  0.00     0.260 C 
ATOM     10  O   UNL d   1      27.039 -16.867   0.710  0.00  0.00    -0.267 OA
ATOM     11  N   UNL d   1      29.020 -15.759   0.635  0.00  0.00    -0.309 N 
ATOM     12  H   UNL d   1      29.180 -16.240   1.511  0.00  0.00     0.170 HD
ENDROOT
BRANCH   1  13
ATOM     13  C   UNL d   1      31.456 -15.404   0.494  0.00  0.00     0.313 C 
BRANCH  13  14
ATOM     14  N   UNL d   1      31.480 -15.559   2.048  0.00  0.00    -0.058 N 
ATOM     15  H   UNL d   1      30.513 -15.833   2.303  0.00  0.00     0.281 HD
BRANCH  14  16
ATOM     16  C   UNL d   1      31.796 -14.285   2.855  0.00  0.00     0.269 C 
BRANCH  16  17
ATOM     17  C   UNL d   1      30.769 -13.972   3.930  0.00  0.00     0.167 C 
BRANCH  17  18
ATOM     18  C   UNL d   1      29.500 -13.369   3.395  0.00  0.00     0.201 C 
BRANCH  18  19
ATOM     19  O   UNL d   1      28.785 -14.449   2.792  0.00  0.00    -0.385 OA
BRANCH  19  20
ATOM     20  C   UNL d   1      27.425 -14.096   2.663  0.00  0.00     0.194 C 
BRANCH  20  21
ATOM     21  C   UNL d   1      27.286 -12.969   1.706  0.00  0.00    -0.011 C 
ATOM     22  C   UNL d   1      26.664 -13.157   0.535  0.00  0.00     0.009 C 
ENDBRANCH  20  21
ENDBRANCH  19  20
ENDBRANCH  18  19
ENDBRANCH  17  18
BRANCH  17  23
ATOM     23  O   UNL d   1      30.299 -15.198   4.471  0.00  0.00    -0.392 OA
ATOM     24  H   UNL d   1      29.515 -15.528   4.009  0.00  0.00     0.210 HD
ENDBRANCH  17  23
ENDBRANCH  16  17
ENDBRANCH  14  16
BRANCH  14  25
ATOM     25  C   UNL d   1      32.454 -16.661   2.484  0.00  0.00     0.188 C 
ATOM     26  C   UNL d   1      32.307 -17.912   1.619  0.00  0.00     0.033 C 
ATOM     27  C   UNL d   1      33.366 -18.950   2.010  0.00  0.00     0.002 C 
ATOM     28  C   UNL d   1      34.779 -18.371   1.957  0.00  0.00     0.000 C 
ATOM     29  C   UNL d   1      34.908 -17.147   2.854  0.00  0.00     0.002 C 
ATOM     30  C   UNL d   1      33.885 -16.106   2.462  0.00  0.00     0.033 C 
ENDBRANCH  14  25
ENDBRANCH  13  14
ENDBRANCH   1  13
BRANCH   5  31
ATOM     31  C   UNL d   1      26.091 -15.187  -4.652  0.00  0.00     0.301 C 
ATOM     32  O   UNL d   1      26.389 -15.575  -5.786  0.00  0.00    -0.259 OA
BRANCH  31  33
ATOM     33  O   UNL d   1      24.986 -14.450  -4.370  0.00  0.00    -0.312 OA
BRANCH  33  34
ATOM     34  C   UNL d   1      25.162 -13.027  -4.296  0.00  0.00     0.124 C 
ATOM     35  C   UNL d   1      25.538 -12.621  -2.876  0.00  0.00     0.040 C 
ATOM     36  C   UNL d   1      26.296 -12.632  -5.241  0.00  0.00     0.040 C 
ENDBRANCH  33  34
ENDBRANCH  31  33
ENDBRANCH   5  31
TORSDOF 13
ENDMDL
MODEL 4
REMARK VINA RESULT:    -6.986      4.021      7.819
REMARK INTER + INTRA:         -15.619
REMARK INTER:                 -10.864
REMARK INTRA:                  -4.755
REMARK CONF_INDEPENDENT:        3.878
REMARK UNBOUND:                -4.755
REMARK  13 active torsions:
REMARK  status: ('A' for Active; 'I' for Inactive)
REMARK    1  A    between atoms: C_2  and  C_3 
REMARK    2  A    between atoms: C_3  and  O_4 
REMARK    3  A    between atoms: O_4  and  C_5 
REMARK    4  A    between atoms: C_5  and  C_6 
REMARK    5  A    between atoms: C_6  and  O_7 
REMARK    6  A    between atoms: C_6  and  C_8 
REMARK    7  A    between atoms: C_8  and  N_9 
REMARK    8  A    between atoms: N_9  and  C_10 
REMARK    9  A    between atoms: N_9  and  C_28 
REMARK   10  A    between atoms: C_10  and  C_11 
REMARK   11  A    between atoms: C_15  and  C_16 
REMARK   12  A    between atoms: C_16  and  O_18 
REMARK   13  A    between atoms: O_18  and  C_19 
ROOT
ATOM      1  C   UNL d   1      29.417 -17.028  -0.818  0.00  0.00     0.134 C 
ATOM      2  N   UNL d   1      29.303 -16.261  -1.853  0.00  0.00    -0.225 NA
ATOM      3  C   UNL d   1      28.013 -15.991  -2.174  0.00  0.00     0.116 A 
ATOM      4  S   UNL d   1      27.663 -15.031  -3.509  0.00  0.00    -0.063 SA
ATOM      5  C   UNL d   1      25.972 -15.096  -3.205  0.00  0.00     0.089 A 
ATOM      6  C   UNL d   1      25.661 -15.970  -2.163  0.00  0.00    -0.020 A 
ATOM      7  C   UNL d   1      24.300 -16.312  -1.641  0.00  0.00     0.051 C 
ATOM      8  C   UNL d   1      26.873 -16.467  -1.562  0.00  0.00     0.075 A 
ATOM      9  C   UNL d   1      27.052 -17.355  -0.432  0.00  0.00     0.260 C 
ATOM     10  O   UNL d   1      26.171 -18.033   0.088  0.00  0.00    -0.267 OA
ATOM     11  N   UNL d   1      28.366 -17.458  -0.013  0.00  0.00    -0.309 N 
ATOM     12  H   UNL d   1      28.476 -18.264   0.589  0.00  0.00     0.170 HD
ENDROOT
BRANCH   1  13
ATOM     13  C   UNL d   1      30.770 -17.634  -0.531  0.00  0.00     0.313 C 
BRANCH  13  14
ATOM     14  N   UNL d   1      31.519 -17.090   0.727  0.00  0.00    -0.058 N 
ATOM     15  H   UNL d   1      30.778 -16.946   1.437  0.00  0.00     0.281 HD
BRANCH  14  16
ATOM     16  C   UNL d   1      32.230 -15.732   0.563  0.00  0.00     0.269 C 
BRANCH  16  17
ATOM     17  C   UNL d   1      31.820 -14.699   1.599  0.00  0.00     0.167 C 
BRANCH  17  18
ATOM     18  C   UNL d   1      30.508 -14.031   1.299  0.00  0.00     0.201 C 
BRANCH  18  19
ATOM     19  O   UNL d   1      29.536 -15.078   1.291  0.00  0.00    -0.385 OA
BRANCH  19  20
ATOM     20  C   UNL d   1      28.359 -14.630   1.928  0.00  0.00     0.194 C 
BRANCH  20  21
ATOM     21  C   UNL d   1      27.310 -14.359   0.913  0.00  0.00    -0.011 C 
ATOM     22  C   UNL d   1      26.685 -13.174   0.895  0.00  0.00     0.009 C 
ENDBRANCH  20  21
ENDBRANCH  19  20
ENDBRANCH  18  19
ENDBRANCH  17  18
BRANCH  17  23
ATOM     23  O   UNL d   1      31.529 -15.375   2.813  0.00  0.00    -0.392 OA
ATOM     24  H   UNL d   1      30.586 -15.576   2.906  0.00  0.00     0.210 HD
ENDBRANCH  17  23
ENDBRANCH  16  17
ENDBRANCH  14  16
BRANCH  14  25
ATOM     25  C   UNL d   1      32.539 -18.107   1.253  0.00  0.00     0.188 C 
ATOM     26  C   UNL d   1      32.509 -18.192   2.779  0.00  0.00     0.033 C 
ATOM     27  C   UNL d   1      33.461 -19.293   3.263  0.00  0.00     0.002 C 
ATOM     28  C   UNL d   1      33.161 -20.638   2.602  0.00  0.00     0.000 C 
ATOM     29  C   UNL d   1      33.232 -20.534   1.084  0.00  0.00     0.002 C 
ATOM     30  C   UNL d   1      32.280 -19.468   0.592  0.00  0.00     0.033 C 
ENDBRANCH  14  25
ENDBRANCH  13  14
ENDBRANCH   1  13
BRANCH   5  31
ATOM     31  C   UNL d   1      25.161 -14.236  -4.040  0.00  0.00     0.301 C 
ATOM     32  O   UNL d   1      23.945 -14.074  -3.905  0.00  0.00    -0.259 OA
BRANCH  31  33
ATOM     33  O   UNL d   1      25.903 -13.641  -5.009  0.00  0.00    -0.312 OA
BRANCH  33  34
ATOM     34  C   UNL d   1      26.396 -12.323  -4.725  0.00  0.00     0.124 C 
ATOM     35  C   UNL d   1      25.902 -11.342  -5.782  0.00  0.00     0.040 C 
ATOM     36  C   UNL d   1      25.861 -11.892  -3.360  0.00  0.00     0.040 C 
ENDBRANCH  33  34
ENDBRANCH  31  33
ENDBRANCH   5  31
TORSDOF 13
ENDMDL
MODEL 5
REMARK VINA RESULT:    -6.926      4.180      7.119
REMARK INTER + INTRA:         -15.955
REMARK INTER:                 -10.804
REMARK INTRA:                  -5.150
REMARK CONF_INDEPENDENT:        3.878
REMARK UNBOUND:                -5.150
REMARK  13 active torsions:
REMARK  status: ('A' for Active; 'I' for Inactive)
REMARK    1  A    between atoms: C_2  and  C_3 
REMARK    2  A    between atoms: C_3  and  O_4 
REMARK    3  A    between atoms: O_4  and  C_5 
REMARK    4  A    between atoms: C_5  and  C_6 
REMARK    5  A    between atoms: C_6  and  O_7 
REMARK    6  A    between atoms: C_6  and  C_8 
REMARK    7  A    between atoms: C_8  and  N_9 
REMARK    8  A    between atoms: N_9  and  C_10 
REMARK    9  A    between atoms: N_9  and  C_28 
REMARK   10  A    between atoms: C_10  and  C_11 
REMARK   11  A    between atoms: C_15  and  C_16 
REMARK   12  A    between atoms: C_16  and  O_18 
REMARK   13  A    between atoms: O_18  and  C_19 
ROOT
ATOM      1  C   UNL d   1      28.222 -14.028   2.984  0.00  0.00     0.134 C 
ATOM      2  N   UNL d   1      27.568 -13.258   3.791  0.00  0.00    -0.225 NA
ATOM      3  C   UNL d   1      28.126 -13.186   5.025  0.00  0.00     0.116 A 
ATOM      4  S   UNL d   1      27.400 -12.255   6.222  0.00  0.00    -0.063 SA
ATOM      5  C   UNL d   1      28.654 -12.596   7.350  0.00  0.00     0.089 A 
ATOM      6  C   UNL d   1      29.557 -13.539   6.858  0.00  0.00    -0.020 A 
ATOM      7  C   UNL d   1      30.749 -14.107   7.564  0.00  0.00     0.051 C 
ATOM      8  C   UNL d   1      29.239 -13.855   5.489  0.00  0.00     0.075 A 
ATOM      9  C   UNL d   1      29.915 -14.736   4.559  0.00  0.00     0.260 C 
ATOM     10  O   UNL d   1      30.774 -15.560   4.855  0.00  0.00    -0.267 OA
ATOM     11  N   UNL d   1      29.439 -14.643   3.264  0.00  0.00    -0.309 N 
ATOM     12  H   UNL d   1      29.749 -15.439   2.722  0.00  0.00     0.170 HD
ENDROOT
BRANCH   1  13
ATOM     13  C   UNL d   1      27.558 -14.420   1.685  0.00  0.00     0.313 C 
BRANCH  13  14
ATOM     14  N   UNL d   1      28.356 -15.400   0.768  0.00  0.00    -0.058 N 
ATOM     15  H   UNL d   1      28.886 -16.004   1.422  0.00  0.00     0.281 HD
BRANCH  14  16
ATOM     16  C   UNL d   1      29.398 -14.760  -0.170  0.00  0.00     0.269 C 
BRANCH  16  17
ATOM     17  C   UNL d   1      30.790 -15.353  -0.033  0.00  0.00     0.167 C 
BRANCH  17  18
ATOM     18  C   UNL d   1      31.806 -14.387   0.509  0.00  0.00     0.201 C 
BRANCH  18  19
ATOM     19  O   UNL d   1      31.351 -14.045   1.819  0.00  0.00    -0.385 OA
BRANCH  19  20
ATOM     20  C   UNL d   1      32.461 -13.738   2.636  0.00  0.00     0.194 C 
BRANCH  20  21
ATOM     21  C   UNL d   1      32.296 -12.383   3.220  0.00  0.00    -0.011 C 
ATOM     22  C   UNL d   1      31.083 -11.819   3.273  0.00  0.00     0.009 C 
ENDBRANCH  20  21
ENDBRANCH  19  20
ENDBRANCH  18  19
ENDBRANCH  17  18
BRANCH  17  23
ATOM     23  O   UNL d   1      30.757 -16.340   0.986  0.00  0.00    -0.392 OA
ATOM     24  H   UNL d   1      30.780 -15.954   1.874  0.00  0.00     0.210 HD
ENDBRANCH  17  23
ENDBRANCH  16  17
ENDBRANCH  14  16
BRANCH  14  25
ATOM     25  C   UNL d   1      27.414 -16.266  -0.077  0.00  0.00     0.188 C 
ATOM     26  C   UNL d   1      26.922 -17.484   0.704  0.00  0.00     0.033 C 
ATOM     27  C   UNL d   1      25.900 -18.267  -0.129  0.00  0.00     0.002 C 
ATOM     28  C   UNL d   1      24.750 -17.380  -0.603  0.00  0.00     0.000 C 
ATOM     29  C   UNL d   1      25.264 -16.193  -1.408  0.00  0.00     0.002 C 
ATOM     30  C   UNL d   1      26.254 -15.399  -0.588  0.00  0.00     0.033 C 
ENDBRANCH  14  25
ENDBRANCH  13  14
ENDBRANCH   1  13
BRANCH   5  31
ATOM     31  C   UNL d   1      28.589 -11.851   8.588  0.00  0.00     0.301 C 
ATOM     32  O   UNL d   1      29.103 -10.743   8.766  0.00  0.00    -0.259 OA
BRANCH  31  33
ATOM     33  O   UNL d   1      27.907 -12.532   9.544  0.00  0.00    -0.312 OA
BRANCH  33  34
ATOM     34  C   UNL d   1      28.682 -13.376  10.410  0.00  0.00     0.124 C 
ATOM     35  C   UNL d   1      28.177 -13.256  11.844  0.00  0.00     0.040 C 
ATOM     36  C   UNL d   1      28.517 -14.823   9.947  0.00  0.00     0.040 C 
ENDBRANCH  33  34
ENDBRANCH  31  33
ENDBRANCH   5  31
TORSDOF 13
ENDMDL
MODEL 6
REMARK VINA RESULT:    -6.470      4.427      8.652
REMARK INTER + INTRA:         -15.850
REMARK INTER:                 -10.348
REMARK INTRA:                  -5.501
REMARK CONF_INDEPENDENT:        3.878
REMARK UNBOUND:                -5.501
REMARK  13 active torsions:
REMARK  status: ('A' for Active; 'I' for Inactive)
REMARK    1  A    between atoms: C_2  and  C_3 
REMARK    2  A    between atoms: C_3  and  O_4 
REMARK    3  A    between atoms: O_4  and  C_5 
REMARK    4  A    between atoms: C_5  and  C_6 
REMARK    5  A    between atoms: C_6  and  O_7 
REMARK    6  A    between atoms: C_6  and  C_8 
REMARK    7  A    between atoms: C_8  and  N_9 
REMARK    8  A    between atoms: N_9  and  C_10 
REMARK    9  A    between atoms: N_9  and  C_28 
REMARK   10  A    between atoms: C_10  and  C_11 
REMARK   11  A    between atoms: C_15  and  C_16 
REMARK   12  A    between atoms: C_16  and  O_18 
REMARK   13  A    between atoms: O_18  and  C_19 
ROOT
ATOM      1  C   UNL d   1      26.183 -10.761  -3.065  0.00  0.00     0.134 C 
ATOM      2  N   UNL d   1      25.300 -11.634  -3.429  0.00  0.00    -0.225 NA
ATOM      3  C   UNL d   1      25.495 -12.852  -2.867  0.00  0.00     0.116 A 
ATOM      4  S   UNL d   1      24.463 -14.126  -3.244  0.00  0.00    -0.063 SA
ATOM      5  C   UNL d   1      25.264 -15.192  -2.157  0.00  0.00     0.089 A 
ATOM      6  C   UNL d   1      26.411 -14.617  -1.610  0.00  0.00    -0.020 A 
ATOM      7  C   UNL d   1      27.377 -15.251  -0.658  0.00  0.00     0.051 C 
ATOM      8  C   UNL d   1      26.515 -13.241  -2.025  0.00  0.00     0.075 A 
ATOM      9  C   UNL d   1      27.501 -12.239  -1.676  0.00  0.00     0.260 C 
ATOM     10  O   UNL d   1      28.575 -12.458  -1.126  0.00  0.00    -0.267 OA
ATOM     11  N   UNL d   1      27.173 -10.967  -2.108  0.00  0.00    -0.309 N 
ATOM     12  H   UNL d   1      27.988 -10.368  -2.075  0.00  0.00     0.170 HD
ENDROOT
BRANCH   1  13
ATOM     13  C   UNL d   1      26.252  -9.462  -3.831  0.00  0.00     0.313 C 
BRANCH  13  14
ATOM     14  N   UNL d   1      25.204  -9.276  -4.974  0.00  0.00    -0.058 N 
ATOM     15  H   UNL d   1      24.620 -10.131  -4.941  0.00  0.00     0.281 HD
BRANCH  14  16
ATOM     16  C   UNL d   1      25.767  -9.190  -6.406  0.00  0.00     0.269 C 
BRANCH  16  17
ATOM     17  C   UNL d   1      25.963 -10.544  -7.067  0.00  0.00     0.167 C 
BRANCH  17  18
ATOM     18  C   UNL d   1      27.262 -11.209  -6.707  0.00  0.00     0.201 C 
BRANCH  18  19
ATOM     19  O   UNL d   1      26.920 -12.246  -5.785  0.00  0.00    -0.385 OA
BRANCH  19  20
ATOM     20  C   UNL d   1      27.785 -13.346  -5.974  0.00  0.00     0.194 C 
BRANCH  20  21
ATOM     21  C   UNL d   1      27.178 -14.569  -5.390  0.00  0.00    -0.011 C 
ATOM     22  C   UNL d   1      27.895 -15.345  -4.567  0.00  0.00     0.009 C 
ENDBRANCH  20  21
ENDBRANCH  19  20
ENDBRANCH  18  19
ENDBRANCH  17  18
BRANCH  17  23
ATOM     23  O   UNL d   1      25.015 -11.450  -6.522  0.00  0.00    -0.392 OA
ATOM     24  H   UNL d   1      25.118 -11.560  -5.566  0.00  0.00     0.210 HD
ENDBRANCH  17  23
ENDBRANCH  16  17
ENDBRANCH  14  16
BRANCH  14  25
ATOM     25  C   UNL d   1      24.323  -8.045  -4.728  0.00  0.00     0.188 C 
ATOM     26  C   UNL d   1      25.164  -6.808  -4.412  0.00  0.00     0.033 C 
ATOM     27  C   UNL d   1      24.260  -5.577  -4.279  0.00  0.00     0.002 C 
ATOM     28  C   UNL d   1      23.380  -5.379  -5.513  0.00  0.00     0.000 C 
ATOM     29  C   UNL d   1      22.527  -6.611  -5.785  0.00  0.00     0.002 C 
ATOM     30  C   UNL d   1      23.409  -7.829  -5.943  0.00  0.00     0.033 C 
ENDBRANCH  14  25
ENDBRANCH  13  14
ENDBRANCH   1  13
BRANCH   5  31
ATOM     31  C   UNL d   1      24.623 -16.475  -1.968  0.00  0.00     0.301 C 
ATOM     32  O   UNL d   1      24.780 -17.453  -2.705  0.00  0.00    -0.259 OA
BRANCH  31  33
ATOM     33  O   UNL d   1      23.803 -16.467  -0.885  0.00  0.00    -0.312 OA
BRANCH  33  34
ATOM     34  C   UNL d   1      23.701 -17.694  -0.145  0.00  0.00     0.124 C 
ATOM     35  C   UNL d   1      22.961 -18.741  -0.971  0.00  0.00     0.040 C 
ATOM     36  C   UNL d   1      25.114 -18.200   0.145  0.00  0.00     0.040 C 
ENDBRANCH  33  34
ENDBRANCH  31  33
ENDBRANCH   5  31
TORSDOF 13
ENDMDL
MODEL 7
REMARK VINA RESULT:    -6.455      3.195      8.155
REMARK INTER + INTRA:         -15.711
REMARK INTER:                 -10.333
REMARK INTRA:                  -5.378
REMARK CONF_INDEPENDENT:        3.878
REMARK UNBOUND:                -5.378
REMARK  13 active torsions:
REMARK  status: ('A' for Active; 'I' for Inactive)
REMARK    1  A    between atoms: C_2  and  C_3 
REMARK    2  A    between atoms: C_3  and  O_4 
REMARK    3  A    between atoms: O_4  and  C_5 
REMARK    4  A    between atoms: C_5  and  C_6 
REMARK    5  A    between atoms: C_6  and  O_7 
REMARK    6  A    between atoms: C_6  and  C_8 
REMARK    7  A    between atoms: C_8  and  N_9 
REMARK    8  A    between atoms: N_9  and  C_10 
REMARK    9  A    between atoms: N_9  and  C_28 
REMARK   10  A    between atoms: C_10  and  C_11 
REMARK   11  A    between atoms: C_15  and  C_16 
REMARK   12  A    between atoms: C_16  and  O_18 
REMARK   13  A    between atoms: O_18  and  C_19 
ROOT
ATOM      1  C   UNL d   1      29.392 -14.349   0.679  0.00  0.00     0.134 C 
ATOM      2  N   UNL d   1      28.757 -15.440   0.959  0.00  0.00    -0.225 NA
ATOM      3  C   UNL d   1      27.655 -15.625   0.191  0.00  0.00     0.116 A 
ATOM      4  S   UNL d   1      26.682 -16.976   0.429  0.00  0.00    -0.063 SA
ATOM      5  C   UNL d   1      25.644 -16.548  -0.875  0.00  0.00     0.089 A 
ATOM      6  C   UNL d   1      25.957 -15.296  -1.403  0.00  0.00    -0.020 A 
ATOM      7  C   UNL d   1      25.254 -14.580  -2.515  0.00  0.00     0.051 C 
ATOM      8  C   UNL d   1      27.148 -14.783  -0.776  0.00  0.00     0.075 A 
ATOM      9  C   UNL d   1      27.873 -13.554  -1.027  0.00  0.00     0.260 C 
ATOM     10  O   UNL d   1      27.459 -12.604  -1.685  0.00  0.00    -0.267 OA
ATOM     11  N   UNL d   1      29.087 -13.484  -0.369  0.00  0.00    -0.309 N 
ATOM     12  H   UNL d   1      29.425 -12.531  -0.364  0.00  0.00     0.170 HD
ENDROOT
BRANCH   1  13
ATOM     13  C   UNL d   1      30.459 -13.883   1.641  0.00  0.00     0.313 C 
BRANCH  13  14
ATOM     14  N   UNL d   1      30.721 -14.798   2.879  0.00  0.00    -0.058 N 
ATOM     15  H   UNL d   1      30.038 -15.572   2.787  0.00  0.00     0.281 HD
BRANCH  14  16
ATOM     16  C   UNL d   1      30.471 -14.162   4.260  0.00  0.00     0.269 C 
BRANCH  16  17
ATOM     17  C   UNL d   1      29.031 -14.269   4.731  0.00  0.00     0.167 C 
BRANCH  17  18
ATOM     18  C   UNL d   1      28.226 -13.020   4.501  0.00  0.00     0.201 C 
BRANCH  18  19
ATOM     19  O   UNL d   1      28.169 -12.856   3.083  0.00  0.00    -0.385 OA
BRANCH  19  20
ATOM     20  C   UNL d   1      26.859 -13.128   2.632  0.00  0.00     0.194 C 
BRANCH  20  21
ATOM     21  C   UNL d   1      26.404 -12.045   1.724  0.00  0.00    -0.011 C 
ATOM     22  C   UNL d   1      26.831 -10.789   1.912  0.00  0.00     0.009 C 
ENDBRANCH  20  21
ENDBRANCH  19  20
ENDBRANCH  18  19
ENDBRANCH  17  18
BRANCH  17  23
ATOM     23  O   UNL d   1      28.357 -15.203   3.900  0.00  0.00    -0.392 OA
ATOM     24  H   UNL d   1      28.479 -15.014   2.959  0.00  0.00     0.210 HD
ENDBRANCH  17  23
ENDBRANCH  16  17
ENDBRANCH  14  16
BRANCH  14  25
ATOM     25  C   UNL d   1      32.145 -15.368   2.861  0.00  0.00     0.188 C 
ATOM     26  C   UNL d   1      32.232 -16.627   1.998  0.00  0.00     0.033 C 
ATOM     27  C   UNL d   1      33.686 -17.107   1.913  0.00  0.00     0.002 C 
ATOM     28  C   UNL d   1      34.624 -16.004   1.426  0.00  0.00     0.000 C 
ATOM     29  C   UNL d   1      34.544 -14.776   2.323  0.00  0.00     0.002 C 
ATOM     30  C   UNL d   1      33.119 -14.277   2.395  0.00  0.00     0.033 C 
ENDBRANCH  14  25
ENDBRANCH  13  14
ENDBRANCH   1  13
BRANCH   5  31
ATOM     31  C   UNL d   1      24.653 -17.542  -1.224  0.00  0.00     0.301 C 
ATOM     32  O   UNL d   1      24.321 -17.824  -2.380  0.00  0.00    -0.259 OA
BRANCH  31  33
ATOM     33  O   UNL d   1      24.112 -18.116  -0.119  0.00  0.00    -0.312 OA
BRANCH  33  34
ATOM     34  C   UNL d   1      22.726 -17.839   0.138  0.00  0.00     0.124 C 
ATOM     35  C   UNL d   1      22.326 -16.524  -0.521  0.00  0.00     0.040 C 
ATOM     36  C   UNL d   1      21.890 -18.968  -0.462  0.00  0.00     0.040 C 
ENDBRANCH  33  34
ENDBRANCH  31  33
ENDBRANCH   5  31
TORSDOF 13
ENDMDL
MODEL 8
REMARK VINA RESULT:    -6.347      3.684      7.205
REMARK INTER + INTRA:         -15.802
REMARK INTER:                 -10.225
REMARK INTRA:                  -5.577
REMARK CONF_INDEPENDENT:        3.878
REMARK UNBOUND:                -5.577
REMARK  13 active torsions:
REMARK  status: ('A' for Active; 'I' for Inactive)
REMARK    1  A    between atoms: C_2  and  C_3 
REMARK    2  A    between atoms: C_3  and  O_4 
REMARK    3  A    between atoms: O_4  and  C_5 
REMARK    4  A    between atoms: C_5  and  C_6 
REMARK    5  A    between atoms: C_6  and  O_7 
REMARK    6  A    between atoms: C_6  and  C_8 
REMARK    7  A    between atoms: C_8  and  N_9 
REMARK    8  A    between atoms: N_9  and  C_10 
REMARK    9  A    between atoms: N_9  and  C_28 
REMARK   10  A    between atoms: C_10  and  C_11 
REMARK   11  A    between atoms: C_15  and  C_16 
REMARK   12  A    between atoms: C_16  and  O_18 
REMARK   13  A    between atoms: O_18  and  C_19 
ROOT
ATOM      1  C   UNL d   1      27.733 -13.913   2.286  0.00  0.00     0.134 C 
ATOM      2  N   UNL d   1      28.322 -14.689   3.136  0.00  0.00    -0.225 NA
ATOM      3  C   UNL d   1      28.508 -14.106   4.346  0.00  0.00     0.116 A 
ATOM      4  S   UNL d   1      29.285 -14.951   5.575  0.00  0.00    -0.063 SA
ATOM      5  C   UNL d   1      29.065 -13.665   6.697  0.00  0.00     0.089 A 
ATOM      6  C   UNL d   1      28.523 -12.531   6.094  0.00  0.00    -0.020 A 
ATOM      7  C   UNL d   1      28.225 -11.214   6.741  0.00  0.00     0.051 C 
ATOM      8  C   UNL d   1      28.187 -12.819   4.722  0.00  0.00     0.075 A 
ATOM      9  C   UNL d   1      27.565 -11.975   3.723  0.00  0.00     0.260 C 
ATOM     10  O   UNL d   1      27.412 -10.761   3.810  0.00  0.00    -0.267 OA
ATOM     11  N   UNL d   1      27.217 -12.651   2.568  0.00  0.00    -0.309 N 
ATOM     12  H   UNL d   1      27.033 -11.993   1.822  0.00  0.00     0.170 HD
ENDROOT
BRANCH   1  13
ATOM     13  C   UNL d   1      27.725 -14.330   0.834  0.00  0.00     0.313 C 
BRANCH  13  14
ATOM     14  N   UNL d   1      28.471 -15.659   0.492  0.00  0.00    -0.058 N 
ATOM     15  H   UNL d   1      28.801 -16.021   1.404  0.00  0.00     0.281 HD
BRANCH  14  16
ATOM     16  C   UNL d   1      29.722 -15.528  -0.399  0.00  0.00     0.269 C 
BRANCH  16  17
ATOM     17  C   UNL d   1      30.966 -15.088   0.354  0.00  0.00     0.167 C 
BRANCH  17  18
ATOM     18  C   UNL d   1      31.071 -13.599   0.528  0.00  0.00     0.201 C 
BRANCH  18  19
ATOM     19  O   UNL d   1      30.532 -13.324   1.822  0.00  0.00    -0.385 OA
BRANCH  19  20
ATOM     20  C   UNL d   1      31.268 -12.281   2.426  0.00  0.00     0.194 C 
BRANCH  20  21
ATOM     21  C   UNL d   1      31.458 -12.570   3.869  0.00  0.00    -0.011 C 
ATOM     22  C   UNL d   1      31.594 -11.564   4.742  0.00  0.00     0.009 C 
ENDBRANCH  20  21
ENDBRANCH  19  20
ENDBRANCH  18  19
ENDBRANCH  17  18
BRANCH  17  23
ATOM     23  O   UNL d   1      30.853 -15.528   1.699  0.00  0.00    -0.392 OA
ATOM     24  H   UNL d   1      30.030 -15.233   2.116  0.00  0.00     0.210 HD
ENDBRANCH  17  23
ENDBRANCH  16  17
ENDBRANCH  14  16
BRANCH  14  25
ATOM     25  C   UNL d   1      27.525 -16.680  -0.152  0.00  0.00     0.188 C 
ATOM     26  C   UNL d   1      26.943 -17.636   0.889  0.00  0.00     0.033 C 
ATOM     27  C   UNL d   1      25.921 -18.571   0.231  0.00  0.00     0.002 C 
ATOM     28  C   UNL d   1      24.835 -17.796  -0.515  0.00  0.00     0.000 C 
ATOM     29  C   UNL d   1      25.440 -16.878  -1.569  0.00  0.00     0.002 C 
ATOM     30  C   UNL d   1      26.431 -15.934  -0.929  0.00  0.00     0.033 C 
ENDBRANCH  14  25
ENDBRANCH  13  14
ENDBRANCH   1  13
BRANCH   5  31
ATOM     31  C   UNL d   1      29.443 -13.966   8.061  0.00  0.00     0.301 C 
ATOM     32  O   UNL d   1      30.534 -14.435   8.398  0.00  0.00    -0.259 OA
BRANCH  31  33
ATOM     33  O   UNL d   1      28.437 -13.690   8.930  0.00  0.00    -0.312 OA
BRANCH  33  34
ATOM     34  C   UNL d   1      28.809 -13.471  10.299  0.00  0.00     0.124 C 
ATOM     35  C   UNL d   1      27.780 -12.579  10.984  0.00  0.00     0.040 C 
ATOM     36  C   UNL d   1      28.842 -14.824  11.010  0.00  0.00     0.040 C 
ENDBRANCH  33  34
ENDBRANCH  31  33
ENDBRANCH   5  31
TORSDOF 13
ENDMDL
MODEL 9
REMARK VINA RESULT:    -6.132      5.310      9.751
REMARK INTER + INTRA:         -15.993
REMARK INTER:                 -10.010
REMARK INTRA:                  -5.983
REMARK CONF_INDEPENDENT:        3.878
REMARK UNBOUND:                -5.983
REMARK  13 active torsions:
REMARK  status: ('A' for Active; 'I' for Inactive)
REMARK    1  A    between atoms: C_2  and  C_3 
REMARK    2  A    between atoms: C_3  and  O_4 
REMARK    3  A    between atoms: O_4  and  C_5 
REMARK    4  A    between atoms: C_5  and  C_6 
REMARK    5  A    between atoms: C_6  and  O_7 
REMARK    6  A    between atoms: C_6  and  C_8 
REMARK    7  A    between atoms: C_8  and  N_9 
REMARK    8  A    between atoms: N_9  and  C_10 
REMARK    9  A    between atoms: N_9  and  C_28 
REMARK   10  A    between atoms: C_10  and  C_11 
REMARK   11  A    between atoms: C_15  and  C_16 
REMARK   12  A    between atoms: C_16  and  O_18 
REMARK   13  A    between atoms: O_18  and  C_19 
ROOT
ATOM      1  C   UNL d   1      28.314 -15.844  -2.640  0.00  0.00     0.134 C 
ATOM      2  N   UNL d   1      29.296 -16.665  -2.455  0.00  0.00    -0.225 NA
ATOM      3  C   UNL d   1      30.003 -16.910  -3.587  0.00  0.00     0.116 A 
ATOM      4  S   UNL d   1      31.302 -17.977  -3.551  0.00  0.00    -0.063 SA
ATOM      5  C   UNL d   1      31.675 -17.694  -5.206  0.00  0.00     0.089 A 
ATOM      6  C   UNL d   1      30.718 -16.890  -5.827  0.00  0.00    -0.020 A 
ATOM      7  C   UNL d   1      30.687 -16.463  -7.262  0.00  0.00     0.051 C 
ATOM      8  C   UNL d   1      29.760 -16.428  -4.855  0.00  0.00     0.075 A 
ATOM      9  C   UNL d   1      28.626 -15.543  -5.019  0.00  0.00     0.260 C 
ATOM     10  O   UNL d   1      28.140 -15.199  -6.092  0.00  0.00    -0.267 OA
ATOM     11  N   UNL d   1      28.043 -15.164  -3.824  0.00  0.00    -0.309 N 
ATOM     12  H   UNL d   1      27.126 -14.772  -3.993  0.00  0.00     0.170 HD
ENDROOT
BRANCH   1  13
ATOM     13  C   UNL d   1      27.285 -15.713  -1.543  0.00  0.00     0.313 C 
BRANCH  13  14
ATOM     14  N   UNL d   1      25.789 -15.717  -1.992  0.00  0.00    -0.058 N 
ATOM     15  H   UNL d   1      25.774 -16.285  -2.859  0.00  0.00     0.281 HD
BRANCH  14  16
ATOM     16  C   UNL d   1      25.185 -14.349  -2.361  0.00  0.00     0.269 C 
BRANCH  16  17
ATOM     17  C   UNL d   1      24.791 -14.229  -3.824  0.00  0.00     0.167 C 
BRANCH  17  18
ATOM     18  C   UNL d   1      25.239 -12.946  -4.466  0.00  0.00     0.201 C 
BRANCH  18  19
ATOM     19  O   UNL d   1      26.535 -13.217  -5.003  0.00  0.00    -0.385 OA
BRANCH  19  20
ATOM     20  C   UNL d   1      27.299 -12.030  -5.007  0.00  0.00     0.194 C 
BRANCH  20  21
ATOM     21  C   UNL d   1      27.300 -11.428  -3.650  0.00  0.00    -0.011 C 
ATOM     22  C   UNL d   1      27.852 -12.089  -2.624  0.00  0.00     0.009 C 
ENDBRANCH  20  21
ENDBRANCH  19  20
ENDBRANCH  18  19
ENDBRANCH  17  18
BRANCH  17  23
ATOM     23  O   UNL d   1      25.523 -15.193  -4.565  0.00  0.00    -0.392 OA
ATOM     24  H   UNL d   1      26.162 -14.788  -5.168  0.00  0.00     0.210 HD
ENDBRANCH  17  23
ENDBRANCH  16  17
ENDBRANCH  14  16
BRANCH  14  25
ATOM     25  C   UNL d   1      24.891 -16.372  -0.936  0.00  0.00     0.188 C 
ATOM     26  C   UNL d   1      23.410 -16.190  -1.270  0.00  0.00     0.033 C 
ATOM     27  C   UNL d   1      22.545 -16.948  -0.255  0.00  0.00     0.002 C 
ATOM     28  C   UNL d   1      22.940 -18.421  -0.155  0.00  0.00     0.000 C 
ATOM     29  C   UNL d   1      24.410 -18.574   0.213  0.00  0.00     0.002 C 
ATOM     30  C   UNL d   1      25.276 -17.852  -0.794  0.00  0.00     0.033 C 
ENDBRANCH  14  25
ENDBRANCH  13  14
ENDBRANCH   1  13
BRANCH   5  31
ATOM     31  C   UNL d   1      32.904 -18.297  -5.674  0.00  0.00     0.301 C 
ATOM     32  O   UNL d   1      34.014 -17.759  -5.616  0.00  0.00    -0.259 OA
BRANCH  31  33
ATOM     33  O   UNL d   1      32.684 -19.526  -6.207  0.00  0.00    -0.312 OA
BRANCH  33  34
ATOM     34  C   UNL d   1      31.316 -19.953  -6.299  0.00  0.00     0.124 C 
ATOM     35  C   UNL d   1      30.930 -20.153  -7.760  0.00  0.00     0.040 C 
ATOM     36  C   UNL d   1      31.177 -21.285  -5.563  0.00  0.00     0.040 C 
ENDBRANCH  33  34
ENDBRANCH  31  33
ENDBRANCH   5  31
TORSDOF 13
ENDMDL
