MODEL 1
REMARK VINA RESULT:    -8.181      0.000      0.000
REMARK INTER + INTRA:         -11.333
REMARK INTER:                  -9.971
REMARK INTRA:                  -1.362
REMARK CONF_INDEPENDENT:        1.790
REMARK UNBOUND:                -1.362
REMARK  6 active torsions:
REMARK  status: ('A' for Active; 'I' for Inactive)
REMARK    1  A    between atoms: C_4  and  C_5 
REMARK    2  A    between atoms: C_12  and  C_13 
REMARK       I    between atoms: C_13  and  N_15 
REMARK    3  A    between atoms: N_15  and  N_16 
REMARK    4  A    between atoms: N_16  and  C_17 
REMARK    5  A    between atoms: C_17  and  N_19 
REMARK    6  A    between atoms: N_19  and  C_20 
ROOT
ATOM      1  C   UNL d   1      28.322 -14.251   5.403  0.00  0.00     0.275 C 
ATOM      2  O   UNL d   1      28.373 -15.451   5.705  0.00  0.00    -0.266 OA
ATOM      3  N   UNL d   1      28.224 -13.862   4.073  0.00  0.00    -0.263 N 
ATOM      4  H   UNL d   1      28.173 -12.888   3.781  0.00  0.00     0.190 HD
ENDROOT
BRANCH   3   5
ATOM      5  N   UNL d   1      28.191 -14.826   2.983  0.00  0.00    -0.273 N 
ATOM      6  H   UNL d   1      28.530 -15.759   3.215  0.00  0.00     0.189 HD
BRANCH   5   7
ATOM      7  C   UNL d   1      27.658 -14.440   1.742  0.00  0.00     0.191 C 
ATOM      8  S   UNL d   1      26.874 -12.945   1.608  0.00  0.00    -0.039 SA
BRANCH   7   9
ATOM      9  N   UNL d   1      27.813 -15.394   0.711  0.00  0.00    -0.331 N 
ATOM     10  H   UNL d   1      28.413 -16.188   0.888  0.00  0.00     0.168 HD
BRANCH   9  11
ATOM     11  C   UNL d   1      26.933 -15.525  -0.434  0.00  0.00     0.045 A 
ATOM     12  C   UNL d   1      27.064 -14.606  -1.486  0.00  0.00     0.030 A 
ATOM     13  C   UNL d   1      26.174 -14.579  -2.556  0.00  0.00     0.003 A 
ATOM     14  C   UNL d   1      25.156 -15.517  -2.632  0.00  0.00     0.012 A 
ATOM     15  C   UNL d   1      25.045 -16.521  -1.665  0.00  0.00    -0.024 A 
ATOM     16  C   UNL d   1      24.030 -17.484  -1.809  0.00  0.00     0.012 A 
ATOM     17  C   UNL d   1      25.940 -16.551  -0.547  0.00  0.00     0.001 A 
ATOM     18  C   UNL d   1      23.869 -18.495  -0.870  0.00  0.00     0.001 A 
ATOM     19  C   UNL d   1      24.717 -18.544   0.231  0.00  0.00     0.001 A 
ATOM     20  C   UNL d   1      25.729 -17.584   0.395  0.00  0.00     0.014 A 
ENDBRANCH   9  11
ENDBRANCH   7   9
ENDBRANCH   5   7
ENDBRANCH   3   5
BRANCH   1  21
ATOM     21  C   UNL d   1      28.370 -13.186   6.420  0.00  0.00     0.098 A 
ATOM     22  C   UNL d   1      28.155 -11.779   6.320  0.00  0.00     0.160 A 
ATOM     23  N   UNL d   1      28.283 -11.122   7.484  0.00  0.00    -0.181 NA
ATOM     24  N   UNL d   1      28.633 -12.090   8.346  0.00  0.00    -0.240 N 
ATOM     25  C   UNL d   1      28.863 -11.825   9.766  0.00  0.00     0.221 C 
ATOM     26  C   UNL d   1      28.662 -13.344   7.771  0.00  0.00     0.138 A 
ATOM     27  C   UNL d   1      28.765 -13.143  10.566  0.00  0.00     0.061 C 
ATOM     28  C   UNL d   1      29.578 -14.220   9.837  0.00  0.00     0.081 C 
ATOM     29  C   UNL d   1      29.690 -15.488  10.659  0.00  0.00     0.032 C 
ATOM     30  N   UNL d   1      28.925 -14.429   8.549  0.00  0.00    -0.370 N 
ATOM     31  H   UNL d   1      28.971 -15.358   8.125  0.00  0.00     0.161 HD
BRANCH  25  32
ATOM     32  C   UNL d   1      30.213 -11.168  10.000  0.00  0.00     0.409 C 
ATOM     33  F   UNL d   1      31.218 -11.727   9.291  0.00  0.00    -0.169 F 
ATOM     34  F   UNL d   1      30.218  -9.846   9.734  0.00  0.00    -0.169 F 
ATOM     35  F   UNL d   1      30.562 -11.296  11.310  0.00  0.00    -0.169 F 
ENDBRANCH  25  32
ENDBRANCH   1  21
TORSDOF 6
ENDMDL
MODEL 2
REMARK VINA RESULT:    -7.772      0.721      2.149
REMARK INTER + INTRA:         -10.973
REMARK INTER:                  -9.562
REMARK INTRA:                  -1.411
REMARK CONF_INDEPENDENT:        1.790
REMARK UNBOUND:                -1.411
REMARK  6 active torsions:
REMARK  status: ('A' for Active; 'I' for Inactive)
REMARK    1  A    between atoms: C_4  and  C_5 
REMARK    2  A    between atoms: C_12  and  C_13 
REMARK       I    between atoms: C_13  and  N_15 
REMARK    3  A    between atoms: N_15  and  N_16 
REMARK    4  A    between atoms: N_16  and  C_17 
REMARK    5  A    between atoms: C_17  and  N_19 
REMARK    6  A    between atoms: N_19  and  C_20 
ROOT
ATOM      1  C   UNL d   1      28.466 -14.308   5.757  0.00  0.00     0.275 C 
ATOM      2  O   UNL d   1      28.518 -15.504   6.075  0.00  0.00    -0.266 OA
ATOM      3  N   UNL d   1      28.319 -13.936   4.427  0.00  0.00    -0.263 N 
ATOM      4  H   UNL d   1      28.265 -12.967   4.122  0.00  0.00     0.190 HD
ENDROOT
BRANCH   3   5
ATOM      5  N   UNL d   1      28.238 -14.916   3.353  0.00  0.00    -0.273 N 
ATOM      6  H   UNL d   1      28.482 -15.871   3.612  0.00  0.00     0.189 HD
BRANCH   5   7
ATOM      7  C   UNL d   1      27.786 -14.508   2.087  0.00  0.00     0.191 C 
ATOM      8  S   UNL d   1      27.017 -13.008   1.927  0.00  0.00    -0.039 SA
BRANCH   7   9
ATOM      9  N   UNL d   1      28.001 -15.447   1.053  0.00  0.00    -0.331 N 
ATOM     10  H   UNL d   1      28.841 -16.010   1.093  0.00  0.00     0.168 HD
BRANCH   9  11
ATOM     11  C   UNL d   1      26.980 -15.921   0.139  0.00  0.00     0.045 A 
ATOM     12  C   UNL d   1      26.398 -17.174   0.379  0.00  0.00     0.030 A 
ATOM     13  C   UNL d   1      25.511 -17.760  -0.520  0.00  0.00     0.003 A 
ATOM     14  C   UNL d   1      25.135 -17.075  -1.665  0.00  0.00     0.012 A 
ATOM     15  C   UNL d   1      25.604 -15.778  -1.900  0.00  0.00    -0.024 A 
ATOM     16  C   UNL d   1      25.155 -15.099  -3.047  0.00  0.00     0.012 A 
ATOM     17  C   UNL d   1      26.532 -15.169  -0.995  0.00  0.00     0.001 A 
ATOM     18  C   UNL d   1      25.600 -13.814  -3.333  0.00  0.00     0.001 A 
ATOM     19  C   UNL d   1      26.508 -13.201  -2.478  0.00  0.00     0.001 A 
ATOM     20  C   UNL d   1      26.974 -13.869  -1.334  0.00  0.00     0.014 A 
ENDBRANCH   9  11
ENDBRANCH   7   9
ENDBRANCH   5   7
ENDBRANCH   3   5
BRANCH   1  21
ATOM     21  C   UNL d   1      28.561 -13.229   6.757  0.00  0.00     0.098 A 
ATOM     22  C   UNL d   1      28.352 -11.822   6.645  0.00  0.00     0.160 A 
ATOM     23  N   UNL d   1      28.530 -11.150   7.793  0.00  0.00    -0.181 NA
ATOM     24  N   UNL d   1      28.907 -12.108   8.655  0.00  0.00    -0.240 N 
ATOM     25  C   UNL d   1      29.194 -11.825  10.061  0.00  0.00     0.221 C 
ATOM     26  C   UNL d   1      28.904 -13.370   8.097  0.00  0.00     0.138 A 
ATOM     27  C   UNL d   1      29.119 -13.131  10.882  0.00  0.00     0.061 C 
ATOM     28  C   UNL d   1      29.895 -14.225  10.138  0.00  0.00     0.081 C 
ATOM     29  C   UNL d   1      30.030 -15.482  10.973  0.00  0.00     0.032 C 
ATOM     30  N   UNL d   1      29.190 -14.446   8.879  0.00  0.00    -0.370 N 
ATOM     31  H   UNL d   1      29.213 -15.382   8.468  0.00  0.00     0.161 HD
BRANCH  25  32
ATOM     32  C   UNL d   1      30.557 -11.175  10.232  0.00  0.00     0.409 C 
ATOM     33  F   UNL d   1      31.237 -11.618  11.312  0.00  0.00    -0.169 F 
ATOM     34  F   UNL d   1      31.360 -11.325   9.160  0.00  0.00    -0.169 F 
ATOM     35  F   UNL d   1      30.403  -9.834  10.410  0.00  0.00    -0.169 F 
ENDBRANCH  25  32
ENDBRANCH   1  21
TORSDOF 6
ENDMDL
MODEL 3
REMARK VINA RESULT:    -7.758      8.427     10.839
REMARK INTER + INTRA:         -10.892
REMARK INTER:                  -9.548
REMARK INTRA:                  -1.344
REMARK CONF_INDEPENDENT:        1.790
REMARK UNBOUND:                -1.344
REMARK  6 active torsions:
REMARK  status: ('A' for Active; 'I' for Inactive)
REMARK    1  A    between atoms: C_4  and  C_5 
REMARK    2  A    between atoms: C_12  and  C_13 
REMARK       I    between atoms: C_13  and  N_15 
REMARK    3  A    between atoms: N_15  and  N_16 
REMARK    4  A    between atoms: N_16  and  C_17 
REMARK    5  A    between atoms: C_17  and  N_19 
REMARK    6  A    between atoms: N_19  and  C_20 
ROOT
ATOM      1  C   UNL d   1      26.164 -11.558  -3.581  0.00  0.00     0.275 C 
ATOM      2  O   UNL d   1      26.440 -12.161  -2.535  0.00  0.00    -0.266 OA
ATOM      3  N   UNL d   1      25.294 -12.116  -4.509  0.00  0.00    -0.263 N 
ATOM      4  H   UNL d   1      25.035 -11.653  -5.378  0.00  0.00     0.190 HD
ENDROOT
BRANCH   3   5
ATOM      5  N   UNL d   1      24.684 -13.422  -4.312  0.00  0.00    -0.273 N 
ATOM      6  H   UNL d   1      23.723 -13.511  -4.642  0.00  0.00     0.189 HD
BRANCH   5   7
ATOM      7  C   UNL d   1      25.450 -14.459  -3.753  0.00  0.00     0.191 C 
ATOM      8  S   UNL d   1      26.203 -15.576  -4.777  0.00  0.00    -0.039 SA
BRANCH   7   9
ATOM      9  N   UNL d   1      25.480 -14.475  -2.339  0.00  0.00    -0.331 N 
ATOM     10  H   UNL d   1      25.077 -13.686  -1.849  0.00  0.00     0.168 HD
BRANCH   9  11
ATOM     11  C   UNL d   1      25.714 -15.654  -1.530  0.00  0.00     0.045 A 
ATOM     12  C   UNL d   1      27.035 -15.975  -1.183  0.00  0.00     0.030 A 
ATOM     13  C   UNL d   1      27.358 -17.158  -0.525  0.00  0.00     0.003 A 
ATOM     14  C   UNL d   1      26.352 -18.032  -0.139  0.00  0.00     0.012 A 
ATOM     15  C   UNL d   1      25.010 -17.709  -0.366  0.00  0.00    -0.024 A 
ATOM     16  C   UNL d   1      24.019 -18.598   0.088  0.00  0.00     0.012 A 
ATOM     17  C   UNL d   1      24.662 -16.505  -1.060  0.00  0.00     0.001 A 
ATOM     18  C   UNL d   1      22.672 -18.331  -0.122  0.00  0.00     0.001 A 
ATOM     19  C   UNL d   1      22.305 -17.175  -0.801  0.00  0.00     0.001 A 
ATOM     20  C   UNL d   1      23.281 -16.282  -1.270  0.00  0.00     0.014 A 
ENDBRANCH   9  11
ENDBRANCH   7   9
ENDBRANCH   5   7
ENDBRANCH   3   5
BRANCH   1  21
ATOM     21  C   UNL d   1      26.740 -10.239  -3.898  0.00  0.00     0.098 A 
ATOM     22  C   UNL d   1      28.063  -9.729  -3.744  0.00  0.00     0.160 A 
ATOM     23  N   UNL d   1      28.211  -8.459  -4.156  0.00  0.00    -0.181 NA
ATOM     24  N   UNL d   1      26.971  -8.113  -4.537  0.00  0.00    -0.240 N 
ATOM     25  C   UNL d   1      26.662  -6.793  -5.084  0.00  0.00     0.221 C 
ATOM     26  C   UNL d   1      26.065  -9.150  -4.439  0.00  0.00     0.138 A 
ATOM     27  C   UNL d   1      25.328  -6.848  -5.861  0.00  0.00     0.061 C 
ATOM     28  C   UNL d   1      24.294  -7.595  -5.008  0.00  0.00     0.081 C 
ATOM     29  C   UNL d   1      22.909  -7.523  -5.618  0.00  0.00     0.032 C 
ATOM     30  N   UNL d   1      24.787  -8.961  -4.866  0.00  0.00    -0.370 N 
ATOM     31  H   UNL d   1      24.104  -9.717  -4.775  0.00  0.00     0.161 HD
BRANCH  25  32
ATOM     32  C   UNL d   1      26.590  -5.739  -3.991  0.00  0.00     0.409 C 
ATOM     33  F   UNL d   1      25.439  -5.031  -3.997  0.00  0.00    -0.169 F 
ATOM     34  F   UNL d   1      26.749  -6.242  -2.751  0.00  0.00    -0.169 F 
ATOM     35  F   UNL d   1      27.590  -4.831  -4.167  0.00  0.00    -0.169 F 
ENDBRANCH  25  32
ENDBRANCH   1  21
TORSDOF 6
ENDMDL
MODEL 4
REMARK VINA RESULT:    -7.607      9.552     12.286
REMARK INTER + INTRA:         -11.003
REMARK INTER:                  -9.397
REMARK INTRA:                  -1.606
REMARK CONF_INDEPENDENT:        1.790
REMARK UNBOUND:                -1.606
REMARK  6 active torsions:
REMARK  status: ('A' for Active; 'I' for Inactive)
REMARK    1  A    between atoms: C_4  and  C_5 
REMARK    2  A    between atoms: C_12  and  C_13 
REMARK       I    between atoms: C_13  and  N_15 
REMARK    3  A    between atoms: N_15  and  N_16 
REMARK    4  A    between atoms: N_16  and  C_17 
REMARK    5  A    between atoms: C_17  and  N_19 
REMARK    6  A    between atoms: N_19  and  C_20 
ROOT
ATOM      1  C   UNL d   1      28.459 -14.770  -5.665  0.00  0.00     0.275 C 
ATOM      2  O   UNL d   1      27.365 -15.201  -6.054  0.00  0.00    -0.266 OA
ATOM      3  N   UNL d   1      28.530 -13.881  -4.600  0.00  0.00    -0.263 N 
ATOM      4  H   UNL d   1      29.408 -13.508  -4.244  0.00  0.00     0.190 HD
ENDROOT
BRANCH   3   5
ATOM      5  N   UNL d   1      27.342 -13.405  -3.908  0.00  0.00    -0.273 N 
ATOM      6  H   UNL d   1      27.349 -12.418  -3.654  0.00  0.00     0.189 HD
BRANCH   5   7
ATOM      7  C   UNL d   1      26.273 -14.291  -3.693  0.00  0.00     0.191 C 
ATOM      8  S   UNL d   1      24.687 -13.706  -3.768  0.00  0.00    -0.039 SA
BRANCH   7   9
ATOM      9  N   UNL d   1      26.657 -15.618  -3.393  0.00  0.00    -0.331 N 
ATOM     10  H   UNL d   1      27.121 -16.151  -4.118  0.00  0.00     0.168 HD
BRANCH   9  11
ATOM     11  C   UNL d   1      26.763 -16.167  -2.056  0.00  0.00     0.045 A 
ATOM     12  C   UNL d   1      27.968 -15.999  -1.358  0.00  0.00     0.030 A 
ATOM     13  C   UNL d   1      28.199 -16.608  -0.128  0.00  0.00     0.003 A 
ATOM     14  C   UNL d   1      27.199 -17.360   0.470  0.00  0.00     0.012 A 
ATOM     15  C   UNL d   1      25.942 -17.472  -0.133  0.00  0.00    -0.024 A 
ATOM     16  C   UNL d   1      24.939 -18.200   0.532  0.00  0.00     0.012 A 
ATOM     17  C   UNL d   1      25.694 -16.868  -1.409  0.00  0.00     0.001 A 
ATOM     18  C   UNL d   1      23.677 -18.352  -0.029  0.00  0.00     0.001 A 
ATOM     19  C   UNL d   1      23.411 -17.785  -1.270  0.00  0.00     0.001 A 
ATOM     20  C   UNL d   1      24.404 -17.064  -1.953  0.00  0.00     0.014 A 
ENDBRANCH   9  11
ENDBRANCH   7   9
ENDBRANCH   5   7
ENDBRANCH   3   5
BRANCH   1  21
ATOM     21  C   UNL d   1      29.727 -15.165  -6.305  0.00  0.00     0.098 A 
ATOM     22  C   UNL d   1      30.615 -14.445  -7.158  0.00  0.00     0.160 A 
ATOM     23  N   UNL d   1      31.691 -15.148  -7.547  0.00  0.00    -0.181 NA
ATOM     24  N   UNL d   1      31.488 -16.353  -6.990  0.00  0.00    -0.240 N 
ATOM     25  C   UNL d   1      32.441 -17.452  -7.138  0.00  0.00     0.221 C 
ATOM     26  C   UNL d   1      30.352 -16.404  -6.209  0.00  0.00     0.138 A 
ATOM     27  C   UNL d   1      32.203 -18.503  -6.032  0.00  0.00     0.061 C 
ATOM     28  C   UNL d   1      30.699 -18.789  -5.944  0.00  0.00     0.081 C 
ATOM     29  C   UNL d   1      30.404 -19.950  -5.016  0.00  0.00     0.032 C 
ATOM     30  N   UNL d   1      30.066 -17.543  -5.522  0.00  0.00    -0.370 N 
ATOM     31  H   UNL d   1      29.214 -17.597  -4.959  0.00  0.00     0.161 HD
BRANCH  25  32
ATOM     32  C   UNL d   1      32.338 -18.099  -8.510  0.00  0.00     0.409 C 
ATOM     33  F   UNL d   1      33.187 -19.135  -8.685  0.00  0.00    -0.169 F 
ATOM     34  F   UNL d   1      31.098 -18.539  -8.801  0.00  0.00    -0.169 F 
ATOM     35  F   UNL d   1      32.656 -17.187  -9.470  0.00  0.00    -0.169 F 
ENDBRANCH  25  32
ENDBRANCH   1  21
TORSDOF 6
ENDMDL
MODEL 5
REMARK VINA RESULT:    -7.175      3.811      4.748
REMARK INTER + INTRA:         -10.473
REMARK INTER:                  -8.964
REMARK INTRA:                  -1.508
REMARK CONF_INDEPENDENT:        1.790
REMARK UNBOUND:                -1.508
REMARK  6 active torsions:
REMARK  status: ('A' for Active; 'I' for Inactive)
REMARK    1  A    between atoms: C_4  and  C_5 
REMARK    2  A    between atoms: C_12  and  C_13 
REMARK       I    between atoms: C_13  and  N_15 
REMARK    3  A    between atoms: N_15  and  N_16 
REMARK    4  A    between atoms: N_16  and  C_17 
REMARK    5  A    between atoms: C_17  and  N_19 
REMARK    6  A    between atoms: N_19  and  C_20 
ROOT
ATOM      1  C   UNL d   1      29.558 -14.333  -0.032  0.00  0.00     0.275 C 
ATOM      2  O   UNL d   1      29.907 -13.938  -1.152  0.00  0.00    -0.266 OA
ATOM      3  N   UNL d   1      29.940 -15.588   0.426  0.00  0.00    -0.263 N 
ATOM      4  H   UNL d   1      29.682 -15.948   1.342  0.00  0.00     0.190 HD
ENDROOT
BRANCH   3   5
ATOM      5  N   UNL d   1      30.743 -16.495  -0.380  0.00  0.00    -0.273 N 
ATOM      6  H   UNL d   1      31.715 -16.217  -0.515  0.00  0.00     0.189 HD
BRANCH   5   7
ATOM      7  C   UNL d   1      30.165 -17.684  -0.855  0.00  0.00     0.191 C 
ATOM      8  S   UNL d   1      31.121 -18.781  -1.720  0.00  0.00    -0.039 SA
BRANCH   7   9
ATOM      9  N   UNL d   1      28.787 -17.822  -0.575  0.00  0.00    -0.331 N 
ATOM     10  H   UNL d   1      28.523 -18.276   0.289  0.00  0.00     0.168 HD
BRANCH   9  11
ATOM     11  C   UNL d   1      27.730 -17.077  -1.231  0.00  0.00     0.045 A 
ATOM     12  C   UNL d   1      28.080 -16.175  -2.246  0.00  0.00     0.030 A 
ATOM     13  C   UNL d   1      27.146 -15.325  -2.832  0.00  0.00     0.003 A 
ATOM     14  C   UNL d   1      25.813 -15.398  -2.456  0.00  0.00     0.012 A 
ATOM     15  C   UNL d   1      25.393 -16.354  -1.525  0.00  0.00    -0.024 A 
ATOM     16  C   UNL d   1      24.024 -16.430  -1.212  0.00  0.00     0.012 A 
ATOM     17  C   UNL d   1      26.344 -17.222  -0.898  0.00  0.00     0.001 A 
ATOM     18  C   UNL d   1      23.555 -17.353  -0.284  0.00  0.00     0.001 A 
ATOM     19  C   UNL d   1      24.457 -18.202   0.347  0.00  0.00     0.001 A 
ATOM     20  C   UNL d   1      25.828 -18.132   0.053  0.00  0.00     0.014 A 
ENDBRANCH   9  11
ENDBRANCH   7   9
ENDBRANCH   5   7
ENDBRANCH   3   5
BRANCH   1  21
ATOM     21  C   UNL d   1      28.726 -13.509   0.863  0.00  0.00     0.098 A 
ATOM     22  C   UNL d   1      27.829 -12.434   0.588  0.00  0.00     0.160 A 
ATOM     23  N   UNL d   1      27.237 -11.923   1.679  0.00  0.00    -0.181 NA
ATOM     24  N   UNL d   1      27.781 -12.629   2.683  0.00  0.00    -0.240 N 
ATOM     25  C   UNL d   1      27.405 -12.417   4.081  0.00  0.00     0.221 C 
ATOM     26  C   UNL d   1      28.646 -13.612   2.247  0.00  0.00     0.138 A 
ATOM     27  C   UNL d   1      27.802 -13.650   4.921  0.00  0.00     0.061 C 
ATOM     28  C   UNL d   1      29.238 -14.050   4.557  0.00  0.00     0.081 C 
ATOM     29  C   UNL d   1      29.767 -15.132   5.477  0.00  0.00     0.032 C 
ATOM     30  N   UNL d   1      29.210 -14.454   3.155  0.00  0.00    -0.370 N 
ATOM     31  H   UNL d   1      29.870 -15.170   2.842  0.00  0.00     0.161 HD
BRANCH  25  32
ATOM     32  C   UNL d   1      28.051 -11.164   4.648  0.00  0.00     0.409 C 
ATOM     33  F   UNL d   1      27.210 -10.110   4.731  0.00  0.00    -0.169 F 
ATOM     34  F   UNL d   1      28.590 -11.347   5.870  0.00  0.00    -0.169 F 
ATOM     35  F   UNL d   1      29.070 -10.768   3.836  0.00  0.00    -0.169 F 
ENDBRANCH  25  32
ENDBRANCH   1  21
TORSDOF 6
ENDMDL
MODEL 6
REMARK VINA RESULT:    -7.042      8.741     11.627
REMARK INTER + INTRA:         -10.462
REMARK INTER:                  -8.831
REMARK INTRA:                  -1.631
REMARK CONF_INDEPENDENT:        1.790
REMARK UNBOUND:                -1.631
REMARK  6 active torsions:
REMARK  status: ('A' for Active; 'I' for Inactive)
REMARK    1  A    between atoms: C_4  and  C_5 
REMARK    2  A    between atoms: C_12  and  C_13 
REMARK       I    between atoms: C_13  and  N_15 
REMARK    3  A    between atoms: N_15  and  N_16 
REMARK    4  A    between atoms: N_16  and  C_17 
REMARK    5  A    between atoms: C_17  and  N_19 
REMARK    6  A    between atoms: N_19  and  C_20 
ROOT
ATOM      1  C   UNL d   1      28.839 -15.969  -4.856  0.00  0.00     0.275 C 
ATOM      2  O   UNL d   1      28.724 -15.573  -6.023  0.00  0.00    -0.266 OA
ATOM      3  N   UNL d   1      28.032 -15.451  -3.851  0.00  0.00    -0.263 N 
ATOM      4  H   UNL d   1      28.088 -15.752  -2.881  0.00  0.00     0.190 HD
ENDROOT
BRANCH   3   5
ATOM      5  N   UNL d   1      27.036 -14.422  -4.111  0.00  0.00    -0.273 N 
ATOM      6  H   UNL d   1      27.188 -13.869  -4.954  0.00  0.00     0.189 HD
BRANCH   5   7
ATOM      7  C   UNL d   1      25.936 -14.299  -3.247  0.00  0.00     0.191 C 
ATOM      8  S   UNL d   1      24.407 -13.969  -3.895  0.00  0.00    -0.039 SA
BRANCH   7   9
ATOM      9  N   UNL d   1      26.245 -14.438  -1.874  0.00  0.00    -0.331 N 
ATOM     10  H   UNL d   1      26.198 -13.611  -1.293  0.00  0.00     0.168 HD
BRANCH   9  11
ATOM     11  C   UNL d   1      26.283 -15.698  -1.158  0.00  0.00     0.045 A 
ATOM     12  C   UNL d   1      27.525 -16.180  -0.719  0.00  0.00     0.030 A 
ATOM     13  C   UNL d   1      27.667 -17.440  -0.145  0.00  0.00     0.003 A 
ATOM     14  C   UNL d   1      26.549 -18.234   0.063  0.00  0.00     0.012 A 
ATOM     15  C   UNL d   1      25.274 -17.758  -0.259  0.00  0.00    -0.024 A 
ATOM     16  C   UNL d   1      24.163 -18.575   0.017  0.00  0.00     0.012 A 
ATOM     17  C   UNL d   1      25.113 -16.472  -0.869  0.00  0.00     0.001 A 
ATOM     18  C   UNL d   1      22.875 -18.155  -0.294  0.00  0.00     0.001 A 
ATOM     19  C   UNL d   1      22.689 -16.916  -0.895  0.00  0.00     0.001 A 
ATOM     20  C   UNL d   1      23.789 -16.092  -1.186  0.00  0.00     0.014 A 
ENDBRANCH   9  11
ENDBRANCH   7   9
ENDBRANCH   5   7
ENDBRANCH   3   5
BRANCH   1  21
ATOM     21  C   UNL d   1      29.829 -16.992  -4.472  0.00  0.00     0.098 A 
ATOM     22  C   UNL d   1      30.373 -17.343  -3.200  0.00  0.00     0.160 A 
ATOM     23  N   UNL d   1      31.263 -18.347  -3.246  0.00  0.00    -0.181 NA
ATOM     24  N   UNL d   1      31.345 -18.627  -4.556  0.00  0.00    -0.240 N 
ATOM     25  C   UNL d   1      32.203 -19.691  -5.075  0.00  0.00     0.221 C 
ATOM     26  C   UNL d   1      30.483 -17.873  -5.326  0.00  0.00     0.138 A 
ATOM     27  C   UNL d   1      31.737 -20.093  -6.492  0.00  0.00     0.061 C 
ATOM     28  C   UNL d   1      31.503 -18.818  -7.312  0.00  0.00     0.081 C 
ATOM     29  C   UNL d   1      31.230 -19.132  -8.769  0.00  0.00     0.032 C 
ATOM     30  N   UNL d   1      30.405 -18.108  -6.664  0.00  0.00    -0.370 N 
ATOM     31  H   UNL d   1      29.785 -17.537  -7.244  0.00  0.00     0.161 HD
BRANCH  25  32
ATOM     32  C   UNL d   1      33.663 -19.269  -5.103  0.00  0.00     0.409 C 
ATOM     33  F   UNL d   1      34.303 -19.607  -6.243  0.00  0.00    -0.169 F 
ATOM     34  F   UNL d   1      33.840 -17.946  -4.916  0.00  0.00    -0.169 F 
ATOM     35  F   UNL d   1      34.336 -19.892  -4.096  0.00  0.00    -0.169 F 
ENDBRANCH  25  32
ENDBRANCH   1  21
TORSDOF 6
ENDMDL
MODEL 7
REMARK VINA RESULT:    -6.856      9.099     11.233
REMARK INTER + INTRA:         -10.628
REMARK INTER:                  -8.646
REMARK INTRA:                  -1.983
REMARK CONF_INDEPENDENT:        1.790
REMARK UNBOUND:                -1.983
REMARK  6 active torsions:
REMARK  status: ('A' for Active; 'I' for Inactive)
REMARK    1  A    between atoms: C_4  and  C_5 
REMARK    2  A    between atoms: C_12  and  C_13 
REMARK       I    between atoms: C_13  and  N_15 
REMARK    3  A    between atoms: N_15  and  N_16 
REMARK    4  A    between atoms: N_16  and  C_17 
REMARK    5  A    between atoms: C_17  and  N_19 
REMARK    6  A    between atoms: N_19  and  C_20 
ROOT
ATOM      1  C   UNL d   1      28.485 -15.241  -5.220  0.00  0.00     0.275 C 
ATOM      2  O   UNL d   1      27.396 -15.208  -5.810  0.00  0.00    -0.266 OA
ATOM      3  N   UNL d   1      28.722 -14.414  -4.129  0.00  0.00    -0.263 N 
ATOM      4  H   UNL d   1      29.598 -14.414  -3.611  0.00  0.00     0.190 HD
ENDROOT
BRANCH   3   5
ATOM      5  N   UNL d   1      27.726 -13.472  -3.639  0.00  0.00    -0.273 N 
ATOM      6  H   UNL d   1      28.059 -12.519  -3.496  0.00  0.00     0.189 HD
BRANCH   5   7
ATOM      7  C   UNL d   1      26.403 -13.906  -3.459  0.00  0.00     0.191 C 
ATOM      8  S   UNL d   1      25.154 -12.763  -3.430  0.00  0.00    -0.039 SA
BRANCH   7   9
ATOM      9  N   UNL d   1      26.258 -15.301  -3.280  0.00  0.00    -0.331 N 
ATOM     10  H   UNL d   1      26.205 -15.881  -4.107  0.00  0.00     0.168 HD
BRANCH   9  11
ATOM     11  C   UNL d   1      26.524 -16.009  -2.042  0.00  0.00     0.045 A 
ATOM     12  C   UNL d   1      27.833 -16.006  -1.540  0.00  0.00     0.030 A 
ATOM     13  C   UNL d   1      28.200 -16.769  -0.435  0.00  0.00     0.003 A 
ATOM     14  C   UNL d   1      27.245 -17.516   0.238  0.00  0.00     0.012 A 
ATOM     15  C   UNL d   1      25.904 -17.470  -0.158  0.00  0.00    -0.024 A 
ATOM     16  C   UNL d   1      24.959 -18.200   0.585  0.00  0.00     0.012 A 
ATOM     17  C   UNL d   1      25.513 -16.706  -1.305  0.00  0.00     0.001 A 
ATOM     18  C   UNL d   1      23.616 -18.199   0.227  0.00  0.00     0.001 A 
ATOM     19  C   UNL d   1      23.209 -17.473  -0.887  0.00  0.00     0.001 A 
ATOM     20  C   UNL d   1      24.142 -16.747  -1.645  0.00  0.00     0.014 A 
ENDBRANCH   9  11
ENDBRANCH   7   9
ENDBRANCH   5   7
ENDBRANCH   3   5
BRANCH   1  21
ATOM     21  C   UNL d   1      29.575 -16.139  -5.641  0.00  0.00     0.098 A 
ATOM     22  C   UNL d   1      30.191 -16.340  -6.912  0.00  0.00     0.160 A 
ATOM     23  N   UNL d   1      31.172 -17.256  -6.905  0.00  0.00    -0.181 NA
ATOM     24  N   UNL d   1      31.171 -17.699  -5.638  0.00  0.00    -0.240 N 
ATOM     25  C   UNL d   1      32.111 -18.713  -5.164  0.00  0.00     0.221 C 
ATOM     26  C   UNL d   1      30.264 -17.038  -4.834  0.00  0.00     0.138 A 
ATOM     27  C   UNL d   1      32.203 -18.662  -3.623  0.00  0.00     0.061 C 
ATOM     28  C   UNL d   1      30.782 -18.595  -3.049  0.00  0.00     0.081 C 
ATOM     29  C   UNL d   1      30.780 -18.737  -1.541  0.00  0.00     0.032 C 
ATOM     30  N   UNL d   1      30.212 -17.331  -3.507  0.00  0.00    -0.370 N 
ATOM     31  H   UNL d   1      29.526 -16.863  -2.909  0.00  0.00     0.161 HD
BRANCH  25  32
ATOM     32  C   UNL d   1      31.708 -20.105  -5.620  0.00  0.00     0.409 C 
ATOM     33  F   UNL d   1      31.582 -20.221  -6.960  0.00  0.00    -0.169 F 
ATOM     34  F   UNL d   1      32.555 -21.070  -5.209  0.00  0.00    -0.169 F 
ATOM     35  F   UNL d   1      30.489 -20.420  -5.100  0.00  0.00    -0.169 F 
ENDBRANCH  25  32
ENDBRANCH   1  21
TORSDOF 6
ENDMDL
MODEL 8
REMARK VINA RESULT:    -6.502      9.743     12.294
REMARK INTER + INTRA:         -10.641
REMARK INTER:                  -8.292
REMARK INTRA:                  -2.349
REMARK CONF_INDEPENDENT:        1.790
REMARK UNBOUND:                -2.349
REMARK  6 active torsions:
REMARK  status: ('A' for Active; 'I' for Inactive)
REMARK    1  A    between atoms: C_4  and  C_5 
REMARK    2  A    between atoms: C_12  and  C_13 
REMARK       I    between atoms: C_13  and  N_15 
REMARK    3  A    between atoms: N_15  and  N_16 
REMARK    4  A    between atoms: N_16  and  C_17 
REMARK    5  A    between atoms: C_17  and  N_19 
REMARK    6  A    between atoms: N_19  and  C_20 
ROOT
ATOM      1  C   UNL d   1      27.956 -14.683  -5.882  0.00  0.00     0.275 C 
ATOM      2  O   UNL d   1      27.110 -15.575  -5.733  0.00  0.00    -0.266 OA
ATOM      3  N   UNL d   1      27.667 -13.370  -5.535  0.00  0.00    -0.263 N 
ATOM      4  H   UNL d   1      28.335 -12.608  -5.635  0.00  0.00     0.190 HD
ENDROOT
BRANCH   3   5
ATOM      5  N   UNL d   1      26.371 -12.976  -5.003  0.00  0.00    -0.273 N 
ATOM      6  H   UNL d   1      25.795 -12.411  -5.625  0.00  0.00     0.189 HD
BRANCH   5   7
ATOM      7  C   UNL d   1      25.984 -13.435  -3.732  0.00  0.00     0.191 C 
ATOM      8  S   UNL d   1      26.155 -12.410  -2.396  0.00  0.00    -0.039 SA
BRANCH   7   9
ATOM      9  N   UNL d   1      25.509 -14.765  -3.705  0.00  0.00    -0.331 N 
ATOM     10  H   UNL d   1      25.324 -15.220  -4.589  0.00  0.00     0.168 HD
BRANCH   9  11
ATOM     11  C   UNL d   1      25.591 -15.650  -2.559  0.00  0.00     0.045 A 
ATOM     12  C   UNL d   1      24.401 -16.018  -1.913  0.00  0.00     0.030 A 
ATOM     13  C   UNL d   1      24.401 -16.752  -0.730  0.00  0.00     0.003 A 
ATOM     14  C   UNL d   1      25.600 -17.191  -0.189  0.00  0.00     0.012 A 
ATOM     15  C   UNL d   1      26.807 -16.942  -0.850  0.00  0.00    -0.024 A 
ATOM     16  C   UNL d   1      27.995 -17.452  -0.294  0.00  0.00     0.012 A 
ATOM     17  C   UNL d   1      26.827 -16.172  -2.057  0.00  0.00     0.001 A 
ATOM     18  C   UNL d   1      29.222 -17.223  -0.904  0.00  0.00     0.001 A 
ATOM     19  C   UNL d   1      29.273 -16.470  -2.072  0.00  0.00     0.001 A 
ATOM     20  C   UNL d   1      28.098 -15.946  -2.634  0.00  0.00     0.014 A 
ENDBRANCH   9  11
ENDBRANCH   7   9
ENDBRANCH   5   7
ENDBRANCH   3   5
BRANCH   1  21
ATOM     21  C   UNL d   1      29.295 -14.961  -6.433  0.00  0.00     0.098 A 
ATOM     22  C   UNL d   1      30.148 -14.181  -7.270  0.00  0.00     0.160 A 
ATOM     23  N   UNL d   1      31.314 -14.775  -7.567  0.00  0.00    -0.181 NA
ATOM     24  N   UNL d   1      31.212 -15.971  -6.966  0.00  0.00    -0.240 N 
ATOM     25  C   UNL d   1      32.287 -16.962  -7.010  0.00  0.00     0.221 C 
ATOM     26  C   UNL d   1      30.044 -16.117  -6.246  0.00  0.00     0.138 A 
ATOM     27  C   UNL d   1      32.100 -17.987  -5.870  0.00  0.00     0.061 C 
ATOM     28  C   UNL d   1      30.633 -18.435  -5.850  0.00  0.00     0.081 C 
ATOM     29  C   UNL d   1      30.412 -19.583  -4.885  0.00  0.00     0.032 C 
ATOM     30  N   UNL d   1      29.845 -17.251  -5.521  0.00  0.00    -0.370 N 
ATOM     31  H   UNL d   1      28.972 -17.377  -5.004  0.00  0.00     0.161 HD
BRANCH  25  32
ATOM     32  C   UNL d   1      32.335 -17.673  -8.353  0.00  0.00     0.409 C 
ATOM     33  F   UNL d   1      31.151 -18.201  -8.729  0.00  0.00    -0.169 F 
ATOM     34  F   UNL d   1      32.765 -16.886  -9.359  0.00  0.00    -0.169 F 
ATOM     35  F   UNL d   1      33.207 -18.717  -8.285  0.00  0.00    -0.169 F 
ENDBRANCH  25  32
ENDBRANCH   1  21
TORSDOF 6
ENDMDL
