MODEL 1
REMARK VINA RESULT:   -29.657      0.000      0.000
REMARK INTER + INTRA:         -32.594
REMARK INTER:                 -31.745
REMARK INTRA:                  -0.850
REMARK CONF_INDEPENDENT:        2.088
REMARK UNBOUND:                -0.850
REMARK  7 active torsions:
REMARK  status: ('A' for Active; 'I' for Inactive)
REMARK    1  A    between atoms: C_2  and  O_3 
REMARK    2  A    between atoms: O_3  and  C_4 
REMARK    3  A    between atoms: C_6  and  C_7 
REMARK    4  A    between atoms: C_7  and  N_8 
REMARK       I    between atoms: N_8  and  C_9 
REMARK       I    between atoms: C_9  and  N_11 
REMARK    5  A    between atoms: N_11  and  N_12 
REMARK       I    between atoms: N_12  and  C_13 
REMARK    6  A    between atoms: C_13  and  C_15 
REMARK    7  A    between atoms: C_15  and  C_16 
ROOT
ATOM      1  N   UNL d   1      25.019 -17.910  -0.852  0.00  0.00    -0.338 N 
ATOM      2  C   UNL d   1      24.991 -16.597  -1.261  0.00  0.00     0.335 C 
ATOM      3  O   UNL d   1      24.190 -15.771  -0.824  0.00  0.00    -0.246 OA
ATOM      4  N   UNL d   1      25.951 -16.279  -2.211  0.00  0.00    -0.249 N 
ATOM      5  H   UNL d   1      25.705 -18.502  -1.284  0.00  0.00     0.164 HD
ATOM      6  H   UNL d   1      26.622 -16.939  -2.596  0.00  0.00     0.192 HD
ENDROOT
BRANCH   1   7
ATOM      7  C   UNL d   1      24.089 -18.466   0.142  0.00  0.00     0.163 C 
BRANCH   7   8
ATOM      8  C   UNL d   1      22.626 -18.540  -0.273  0.00  0.00    -0.035 A 
ATOM      9  C   UNL d   1      21.843 -19.680  -0.071  0.00  0.00     0.066 A 
ATOM     10  C   UNL d   1      20.503 -19.700  -0.437  0.00  0.00     0.164 A 
ATOM     11  N   UNL d   1      19.901 -18.666  -1.052  0.00  0.00    -0.237 NA
ATOM     12  C   UNL d   1      20.656 -17.567  -1.270  0.00  0.00     0.120 A 
ATOM     13  C   UNL d   1      21.995 -17.452  -0.897  0.00  0.00     0.028 A 
BRANCH  10  14
ATOM     14  O   UNL d   1      19.725 -20.822  -0.275  0.00  0.00    -0.335 OA
BRANCH  14  15
ATOM     15  C   UNL d   1      18.443 -20.571   0.311  0.00  0.00     0.173 C 
ATOM     16  C   UNL d   1      18.633 -20.261   1.785  0.00  0.00     0.034 C 
ENDBRANCH  14  15
ENDBRANCH  10  14
ENDBRANCH   7   8
ENDBRANCH   1   7
BRANCH   4  17
ATOM     17  N   UNL d   1      26.032 -14.946  -2.724  0.00  0.00    -0.266 N 
ATOM     18  C   UNL d   1      25.798 -14.729  -4.074  0.00  0.00     0.236 C 
ATOM     19  O   UNL d   1      25.530 -15.668  -4.825  0.00  0.00    -0.272 OA
ATOM     20  H   UNL d   1      26.287 -14.222  -2.055  0.00  0.00     0.190 HD
BRANCH  18  21
ATOM     21  C   UNL d   1      25.897 -13.264  -4.561  0.00  0.00     0.109 C 
BRANCH  21  22
ATOM     22  C   UNL d   1      27.220 -12.996  -5.335  0.00  0.00    -0.006 C 
ATOM     23  C   UNL d   1      27.693 -14.290  -6.022  0.00  0.00     0.005 C 
ATOM     24  C   UNL d   1      29.007 -14.107  -6.771  0.00  0.00     0.000 C 
ATOM     25  C   UNL d   1      28.908 -12.987  -7.796  0.00  0.00     0.000 C 
ATOM     26  C   UNL d   1      28.455 -11.688  -7.137  0.00  0.00     0.000 C 
ATOM     27  C   UNL d   1      27.125 -11.866  -6.385  0.00  0.00     0.005 C 
ENDBRANCH  21  22
ENDBRANCH  18  21
ENDBRANCH   4  17
TORSDOF 7
ENDMDL
MODEL 2
REMARK VINA RESULT:   -29.502      1.157      1.711
REMARK INTER + INTRA:         -32.456
REMARK INTER:                 -31.591
REMARK INTRA:                  -0.865
REMARK CONF_INDEPENDENT:        2.088
REMARK UNBOUND:                -0.865
REMARK  7 active torsions:
REMARK  status: ('A' for Active; 'I' for Inactive)
REMARK    1  A    between atoms: C_2  and  O_3 
REMARK    2  A    between atoms: O_3  and  C_4 
REMARK    3  A    between atoms: C_6  and  C_7 
REMARK    4  A    between atoms: C_7  and  N_8 
REMARK       I    between atoms: N_8  and  C_9 
REMARK       I    between atoms: C_9  and  N_11 
REMARK    5  A    between atoms: N_11  and  N_12 
REMARK       I    between atoms: N_12  and  C_13 
REMARK    6  A    between atoms: C_13  and  C_15 
REMARK    7  A    between atoms: C_15  and  C_16 
ROOT
ATOM      1  N   UNL d   1      24.684 -17.002  -0.240  0.00  0.00    -0.338 N 
ATOM      2  C   UNL d   1      25.241 -16.503  -1.394  0.00  0.00     0.335 C 
ATOM      3  O   UNL d   1      25.306 -17.143  -2.444  0.00  0.00    -0.246 OA
ATOM      4  N   UNL d   1      25.725 -15.208  -1.276  0.00  0.00    -0.249 N 
ATOM      5  H   UNL d   1      24.697 -16.400   0.563  0.00  0.00     0.164 HD
ATOM      6  H   UNL d   1      25.693 -14.656  -0.422  0.00  0.00     0.192 HD
ENDROOT
BRANCH   1   7
ATOM      7  C   UNL d   1      24.115 -18.354  -0.137  0.00  0.00     0.163 C 
BRANCH   7   8
ATOM      8  C   UNL d   1      22.624 -18.479  -0.421  0.00  0.00    -0.035 A 
ATOM      9  C   UNL d   1      21.895 -19.632  -0.119  0.00  0.00     0.066 A 
ATOM     10  C   UNL d   1      20.529 -19.699  -0.367  0.00  0.00     0.164 A 
ATOM     11  N   UNL d   1      19.846 -18.700  -0.956  0.00  0.00    -0.237 NA
ATOM     12  C   UNL d   1      20.548 -17.588  -1.270  0.00  0.00     0.120 A 
ATOM     13  C   UNL d   1      21.911 -17.427  -1.019  0.00  0.00     0.028 A 
BRANCH  10  14
ATOM     14  O   UNL d   1      19.800 -20.835  -0.106  0.00  0.00    -0.335 OA
BRANCH  14  15
ATOM     15  C   UNL d   1      18.670 -20.628   0.748  0.00  0.00     0.173 C 
ATOM     16  C   UNL d   1      17.874 -21.918   0.827  0.00  0.00     0.034 C 
ENDBRANCH  14  15
ENDBRANCH  10  14
ENDBRANCH   7   8
ENDBRANCH   1   7
BRANCH   4  17
ATOM     17  N   UNL d   1      26.333 -14.568  -2.403  0.00  0.00    -0.266 N 
ATOM     18  C   UNL d   1      25.539 -14.208  -3.481  0.00  0.00     0.236 C 
ATOM     19  O   UNL d   1      24.329 -14.439  -3.477  0.00  0.00    -0.272 OA
ATOM     20  H   UNL d   1      27.341 -14.434  -2.353  0.00  0.00     0.190 HD
BRANCH  18  21
ATOM     21  C   UNL d   1      26.259 -13.516  -4.663  0.00  0.00     0.109 C 
BRANCH  21  22
ATOM     22  C   UNL d   1      27.286 -14.459  -5.352  0.00  0.00    -0.006 C 
ATOM     23  C   UNL d   1      28.013 -13.703  -6.478  0.00  0.00     0.005 C 
ATOM     24  C   UNL d   1      29.012 -14.582  -7.221  0.00  0.00     0.000 C 
ATOM     25  C   UNL d   1      30.031 -15.189  -6.268  0.00  0.00     0.000 C 
ATOM     26  C   UNL d   1      29.335 -15.958  -5.149  0.00  0.00     0.000 C 
ATOM     27  C   UNL d   1      28.330 -15.073  -4.391  0.00  0.00     0.005 C 
ENDBRANCH  21  22
ENDBRANCH  18  21
ENDBRANCH   4  17
TORSDOF 7
ENDMDL
MODEL 3
REMARK VINA RESULT:   -29.411      4.886      6.511
REMARK INTER + INTRA:         -32.877
REMARK INTER:                 -31.499
REMARK INTRA:                  -1.378
REMARK CONF_INDEPENDENT:        2.088
REMARK UNBOUND:                -1.378
REMARK  7 active torsions:
REMARK  status: ('A' for Active; 'I' for Inactive)
REMARK    1  A    between atoms: C_2  and  O_3 
REMARK    2  A    between atoms: O_3  and  C_4 
REMARK    3  A    between atoms: C_6  and  C_7 
REMARK    4  A    between atoms: C_7  and  N_8 
REMARK       I    between atoms: N_8  and  C_9 
REMARK       I    between atoms: C_9  and  N_11 
REMARK    5  A    between atoms: N_11  and  N_12 
REMARK       I    between atoms: N_12  and  C_13 
REMARK    6  A    between atoms: C_13  and  C_15 
REMARK    7  A    between atoms: C_15  and  C_16 
ROOT
ATOM      1  N   UNL d   1      24.847 -17.555  -0.147  0.00  0.00    -0.338 N 
ATOM      2  C   UNL d   1      26.106 -17.459   0.396  0.00  0.00     0.335 C 
ATOM      3  O   UNL d   1      26.757 -18.434   0.770  0.00  0.00    -0.246 OA
ATOM      4  N   UNL d   1      26.587 -16.160   0.483  0.00  0.00    -0.249 N 
ATOM      5  H   UNL d   1      24.400 -16.694  -0.405  0.00  0.00     0.164 HD
ATOM      6  H   UNL d   1      26.073 -15.333   0.190  0.00  0.00     0.192 HD
ENDROOT
BRANCH   1   7
ATOM      7  C   UNL d   1      24.142 -18.833  -0.329  0.00  0.00     0.163 C 
BRANCH   7   8
ATOM      8  C   UNL d   1      22.635 -18.747  -0.525  0.00  0.00    -0.035 A 
ATOM      9  C   UNL d   1      21.768 -19.782  -0.162  0.00  0.00     0.066 A 
ATOM     10  C   UNL d   1      20.394 -19.656  -0.330  0.00  0.00     0.164 A 
ATOM     11  N   UNL d   1      19.826 -18.576  -0.897  0.00  0.00    -0.237 NA
ATOM     12  C   UNL d   1      20.659 -17.578  -1.270  0.00  0.00     0.120 A 
ATOM     13  C   UNL d   1      22.043 -17.610  -1.099  0.00  0.00     0.028 A 
BRANCH  10  14
ATOM     14  O   UNL d   1      19.529 -20.674  -0.008  0.00  0.00    -0.335 OA
BRANCH  14  15
ATOM     15  C   UNL d   1      18.748 -20.435   1.168  0.00  0.00     0.173 C 
ATOM     16  C   UNL d   1      17.687 -21.515   1.278  0.00  0.00     0.034 C 
ENDBRANCH  14  15
ENDBRANCH  10  14
ENDBRANCH   7   8
ENDBRANCH   1   7
BRANCH   4  17
ATOM     17  N   UNL d   1      27.887 -15.916   1.031  0.00  0.00    -0.266 N 
ATOM     18  C   UNL d   1      28.183 -14.656   1.527  0.00  0.00     0.236 C 
ATOM     19  O   UNL d   1      27.344 -13.753   1.493  0.00  0.00    -0.272 OA
ATOM     20  H   UNL d   1      28.540 -16.697   1.002  0.00  0.00     0.190 HD
BRANCH  18  21
ATOM     21  C   UNL d   1      29.602 -14.462   2.109  0.00  0.00     0.109 C 
BRANCH  21  22
ATOM     22  C   UNL d   1      29.566 -13.905   3.561  0.00  0.00    -0.006 C 
ATOM     23  C   UNL d   1      28.989 -12.478   3.557  0.00  0.00     0.005 C 
ATOM     24  C   UNL d   1      28.958 -11.857   4.948  0.00  0.00     0.000 C 
ATOM     25  C   UNL d   1      28.177 -12.724   5.924  0.00  0.00     0.000 C 
ATOM     26  C   UNL d   1      28.740 -14.142   5.958  0.00  0.00     0.000 C 
ATOM     27  C   UNL d   1      28.767 -14.777   4.557  0.00  0.00     0.005 C 
ENDBRANCH  21  22
ENDBRANCH  18  21
ENDBRANCH   4  17
TORSDOF 7
ENDMDL
MODEL 4
REMARK VINA RESULT:   -29.295      2.129      2.534
REMARK INTER + INTRA:         -32.534
REMARK INTER:                 -31.383
REMARK INTRA:                  -1.151
REMARK CONF_INDEPENDENT:        2.088
REMARK UNBOUND:                -1.151
REMARK  7 active torsions:
REMARK  status: ('A' for Active; 'I' for Inactive)
REMARK    1  A    between atoms: C_2  and  O_3 
REMARK    2  A    between atoms: O_3  and  C_4 
REMARK    3  A    between atoms: C_6  and  C_7 
REMARK    4  A    between atoms: C_7  and  N_8 
REMARK       I    between atoms: N_8  and  C_9 
REMARK       I    between atoms: C_9  and  N_11 
REMARK    5  A    between atoms: N_11  and  N_12 
REMARK       I    between atoms: N_12  and  C_13 
REMARK    6  A    between atoms: C_13  and  C_15 
REMARK    7  A    between atoms: C_15  and  C_16 
ROOT
ATOM      1  N   UNL d   1      24.765 -17.829  -0.302  0.00  0.00    -0.338 N 
ATOM      2  C   UNL d   1      24.470 -16.599  -0.843  0.00  0.00     0.335 C 
ATOM      3  O   UNL d   1      23.427 -15.990  -0.605  0.00  0.00    -0.246 OA
ATOM      4  N   UNL d   1      25.455 -16.099  -1.682  0.00  0.00    -0.249 N 
ATOM      5  H   UNL d   1      25.637 -18.243  -0.574  0.00  0.00     0.164 HD
ATOM      6  H   UNL d   1      26.324 -16.580  -1.903  0.00  0.00     0.192 HD
ENDROOT
BRANCH   1   7
ATOM      7  C   UNL d   1      23.862 -18.547   0.609  0.00  0.00     0.163 C 
BRANCH   7   8
ATOM      8  C   UNL d   1      22.457 -18.819   0.088  0.00  0.00    -0.035 A 
ATOM      9  C   UNL d   1      21.352 -18.948   0.934  0.00  0.00     0.066 A 
ATOM     10  C   UNL d   1      20.080 -19.167   0.420  0.00  0.00     0.164 A 
ATOM     11  N   UNL d   1      19.844 -19.325  -0.895  0.00  0.00    -0.237 NA
ATOM     12  C   UNL d   1      20.910 -19.221  -1.720  0.00  0.00     0.120 A 
ATOM     13  C   UNL d   1      22.211 -18.963  -1.287  0.00  0.00     0.028 A 
BRANCH  10  14
ATOM     14  O   UNL d   1      18.986 -19.329   1.237  0.00  0.00    -0.335 OA
BRANCH  14  15
ATOM     15  C   UNL d   1      18.863 -20.637   1.806  0.00  0.00     0.173 C 
ATOM     16  C   UNL d   1      17.934 -21.463   0.935  0.00  0.00     0.034 C 
ENDBRANCH  14  15
ENDBRANCH  10  14
ENDBRANCH   7   8
ENDBRANCH   1   7
BRANCH   4  17
ATOM     17  N   UNL d   1      25.275 -14.827  -2.313  0.00  0.00    -0.266 N 
ATOM     18  C   UNL d   1      25.427 -14.731  -3.688  0.00  0.00     0.236 C 
ATOM     19  O   UNL d   1      25.719 -15.722  -4.360  0.00  0.00    -0.272 OA
ATOM     20  H   UNL d   1      25.065 -14.045  -1.696  0.00  0.00     0.190 HD
BRANCH  18  21
ATOM     21  C   UNL d   1      25.215 -13.329  -4.307  0.00  0.00     0.109 C 
BRANCH  21  22
ATOM     22  C   UNL d   1      25.652 -12.193  -3.339  0.00  0.00    -0.006 C 
ATOM     23  C   UNL d   1      27.027 -12.527  -2.732  0.00  0.00     0.005 C 
ATOM     24  C   UNL d   1      27.500 -11.469  -1.743  0.00  0.00     0.000 C 
ATOM     25  C   UNL d   1      27.543 -10.090  -2.385  0.00  0.00     0.000 C 
ATOM     26  C   UNL d   1      26.186  -9.729  -2.982  0.00  0.00     0.000 C 
ATOM     27  C   UNL d   1      25.706 -10.791  -3.986  0.00  0.00     0.005 C 
ENDBRANCH  21  22
ENDBRANCH  18  21
ENDBRANCH   4  17
TORSDOF 7
ENDMDL
MODEL 5
REMARK VINA RESULT:   -29.088      1.684      2.403
REMARK INTER + INTRA:         -32.112
REMARK INTER:                 -31.176
REMARK INTRA:                  -0.936
REMARK CONF_INDEPENDENT:        2.088
REMARK UNBOUND:                -0.936
REMARK  7 active torsions:
REMARK  status: ('A' for Active; 'I' for Inactive)
REMARK    1  A    between atoms: C_2  and  O_3 
REMARK    2  A    between atoms: O_3  and  C_4 
REMARK    3  A    between atoms: C_6  and  C_7 
REMARK    4  A    between atoms: C_7  and  N_8 
REMARK       I    between atoms: N_8  and  C_9 
REMARK       I    between atoms: C_9  and  N_11 
REMARK    5  A    between atoms: N_11  and  N_12 
REMARK       I    between atoms: N_12  and  C_13 
REMARK    6  A    between atoms: C_13  and  C_15 
REMARK    7  A    between atoms: C_15  and  C_16 
ROOT
ATOM      1  N   UNL d   1      24.906 -17.713  -1.228  0.00  0.00    -0.338 N 
ATOM      2  C   UNL d   1      25.225 -16.384  -1.084  0.00  0.00     0.335 C 
ATOM      3  O   UNL d   1      24.889 -15.710  -0.110  0.00  0.00    -0.246 OA
ATOM      4  N   UNL d   1      25.966 -15.862  -2.135  0.00  0.00    -0.249 N 
ATOM      5  H   UNL d   1      25.219 -18.164  -2.069  0.00  0.00     0.164 HD
ATOM      6  H   UNL d   1      26.254 -16.389  -2.956  0.00  0.00     0.192 HD
ENDROOT
BRANCH   1   7
ATOM      7  C   UNL d   1      24.123 -18.467  -0.238  0.00  0.00     0.163 C 
BRANCH   7   8
ATOM      8  C   UNL d   1      22.623 -18.546  -0.486  0.00  0.00    -0.035 A 
ATOM      9  C   UNL d   1      21.869 -19.683  -0.182  0.00  0.00     0.066 A 
ATOM     10  C   UNL d   1      20.496 -19.708  -0.397  0.00  0.00     0.164 A 
ATOM     11  N   UNL d   1      19.828 -18.682  -0.955  0.00  0.00    -0.237 NA
ATOM     12  C   UNL d   1      20.553 -17.586  -1.270  0.00  0.00     0.120 A 
ATOM     13  C   UNL d   1      21.925 -17.466  -1.050  0.00  0.00     0.028 A 
BRANCH  10  14
ATOM     14  O   UNL d   1      19.742 -20.827  -0.134  0.00  0.00    -0.335 OA
BRANCH  14  15
ATOM     15  C   UNL d   1      18.921 -20.725   1.034  0.00  0.00     0.173 C 
ATOM     16  C   UNL d   1      19.791 -20.314   2.208  0.00  0.00     0.034 C 
ENDBRANCH  14  15
ENDBRANCH  10  14
ENDBRANCH   7   8
ENDBRANCH   1   7
BRANCH   4  17
ATOM     17  N   UNL d   1      26.364 -14.487  -2.114  0.00  0.00    -0.266 N 
ATOM     18  C   UNL d   1      25.792 -13.607  -3.019  0.00  0.00     0.236 C 
ATOM     19  O   UNL d   1      24.957 -13.998  -3.837  0.00  0.00    -0.272 OA
ATOM     20  H   UNL d   1      27.080 -14.238  -1.434  0.00  0.00     0.190 HD
BRANCH  18  21
ATOM     21  C   UNL d   1      26.263 -12.136  -2.939  0.00  0.00     0.109 C 
BRANCH  21  22
ATOM     22  C   UNL d   1      25.620 -11.256  -4.049  0.00  0.00    -0.006 C 
ATOM     23  C   UNL d   1      25.803  -9.767  -3.705  0.00  0.00     0.005 C 
ATOM     24  C   UNL d   1      25.162  -8.847  -4.736  0.00  0.00     0.000 C 
ATOM     25  C   UNL d   1      25.698  -9.122  -6.133  0.00  0.00     0.000 C 
ATOM     26  C   UNL d   1      25.514 -10.591  -6.504  0.00  0.00     0.000 C 
ATOM     27  C   UNL d   1      26.166 -11.524  -5.470  0.00  0.00     0.005 C 
ENDBRANCH  21  22
ENDBRANCH  18  21
ENDBRANCH   4  17
TORSDOF 7
ENDMDL
MODEL 6
REMARK VINA RESULT:   -28.050      3.015      3.735
REMARK INTER + INTRA:         -31.631
REMARK INTER:                 -30.138
REMARK INTRA:                  -1.493
REMARK CONF_INDEPENDENT:        2.088
REMARK UNBOUND:                -1.493
REMARK  7 active torsions:
REMARK  status: ('A' for Active; 'I' for Inactive)
REMARK    1  A    between atoms: C_2  and  O_3 
REMARK    2  A    between atoms: O_3  and  C_4 
REMARK    3  A    between atoms: C_6  and  C_7 
REMARK    4  A    between atoms: C_7  and  N_8 
REMARK       I    between atoms: N_8  and  C_9 
REMARK       I    between atoms: C_9  and  N_11 
REMARK    5  A    between atoms: N_11  and  N_12 
REMARK       I    between atoms: N_12  and  C_13 
REMARK    6  A    between atoms: C_13  and  C_15 
REMARK    7  A    between atoms: C_15  and  C_16 
ROOT
ATOM      1  N   UNL d   1      24.791 -17.223  -0.595  0.00  0.00    -0.338 N 
ATOM      2  C   UNL d   1      26.110 -17.502  -0.864  0.00  0.00     0.335 C 
ATOM      3  O   UNL d   1      26.714 -18.454  -0.369  0.00  0.00    -0.246 OA
ATOM      4  N   UNL d   1      26.707 -16.617  -1.750  0.00  0.00    -0.249 N 
ATOM      5  H   UNL d   1      24.401 -16.413  -1.042  0.00  0.00     0.164 HD
ATOM      6  H   UNL d   1      26.239 -15.818  -2.170  0.00  0.00     0.192 HD
ENDROOT
BRANCH   1   7
ATOM      7  C   UNL d   1      23.966 -18.027   0.319  0.00  0.00     0.163 C 
BRANCH   7   8
ATOM      8  C   UNL d   1      22.527 -18.271  -0.114  0.00  0.00    -0.035 A 
ATOM      9  C   UNL d   1      21.829 -19.436   0.215  0.00  0.00     0.066 A 
ATOM     10  C   UNL d   1      20.506 -19.611  -0.173  0.00  0.00     0.164 A 
ATOM     11  N   UNL d   1      19.844 -18.714  -0.927  0.00  0.00    -0.237 NA
ATOM     12  C   UNL d   1      20.518 -17.593  -1.268  0.00  0.00     0.120 A 
ATOM     13  C   UNL d   1      21.833 -17.324  -0.884  0.00  0.00     0.028 A 
BRANCH  10  14
ATOM     14  O   UNL d   1      19.813 -20.763   0.113  0.00  0.00    -0.335 OA
BRANCH  14  15
ATOM     15  C   UNL d   1      18.874 -20.635   1.186  0.00  0.00     0.173 C 
ATOM     16  C   UNL d   1      17.701 -21.561   0.922  0.00  0.00     0.034 C 
ENDBRANCH  14  15
ENDBRANCH  10  14
ENDBRANCH   7   8
ENDBRANCH   1   7
BRANCH   4  17
ATOM     17  N   UNL d   1      28.080 -16.790  -2.115  0.00  0.00    -0.266 N 
ATOM     18  C   UNL d   1      28.675 -15.864  -2.959  0.00  0.00     0.236 C 
ATOM     19  O   UNL d   1      28.033 -14.907  -3.395  0.00  0.00    -0.272 OA
ATOM     20  H   UNL d   1      28.542 -17.618  -1.744  0.00  0.00     0.190 HD
BRANCH  18  21
ATOM     21  C   UNL d   1      30.161 -16.109  -3.310  0.00  0.00     0.109 C 
BRANCH  21  22
ATOM     22  C   UNL d   1      30.355 -17.403  -4.152  0.00  0.00    -0.006 C 
ATOM     23  C   UNL d   1      30.353 -17.052  -5.652  0.00  0.00     0.005 C 
ATOM     24  C   UNL d   1      30.503 -18.282  -6.538  0.00  0.00     0.000 C 
ATOM     25  C   UNL d   1      31.763 -19.062  -6.194  0.00  0.00     0.000 C 
ATOM     26  C   UNL d   1      31.782 -19.435  -4.714  0.00  0.00     0.000 C 
ATOM     27  C   UNL d   1      31.637 -18.196  -3.814  0.00  0.00     0.005 C 
ENDBRANCH  21  22
ENDBRANCH  18  21
ENDBRANCH   4  17
TORSDOF 7
ENDMDL
MODEL 7
REMARK VINA RESULT:   -27.880      2.621      3.010
REMARK INTER + INTRA:         -31.567
REMARK INTER:                 -29.968
REMARK INTRA:                  -1.599
REMARK CONF_INDEPENDENT:        2.088
REMARK UNBOUND:                -1.599
REMARK  7 active torsions:
REMARK  status: ('A' for Active; 'I' for Inactive)
REMARK    1  A    between atoms: C_2  and  O_3 
REMARK    2  A    between atoms: O_3  and  C_4 
REMARK    3  A    between atoms: C_6  and  C_7 
REMARK    4  A    between atoms: C_7  and  N_8 
REMARK       I    between atoms: N_8  and  C_9 
REMARK       I    between atoms: C_9  and  N_11 
REMARK    5  A    between atoms: N_11  and  N_12 
REMARK       I    between atoms: N_12  and  C_13 
REMARK    6  A    between atoms: C_13  and  C_15 
REMARK    7  A    between atoms: C_15  and  C_16 
ROOT
ATOM      1  N   UNL d   1      24.390 -17.301   0.107  0.00  0.00    -0.338 N 
ATOM      2  C   UNL d   1      25.752 -17.193  -0.049  0.00  0.00     0.335 C 
ATOM      3  O   UNL d   1      26.538 -18.098   0.230  0.00  0.00    -0.246 OA
ATOM      4  N   UNL d   1      26.169 -15.970  -0.554  0.00  0.00    -0.249 N 
ATOM      5  H   UNL d   1      23.843 -16.496  -0.138  0.00  0.00     0.164 HD
ATOM      6  H   UNL d   1      25.547 -15.200  -0.788  0.00  0.00     0.192 HD
ENDROOT
BRANCH   1   7
ATOM      7  C   UNL d   1      23.731 -18.507   0.632  0.00  0.00     0.163 C 
BRANCH   7   8
ATOM      8  C   UNL d   1      22.332 -18.791   0.102  0.00  0.00    -0.035 A 
ATOM      9  C   UNL d   1      21.227 -18.949   0.943  0.00  0.00     0.066 A 
ATOM     10  C   UNL d   1      19.960 -19.180   0.422  0.00  0.00     0.164 A 
ATOM     11  N   UNL d   1      19.730 -19.323  -0.896  0.00  0.00    -0.237 NA
ATOM     12  C   UNL d   1      20.797 -19.192  -1.716  0.00  0.00     0.120 A 
ATOM     13  C   UNL d   1      22.092 -18.921  -1.275  0.00  0.00     0.028 A 
BRANCH  10  14
ATOM     14  O   UNL d   1      18.866 -19.369   1.233  0.00  0.00    -0.335 OA
BRANCH  14  15
ATOM     15  C   UNL d   1      18.834 -20.639   1.893  0.00  0.00     0.173 C 
ATOM     16  C   UNL d   1      17.987 -21.595   1.072  0.00  0.00     0.034 C 
ENDBRANCH  14  15
ENDBRANCH  10  14
ENDBRANCH   7   8
ENDBRANCH   1   7
BRANCH   4  17
ATOM     17  N   UNL d   1      27.563 -15.722  -0.764  0.00  0.00    -0.266 N 
ATOM     18  C   UNL d   1      27.946 -14.602  -1.485  0.00  0.00     0.236 C 
ATOM     19  O   UNL d   1      27.103 -13.831  -1.947  0.00  0.00    -0.272 OA
ATOM     20  H   UNL d   1      28.204 -16.414  -0.382  0.00  0.00     0.190 HD
BRANCH  18  21
ATOM     21  C   UNL d   1      29.468 -14.392  -1.671  0.00  0.00     0.109 C 
BRANCH  21  22
ATOM     22  C   UNL d   1      30.019 -15.177  -2.896  0.00  0.00    -0.006 C 
ATOM     23  C   UNL d   1      29.756 -16.683  -2.710  0.00  0.00     0.005 C 
ATOM     24  C   UNL d   1      30.304 -17.517  -3.861  0.00  0.00     0.000 C 
ATOM     25  C   UNL d   1      29.740 -17.057  -5.197  0.00  0.00     0.000 C 
ATOM     26  C   UNL d   1      30.001 -15.569  -5.411  0.00  0.00     0.000 C 
ATOM     27  C   UNL d   1      29.443 -14.721  -4.255  0.00  0.00     0.005 C 
ENDBRANCH  21  22
ENDBRANCH  18  21
ENDBRANCH   4  17
TORSDOF 7
ENDMDL
MODEL 8
REMARK VINA RESULT:   -27.374      2.312      2.950
REMARK INTER + INTRA:         -30.531
REMARK INTER:                 -29.462
REMARK INTRA:                  -1.068
REMARK CONF_INDEPENDENT:        2.088
REMARK UNBOUND:                -1.068
REMARK  7 active torsions:
REMARK  status: ('A' for Active; 'I' for Inactive)
REMARK    1  A    between atoms: C_2  and  O_3 
REMARK    2  A    between atoms: O_3  and  C_4 
REMARK    3  A    between atoms: C_6  and  C_7 
REMARK    4  A    between atoms: C_7  and  N_8 
REMARK       I    between atoms: N_8  and  C_9 
REMARK       I    between atoms: C_9  and  N_11 
REMARK    5  A    between atoms: N_11  and  N_12 
REMARK       I    between atoms: N_12  and  C_13 
REMARK    6  A    between atoms: C_13  and  C_15 
REMARK    7  A    between atoms: C_15  and  C_16 
ROOT
ATOM      1  N   UNL d   1      24.614 -16.886  -0.128  0.00  0.00    -0.338 N 
ATOM      2  C   UNL d   1      25.438 -16.369  -1.100  0.00  0.00     0.335 C 
ATOM      3  O   UNL d   1      25.836 -17.022  -2.065  0.00  0.00    -0.246 OA
ATOM      4  N   UNL d   1      25.783 -15.040  -0.902  0.00  0.00    -0.249 N 
ATOM      5  H   UNL d   1      24.361 -16.270   0.623  0.00  0.00     0.164 HD
ATOM      6  H   UNL d   1      25.476 -14.475  -0.114  0.00  0.00     0.192 HD
ENDROOT
BRANCH   1   7
ATOM      7  C   UNL d   1      24.129 -18.274  -0.135  0.00  0.00     0.163 C 
BRANCH   7   8
ATOM      8  C   UNL d   1      22.647 -18.467  -0.424  0.00  0.00    -0.035 A 
ATOM      9  C   UNL d   1      21.971 -19.656  -0.135  0.00  0.00     0.066 A 
ATOM     10  C   UNL d   1      20.611 -19.785  -0.387  0.00  0.00     0.164 A 
ATOM     11  N   UNL d   1      19.883 -18.814  -0.969  0.00  0.00    -0.237 NA
ATOM     12  C   UNL d   1      20.533 -17.668  -1.271  0.00  0.00     0.120 A 
ATOM     13  C   UNL d   1      21.886 -17.445  -1.014  0.00  0.00     0.028 A 
BRANCH  10  14
ATOM     14  O   UNL d   1      19.936 -20.957  -0.138  0.00  0.00    -0.335 OA
BRANCH  14  15
ATOM     15  C   UNL d   1      18.712 -20.790   0.586  0.00  0.00     0.173 C 
ATOM     16  C   UNL d   1      19.017 -20.119   1.913  0.00  0.00     0.034 C 
ENDBRANCH  14  15
ENDBRANCH  10  14
ENDBRANCH   7   8
ENDBRANCH   1   7
BRANCH   4  17
ATOM     17  N   UNL d   1      26.639 -14.378  -1.839  0.00  0.00    -0.266 N 
ATOM     18  C   UNL d   1      27.691 -13.611  -1.364  0.00  0.00     0.236 C 
ATOM     19  O   UNL d   1      27.888 -13.493  -0.154  0.00  0.00    -0.272 OA
ATOM     20  H   UNL d   1      26.402 -14.494  -2.823  0.00  0.00     0.190 HD
BRANCH  18  21
ATOM     21  C   UNL d   1      28.579 -12.928  -2.431  0.00  0.00     0.109 C 
BRANCH  21  22
ATOM     22  C   UNL d   1      27.867 -11.712  -3.089  0.00  0.00    -0.006 C 
ATOM     23  C   UNL d   1      26.356 -11.988  -3.195  0.00  0.00     0.005 C 
ATOM     24  C   UNL d   1      25.601 -10.848  -3.866  0.00  0.00     0.000 C 
ATOM     25  C   UNL d   1      25.833  -9.528  -3.145  0.00  0.00     0.000 C 
ATOM     26  C   UNL d   1      27.325  -9.225  -3.041  0.00  0.00     0.000 C 
ATOM     27  C   UNL d   1      28.092 -10.369  -2.357  0.00  0.00     0.005 C 
ENDBRANCH  21  22
ENDBRANCH  18  21
ENDBRANCH   4  17
TORSDOF 7
ENDMDL
MODEL 9
REMARK VINA RESULT:   -26.979      4.735      5.477
REMARK INTER + INTRA:         -30.502
REMARK INTER:                 -29.067
REMARK INTRA:                  -1.435
REMARK CONF_INDEPENDENT:        2.088
REMARK UNBOUND:                -1.435
REMARK  7 active torsions:
REMARK  status: ('A' for Active; 'I' for Inactive)
REMARK    1  A    between atoms: C_2  and  O_3 
REMARK    2  A    between atoms: O_3  and  C_4 
REMARK    3  A    between atoms: C_6  and  C_7 
REMARK    4  A    between atoms: C_7  and  N_8 
REMARK       I    between atoms: N_8  and  C_9 
REMARK       I    between atoms: C_9  and  N_11 
REMARK    5  A    between atoms: N_11  and  N_12 
REMARK       I    between atoms: N_12  and  C_13 
REMARK    6  A    between atoms: C_13  and  C_15 
REMARK    7  A    between atoms: C_15  and  C_16 
ROOT
ATOM      1  N   UNL d   1      24.808 -17.598   0.195  0.00  0.00    -0.338 N 
ATOM      2  C   UNL d   1      26.166 -17.402   0.098  0.00  0.00     0.335 C 
ATOM      3  O   UNL d   1      26.943 -18.257  -0.327  0.00  0.00    -0.246 OA
ATOM      4  N   UNL d   1      26.589 -16.150   0.519  0.00  0.00    -0.249 N 
ATOM      5  H   UNL d   1      24.269 -16.839   0.570  0.00  0.00     0.164 HD
ATOM      6  H   UNL d   1      25.974 -15.425   0.881  0.00  0.00     0.192 HD
ENDROOT
BRANCH   1   7
ATOM      7  C   UNL d   1      24.144 -18.852  -0.190  0.00  0.00     0.163 C 
BRANCH   7   8
ATOM      8  C   UNL d   1      22.647 -18.766  -0.454  0.00  0.00    -0.035 A 
ATOM      9  C   UNL d   1      21.767 -19.808  -0.146  0.00  0.00     0.066 A 
ATOM     10  C   UNL d   1      20.402 -19.681  -0.375  0.00  0.00     0.164 A 
ATOM     11  N   UNL d   1      19.858 -18.594  -0.951  0.00  0.00    -0.237 NA
ATOM     12  C   UNL d   1      20.705 -17.589  -1.270  0.00  0.00     0.120 A 
ATOM     13  C   UNL d   1      22.080 -17.621  -1.037  0.00  0.00     0.028 A 
BRANCH  10  14
ATOM     14  O   UNL d   1      19.525 -20.706  -0.109  0.00  0.00    -0.335 OA
BRANCH  14  15
ATOM     15  C   UNL d   1      18.466 -20.357   0.788  0.00  0.00     0.173 C 
ATOM     16  C   UNL d   1      19.016 -20.317   2.202  0.00  0.00     0.034 C 
ENDBRANCH  14  15
ENDBRANCH  10  14
ENDBRANCH   7   8
ENDBRANCH   1   7
BRANCH   4  17
ATOM     17  N   UNL d   1      27.979 -15.814   0.473  0.00  0.00    -0.266 N 
ATOM     18  C   UNL d   1      28.362 -14.498   0.686  0.00  0.00     0.236 C 
ATOM     19  O   UNL d   1      27.520 -13.625   0.906  0.00  0.00    -0.272 OA
ATOM     20  H   UNL d   1      28.619 -16.577   0.258  0.00  0.00     0.190 HD
BRANCH  18  21
ATOM     21  C   UNL d   1      29.879 -14.205   0.627  0.00  0.00     0.109 C 
BRANCH  21  22
ATOM     22  C   UNL d   1      30.297 -13.090   1.628  0.00  0.00    -0.006 C 
ATOM     23  C   UNL d   1      31.189 -13.687   2.731  0.00  0.00     0.005 C 
ATOM     24  C   UNL d   1      31.604 -12.652   3.768  0.00  0.00     0.000 C 
ATOM     25  C   UNL d   1      32.311 -11.470   3.120  0.00  0.00     0.000 C 
ATOM     26  C   UNL d   1      31.440 -10.851   2.031  0.00  0.00     0.000 C 
ATOM     27  C   UNL d   1      31.022 -11.890   0.977  0.00  0.00     0.005 C 
ENDBRANCH  21  22
ENDBRANCH  18  21
ENDBRANCH   4  17
TORSDOF 7
ENDMDL
