MODEL 1
REMARK VINA RESULT:    -9.854      0.000      0.000
REMARK INTER + INTRA:         -14.467
REMARK INTER:                 -12.539
REMARK INTRA:                  -1.928
REMARK CONF_INDEPENDENT:        2.685
REMARK UNBOUND:                -1.928
REMARK  9 active torsions:
REMARK  status: ('A' for Active; 'I' for Inactive)
REMARK    1  A    between atoms: C_2  and  C_3 
REMARK    2  A    between atoms: C_2  and  N_12 
REMARK    3  A    between atoms: C_3  and  C_4 
REMARK    4  A    between atoms: C_4  and  C_5 
REMARK    5  A    between atoms: C_8  and  O_9 
REMARK       I    between atoms: N_12  and  C_13 
REMARK    6  A    between atoms: C_13  and  C_15 
REMARK       I    between atoms: C_15  and  N_17 
REMARK    7  A    between atoms: N_17  and  C_18 
REMARK    8  A    between atoms: C_22  and  C_23 
REMARK    9  A    between atoms: C_23  and  N_24 
ROOT
ATOM      1  C   UNL d   1      27.550 -14.198   1.939  0.00  0.00     0.313 C 
ATOM      2  O   UNL d   1      27.000 -13.124   1.691  0.00  0.00    -0.262 OA
ATOM      3  N   UNL d   1      28.297 -14.475   3.095  0.00  0.00    -0.319 N 
ATOM      4  H   UNL d   1      28.918 -15.281   3.040  0.00  0.00     0.169 HD
ENDROOT
BRANCH   1   5
ATOM      5  C   UNL d   1      27.448 -15.330   0.865  0.00  0.00     0.310 C 
ATOM      6  N   UNL d   1      26.465 -15.130  -0.127  0.00  0.00    -0.349 N 
ATOM      7  H   UNL d   1      25.905 -14.287  -0.067  0.00  0.00     0.163 HD
ATOM      8  O   UNL d   1      28.207 -16.270   0.930  0.00  0.00    -0.262 OA
BRANCH   6   9
ATOM      9  C   UNL d   1      26.444 -15.895  -1.391  0.00  0.00     0.081 C 
ATOM     10  C   UNL d   1      27.550 -15.450  -2.367  0.00  0.00     0.032 C 
BRANCH   9  11
ATOM     11  C   UNL d   1      26.622 -17.384  -1.089  0.00  0.00     0.029 C 
BRANCH  11  12
ATOM     12  C   UNL d   1      25.700 -17.914   0.007  0.00  0.00     0.040 C 
BRANCH  12  13
ATOM     13  C   UNL d   1      24.239 -17.854  -0.362  0.00  0.00    -0.058 A 
ATOM     14  C   UNL d   1      23.528 -16.646  -0.457  0.00  0.00     0.010 A 
ATOM     15  C   UNL d   1      22.162 -16.639  -0.720  0.00  0.00     0.037 A 
ATOM     16  C   UNL d   1      21.503 -17.848  -0.892  0.00  0.00     0.065 A 
ATOM     17  C   UNL d   1      22.187 -19.054  -0.806  0.00  0.00     0.037 A 
ATOM     18  C   UNL d   1      23.555 -19.060  -0.543  0.00  0.00     0.010 A 
BRANCH  16  19
ATOM     19  O   UNL d   1      20.167 -17.900  -1.150  0.00  0.00    -0.361 OA
ATOM     20  H   UNL d   1      19.925 -17.134  -1.696  0.00  0.00     0.217 HD
ENDBRANCH  16  19
ENDBRANCH  12  13
ENDBRANCH  11  12
ENDBRANCH   9  11
ENDBRANCH   6   9
ENDBRANCH   1   5
BRANCH   3  21
ATOM     21  C   UNL d   1      28.305 -13.687   4.294  0.00  0.00     0.035 C 
ATOM     22  C   UNL d   1      27.821 -12.412   4.422  0.00  0.00     0.029 C 
ATOM     23  C   UNL d   1      28.047 -11.693   5.629  0.00  0.00     0.003 C 
ATOM     24  C   UNL d   1      28.853 -12.198   6.677  0.00  0.00     0.009 C 
ATOM     25  C   UNL d   1      29.417 -13.451   6.528  0.00  0.00    -0.030 C 
ATOM     26  C   UNL d   1      28.968 -14.152   5.411  0.00  0.00     0.038 C 
BRANCH  25  27
ATOM     27  C   UNL d   1      30.439 -14.087   7.455  0.00  0.00     0.273 C 
BRANCH  27  28
ATOM     28  N   UNL d   1      29.959 -14.554   8.880  0.00  0.00    -0.067 N 
ATOM     29  C   UNL d   1      28.518 -14.214   9.291  0.00  0.00     0.235 C 
ATOM     30  C   UNL d   1      28.622 -13.026  10.221  0.00  0.00     0.029 C 
ATOM     31  C   UNL d   1      29.961 -13.252  10.932  0.00  0.00     0.029 C 
ATOM     32  C   UNL d   1      30.844 -14.145  10.048  0.00  0.00     0.235 C 
ATOM     33  H   UNL d   1      30.012 -15.579   8.826  0.00  0.00     0.280 HD
ENDBRANCH  27  28
ENDBRANCH  25  27
ENDBRANCH   3  21
TORSDOF 9
ENDMDL
MODEL 2
REMARK VINA RESULT:    -9.628      1.231      1.820
REMARK INTER + INTRA:         -14.286
REMARK INTER:                 -12.313
REMARK INTRA:                  -1.973
REMARK CONF_INDEPENDENT:        2.685
REMARK UNBOUND:                -1.973
REMARK  9 active torsions:
REMARK  status: ('A' for Active; 'I' for Inactive)
REMARK    1  A    between atoms: C_2  and  C_3 
REMARK    2  A    between atoms: C_2  and  N_12 
REMARK    3  A    between atoms: C_3  and  C_4 
REMARK    4  A    between atoms: C_4  and  C_5 
REMARK    5  A    between atoms: C_8  and  O_9 
REMARK       I    between atoms: N_12  and  C_13 
REMARK    6  A    between atoms: C_13  and  C_15 
REMARK       I    between atoms: C_15  and  N_17 
REMARK    7  A    between atoms: N_17  and  C_18 
REMARK    8  A    between atoms: C_22  and  C_23 
REMARK    9  A    between atoms: C_23  and  N_24 
ROOT
ATOM      1  C   UNL d   1      28.340 -14.011   3.335  0.00  0.00     0.313 C 
ATOM      2  O   UNL d   1      29.276 -14.710   3.726  0.00  0.00    -0.262 OA
ATOM      3  N   UNL d   1      27.707 -13.012   4.092  0.00  0.00    -0.319 N 
ATOM      4  H   UNL d   1      26.789 -12.719   3.762  0.00  0.00     0.169 HD
ENDROOT
BRANCH   1   5
ATOM      5  C   UNL d   1      27.780 -14.284   1.901  0.00  0.00     0.310 C 
ATOM      6  N   UNL d   1      28.415 -15.329   1.197  0.00  0.00    -0.349 N 
ATOM      7  H   UNL d   1      29.176 -15.812   1.662  0.00  0.00     0.163 HD
ATOM      8  O   UNL d   1      26.851 -13.622   1.498  0.00  0.00    -0.262 OA
BRANCH   6   9
ATOM      9  C   UNL d   1      27.823 -15.952  -0.006  0.00  0.00     0.081 C 
ATOM     10  C   UNL d   1      28.451 -17.322  -0.328  0.00  0.00     0.032 C 
BRANCH   9  11
ATOM     11  C   UNL d   1      26.319 -16.134   0.201  0.00  0.00     0.029 C 
BRANCH  11  12
ATOM     12  C   UNL d   1      25.842 -17.580   0.082  0.00  0.00     0.040 C 
BRANCH  12  13
ATOM     13  C   UNL d   1      24.367 -17.700  -0.204  0.00  0.00    -0.058 A 
ATOM     14  C   UNL d   1      23.691 -18.932  -0.211  0.00  0.00     0.010 A 
ATOM     15  C   UNL d   1      22.346 -19.007  -0.559  0.00  0.00     0.037 A 
ATOM     16  C   UNL d   1      21.672 -17.843  -0.899  0.00  0.00     0.065 A 
ATOM     17  C   UNL d   1      22.320 -16.614  -0.895  0.00  0.00     0.037 A 
ATOM     18  C   UNL d   1      23.666 -16.540  -0.546  0.00  0.00     0.010 A 
BRANCH  16  19
ATOM     19  O   UNL d   1      20.356 -17.860  -1.250  0.00  0.00    -0.361 OA
ATOM     20  H   UNL d   1      20.028 -16.947  -1.272  0.00  0.00     0.217 HD
ENDBRANCH  16  19
ENDBRANCH  12  13
ENDBRANCH  11  12
ENDBRANCH   9  11
ENDBRANCH   6   9
ENDBRANCH   1   5
BRANCH   3  21
ATOM     21  C   UNL d   1      28.212 -12.438   5.306  0.00  0.00     0.035 C 
ATOM     22  C   UNL d   1      28.427 -11.105   5.539  0.00  0.00     0.029 C 
ATOM     23  C   UNL d   1      29.088 -10.698   6.730  0.00  0.00     0.003 C 
ATOM     24  C   UNL d   1      29.641 -11.621   7.649  0.00  0.00     0.009 C 
ATOM     25  C   UNL d   1      29.504 -12.972   7.387  0.00  0.00    -0.030 C 
ATOM     26  C   UNL d   1      28.666 -13.265   6.313  0.00  0.00     0.038 C 
BRANCH  25  27
ATOM     27  C   UNL d   1      30.168 -14.102   8.155  0.00  0.00     0.273 C 
BRANCH  27  28
ATOM     28  N   UNL d   1      29.346 -14.807   9.298  0.00  0.00    -0.067 N 
ATOM     29  C   UNL d   1      28.233 -13.994   9.975  0.00  0.00     0.235 C 
ATOM     30  C   UNL d   1      28.802 -13.535  11.299  0.00  0.00     0.029 C 
ATOM     31  C   UNL d   1      29.747 -14.677  11.691  0.00  0.00     0.029 C 
ATOM     32  C   UNL d   1      30.164 -15.430  10.419  0.00  0.00     0.235 C 
ATOM     33  H   UNL d   1      28.884 -15.587   8.813  0.00  0.00     0.280 HD
ENDBRANCH  27  28
ENDBRANCH  25  27
ENDBRANCH   3  21
TORSDOF 9
ENDMDL
MODEL 3
REMARK VINA RESULT:    -9.500      6.816      9.518
REMARK INTER + INTRA:         -14.120
REMARK INTER:                 -12.184
REMARK INTRA:                  -1.936
REMARK CONF_INDEPENDENT:        2.685
REMARK UNBOUND:                -1.936
REMARK  9 active torsions:
REMARK  status: ('A' for Active; 'I' for Inactive)
REMARK    1  A    between atoms: C_2  and  C_3 
REMARK    2  A    between atoms: C_2  and  N_12 
REMARK    3  A    between atoms: C_3  and  C_4 
REMARK    4  A    between atoms: C_4  and  C_5 
REMARK    5  A    between atoms: C_8  and  O_9 
REMARK       I    between atoms: N_12  and  C_13 
REMARK    6  A    between atoms: C_13  and  C_15 
REMARK       I    between atoms: C_15  and  N_17 
REMARK    7  A    between atoms: N_17  and  C_18 
REMARK    8  A    between atoms: C_22  and  C_23 
REMARK    9  A    between atoms: C_23  and  N_24 
ROOT
ATOM      1  C   UNL d   1      25.277 -14.930  -3.077  0.00  0.00     0.313 C 
ATOM      2  O   UNL d   1      24.148 -14.438  -3.113  0.00  0.00    -0.262 OA
ATOM      3  N   UNL d   1      26.375 -14.486  -3.831  0.00  0.00    -0.319 N 
ATOM      4  H   UNL d   1      27.149 -15.143  -3.918  0.00  0.00     0.169 HD
ENDROOT
BRANCH   1   5
ATOM      5  C   UNL d   1      25.498 -16.174  -2.156  0.00  0.00     0.310 C 
ATOM      6  N   UNL d   1      24.370 -16.577  -1.411  0.00  0.00    -0.349 N 
ATOM      7  H   UNL d   1      23.518 -16.038  -1.522  0.00  0.00     0.163 HD
ATOM      8  O   UNL d   1      26.580 -16.715  -2.150  0.00  0.00    -0.262 OA
BRANCH   6   9
ATOM      9  C   UNL d   1      24.279 -17.901  -0.760  0.00  0.00     0.081 C 
ATOM     10  C   UNL d   1      25.437 -18.153   0.225  0.00  0.00     0.032 C 
BRANCH   9  11
ATOM     11  C   UNL d   1      22.955 -18.008  -0.002  0.00  0.00     0.029 C 
BRANCH  11  12
ATOM     12  C   UNL d   1      21.739 -18.235  -0.898  0.00  0.00     0.040 C 
BRANCH  12  13
ATOM     13  C   UNL d   1      20.652 -19.043  -0.235  0.00  0.00    -0.058 A 
ATOM     14  C   UNL d   1      20.669 -19.364   1.133  0.00  0.00     0.010 A 
ATOM     15  C   UNL d   1      19.689 -20.180   1.688  0.00  0.00     0.037 A 
ATOM     16  C   UNL d   1      18.684 -20.677   0.871  0.00  0.00     0.065 A 
ATOM     17  C   UNL d   1      18.645 -20.369  -0.483  0.00  0.00     0.037 A 
ATOM     18  C   UNL d   1      19.627 -19.552  -1.038  0.00  0.00     0.010 A 
BRANCH  16  19
ATOM     19  O   UNL d   1      17.701 -21.482   1.362  0.00  0.00    -0.361 OA
ATOM     20  H   UNL d   1      17.304 -21.973   0.625  0.00  0.00     0.217 HD
ENDBRANCH  16  19
ENDBRANCH  12  13
ENDBRANCH  11  12
ENDBRANCH   9  11
ENDBRANCH   6   9
ENDBRANCH   1   5
BRANCH   3  21
ATOM     21  C   UNL d   1      26.458 -13.236  -4.529  0.00  0.00     0.035 C 
ATOM     22  C   UNL d   1      27.226 -12.979  -5.634  0.00  0.00     0.029 C 
ATOM     23  C   UNL d   1      27.336 -11.646  -6.119  0.00  0.00     0.003 C 
ATOM     24  C   UNL d   1      26.770 -10.540  -5.443  0.00  0.00     0.009 C 
ATOM     25  C   UNL d   1      26.061 -10.773  -4.280  0.00  0.00    -0.030 C 
ATOM     26  C   UNL d   1      25.836 -12.121  -4.005  0.00  0.00     0.038 C 
BRANCH  25  27
ATOM     27  C   UNL d   1      25.530  -9.713  -3.329  0.00  0.00     0.273 C 
BRANCH  27  28
ATOM     28  N   UNL d   1      25.007  -8.361  -3.942  0.00  0.00    -0.067 N 
ATOM     29  C   UNL d   1      24.010  -8.448  -5.107  0.00  0.00     0.235 C 
ATOM     30  C   UNL d   1      24.811  -8.173  -6.360  0.00  0.00     0.029 C 
ATOM     31  C   UNL d   1      25.884  -7.189  -5.882  0.00  0.00     0.029 C 
ATOM     32  C   UNL d   1      26.076  -7.365  -4.368  0.00  0.00     0.235 C 
ATOM     33  H   UNL d   1      24.504  -7.923  -3.160  0.00  0.00     0.280 HD
ENDBRANCH  27  28
ENDBRANCH  25  27
ENDBRANCH   3  21
TORSDOF 9
ENDMDL
MODEL 4
REMARK VINA RESULT:    -9.389      6.953     10.506
REMARK INTER + INTRA:         -13.886
REMARK INTER:                 -12.074
REMARK INTRA:                  -1.812
REMARK CONF_INDEPENDENT:        2.685
REMARK UNBOUND:                -1.812
REMARK  9 active torsions:
REMARK  status: ('A' for Active; 'I' for Inactive)
REMARK    1  A    between atoms: C_2  and  C_3 
REMARK    2  A    between atoms: C_2  and  N_12 
REMARK    3  A    between atoms: C_3  and  C_4 
REMARK    4  A    between atoms: C_4  and  C_5 
REMARK    5  A    between atoms: C_8  and  O_9 
REMARK       I    between atoms: N_12  and  C_13 
REMARK    6  A    between atoms: C_13  and  C_15 
REMARK       I    between atoms: C_15  and  N_17 
REMARK    7  A    between atoms: N_17  and  C_18 
REMARK    8  A    between atoms: C_22  and  C_23 
REMARK    9  A    between atoms: C_23  and  N_24 
ROOT
ATOM      1  C   UNL d   1      25.605 -15.282  -3.167  0.00  0.00     0.313 C 
ATOM      2  O   UNL d   1      24.541 -14.745  -3.479  0.00  0.00    -0.262 OA
ATOM      3  N   UNL d   1      26.858 -14.974  -3.720  0.00  0.00    -0.319 N 
ATOM      4  H   UNL d   1      27.587 -15.672  -3.584  0.00  0.00     0.169 HD
ENDROOT
BRANCH   1   5
ATOM      5  C   UNL d   1      25.554 -16.429  -2.105  0.00  0.00     0.310 C 
ATOM      6  N   UNL d   1      24.259 -16.825  -1.710  0.00  0.00    -0.349 N 
ATOM      7  H   UNL d   1      23.472 -16.342  -2.131  0.00  0.00     0.163 HD
ATOM      8  O   UNL d   1      26.592 -16.911  -1.713  0.00  0.00    -0.262 OA
BRANCH   6   9
ATOM      9  C   UNL d   1      23.998 -18.090  -0.992  0.00  0.00     0.081 C 
ATOM     10  C   UNL d   1      24.639 -18.114   0.409  0.00  0.00     0.032 C 
BRANCH   9  11
ATOM     11  C   UNL d   1      22.490 -18.295  -0.849  0.00  0.00     0.029 C 
BRANCH  11  12
ATOM     12  C   UNL d   1      22.029 -18.571   0.581  0.00  0.00     0.040 C 
BRANCH  12  13
ATOM     13  C   UNL d   1      20.729 -19.330   0.653  0.00  0.00    -0.058 A 
ATOM     14  C   UNL d   1      20.279 -19.961   1.825  0.00  0.00     0.010 A 
ATOM     15  C   UNL d   1      19.113 -20.719   1.827  0.00  0.00     0.037 A 
ATOM     16  C   UNL d   1      18.390 -20.845   0.650  0.00  0.00     0.065 A 
ATOM     17  C   UNL d   1      18.813 -20.227  -0.520  0.00  0.00     0.037 A 
ATOM     18  C   UNL d   1      19.981 -19.468  -0.521  0.00  0.00     0.010 A 
BRANCH  16  19
ATOM     19  O   UNL d   1      17.242 -21.577   0.595  0.00  0.00    -0.361 OA
ATOM     20  H   UNL d   1      17.465 -22.486   0.336  0.00  0.00     0.217 HD
ENDBRANCH  16  19
ENDBRANCH  12  13
ENDBRANCH  11  12
ENDBRANCH   9  11
ENDBRANCH   6   9
ENDBRANCH   1   5
BRANCH   3  21
ATOM     21  C   UNL d   1      27.162 -13.811  -4.503  0.00  0.00     0.035 C 
ATOM     22  C   UNL d   1      26.411 -12.667  -4.571  0.00  0.00     0.029 C 
ATOM     23  C   UNL d   1      26.749 -11.661  -5.519  0.00  0.00     0.003 C 
ATOM     24  C   UNL d   1      27.772 -11.833  -6.482  0.00  0.00     0.009 C 
ATOM     25  C   UNL d   1      28.485 -13.017  -6.479  0.00  0.00    -0.030 C 
ATOM     26  C   UNL d   1      28.220 -13.844  -5.389  0.00  0.00     0.038 C 
BRANCH  25  27
ATOM     27  C   UNL d   1      29.493 -13.455  -7.527  0.00  0.00     0.273 C 
BRANCH  27  28
ATOM     28  N   UNL d   1      29.515 -12.690  -8.902  0.00  0.00    -0.067 N 
ATOM     29  C   UNL d   1      30.271 -11.354  -8.959  0.00  0.00     0.235 C 
ATOM     30  C   UNL d   1      29.212 -10.275  -8.900  0.00  0.00     0.029 C 
ATOM     31  C   UNL d   1      28.019 -10.914  -9.620  0.00  0.00     0.029 C 
ATOM     32  C   UNL d   1      28.159 -12.441  -9.548  0.00  0.00     0.235 C 
ATOM     33  H   UNL d   1      30.015 -13.335  -9.527  0.00  0.00     0.280 HD
ENDBRANCH  27  28
ENDBRANCH  25  27
ENDBRANCH   3  21
TORSDOF 9
ENDMDL
MODEL 5
REMARK VINA RESULT:    -9.348      6.995      9.710
REMARK INTER + INTRA:         -13.727
REMARK INTER:                 -12.033
REMARK INTRA:                  -1.694
REMARK CONF_INDEPENDENT:        2.685
REMARK UNBOUND:                -1.694
REMARK  9 active torsions:
REMARK  status: ('A' for Active; 'I' for Inactive)
REMARK    1  A    between atoms: C_2  and  C_3 
REMARK    2  A    between atoms: C_2  and  N_12 
REMARK    3  A    between atoms: C_3  and  C_4 
REMARK    4  A    between atoms: C_4  and  C_5 
REMARK    5  A    between atoms: C_8  and  O_9 
REMARK       I    between atoms: N_12  and  C_13 
REMARK    6  A    between atoms: C_13  and  C_15 
REMARK       I    between atoms: C_15  and  N_17 
REMARK    7  A    between atoms: N_17  and  C_18 
REMARK    8  A    between atoms: C_22  and  C_23 
REMARK    9  A    between atoms: C_23  and  N_24 
ROOT
ATOM      1  C   UNL d   1      25.264 -15.172  -2.889  0.00  0.00     0.313 C 
ATOM      2  O   UNL d   1      24.158 -14.650  -3.042  0.00  0.00    -0.262 OA
ATOM      3  N   UNL d   1      26.439 -14.782  -3.550  0.00  0.00    -0.319 N 
ATOM      4  H   UNL d   1      27.197 -15.462  -3.547  0.00  0.00     0.169 HD
ENDROOT
BRANCH   1   5
ATOM      5  C   UNL d   1      25.361 -16.393  -1.917  0.00  0.00     0.310 C 
ATOM      6  N   UNL d   1      24.127 -16.971  -1.552  0.00  0.00    -0.349 N 
ATOM      7  H   UNL d   1      23.284 -16.555  -1.934  0.00  0.00     0.163 HD
ATOM      8  O   UNL d   1      26.453 -16.775  -1.564  0.00  0.00    -0.262 OA
BRANCH   6   9
ATOM      9  C   UNL d   1      24.027 -18.309  -0.933  0.00  0.00     0.081 C 
ATOM     10  C   UNL d   1      24.651 -18.353   0.476  0.00  0.00     0.032 C 
BRANCH   9  11
ATOM     11  C   UNL d   1      22.557 -18.717  -0.834  0.00  0.00     0.029 C 
BRANCH  11  12
ATOM     12  C   UNL d   1      21.953 -18.550   0.559  0.00  0.00     0.040 C 
BRANCH  12  13
ATOM     13  C   UNL d   1      20.680 -19.333   0.755  0.00  0.00    -0.058 A 
ATOM     14  C   UNL d   1      20.262 -19.804   2.011  0.00  0.00     0.010 A 
ATOM     15  C   UNL d   1      19.122 -20.592   2.136  0.00  0.00     0.037 A 
ATOM     16  C   UNL d   1      18.393 -20.908   0.999  0.00  0.00     0.065 A 
ATOM     17  C   UNL d   1      18.786 -20.450  -0.252  0.00  0.00     0.037 A 
ATOM     18  C   UNL d   1      19.927 -19.661  -0.377  0.00  0.00     0.010 A 
BRANCH  16  19
ATOM     19  O   UNL d   1      17.271 -21.677   1.064  0.00  0.00    -0.361 OA
ATOM     20  H   UNL d   1      17.288 -22.315   0.333  0.00  0.00     0.217 HD
ENDBRANCH  16  19
ENDBRANCH  12  13
ENDBRANCH  11  12
ENDBRANCH   9  11
ENDBRANCH   6   9
ENDBRANCH   1   5
BRANCH   3  21
ATOM     21  C   UNL d   1      26.624 -13.555  -4.271  0.00  0.00     0.035 C 
ATOM     22  C   UNL d   1      25.658 -12.619  -4.529  0.00  0.00     0.029 C 
ATOM     23  C   UNL d   1      25.948 -11.532  -5.400  0.00  0.00     0.003 C 
ATOM     24  C   UNL d   1      27.169 -11.428  -6.109  0.00  0.00     0.009 C 
ATOM     25  C   UNL d   1      28.123 -12.410  -5.922  0.00  0.00    -0.030 C 
ATOM     26  C   UNL d   1      27.828 -13.310  -4.900  0.00  0.00     0.038 C 
BRANCH  25  27
ATOM     27  C   UNL d   1      29.412 -12.565  -6.712  0.00  0.00     0.273 C 
BRANCH  27  28
ATOM     28  N   UNL d   1      29.675 -13.934  -7.442  0.00  0.00    -0.067 N 
ATOM     29  C   UNL d   1      28.980 -15.183  -6.880  0.00  0.00     0.235 C 
ATOM     30  C   UNL d   1      30.037 -15.927  -6.093  0.00  0.00     0.029 C 
ATOM     31  C   UNL d   1      31.328 -15.618  -6.860  0.00  0.00     0.029 C 
ATOM     32  C   UNL d   1      31.135 -14.312  -7.644  0.00  0.00     0.235 C 
ATOM     33  H   UNL d   1      29.287 -13.782  -8.381  0.00  0.00     0.280 HD
ENDBRANCH  27  28
ENDBRANCH  25  27
ENDBRANCH   3  21
TORSDOF 9
ENDMDL
MODEL 6
REMARK VINA RESULT:    -8.914      1.420      2.028
REMARK INTER + INTRA:         -13.585
REMARK INTER:                 -11.598
REMARK INTRA:                  -1.987
REMARK CONF_INDEPENDENT:        2.685
REMARK UNBOUND:                -1.987
REMARK  9 active torsions:
REMARK  status: ('A' for Active; 'I' for Inactive)
REMARK    1  A    between atoms: C_2  and  C_3 
REMARK    2  A    between atoms: C_2  and  N_12 
REMARK    3  A    between atoms: C_3  and  C_4 
REMARK    4  A    between atoms: C_4  and  C_5 
REMARK    5  A    between atoms: C_8  and  O_9 
REMARK       I    between atoms: N_12  and  C_13 
REMARK    6  A    between atoms: C_13  and  C_15 
REMARK       I    between atoms: C_15  and  N_17 
REMARK    7  A    between atoms: N_17  and  C_18 
REMARK    8  A    between atoms: C_22  and  C_23 
REMARK    9  A    between atoms: C_23  and  N_24 
ROOT
ATOM      1  C   UNL d   1      27.894 -14.278   2.137  0.00  0.00     0.313 C 
ATOM      2  O   UNL d   1      27.808 -13.071   1.907  0.00  0.00    -0.262 OA
ATOM      3  N   UNL d   1      28.205 -14.842   3.384  0.00  0.00    -0.319 N 
ATOM      4  H   UNL d   1      28.519 -15.811   3.368  0.00  0.00     0.169 HD
ENDROOT
BRANCH   1   5
ATOM      5  C   UNL d   1      27.686 -15.261   0.939  0.00  0.00     0.310 C 
ATOM      6  N   UNL d   1      27.685 -14.661  -0.338  0.00  0.00    -0.349 N 
ATOM      7  H   UNL d   1      27.811 -13.656  -0.383  0.00  0.00     0.163 HD
ATOM      8  O   UNL d   1      27.564 -16.444   1.165  0.00  0.00    -0.262 OA
BRANCH   6   9
ATOM      9  C   UNL d   1      27.842 -15.441  -1.583  0.00  0.00     0.081 C 
ATOM     10  C   UNL d   1      28.649 -16.736  -1.368  0.00  0.00     0.032 C 
BRANCH   9  11
ATOM     11  C   UNL d   1      26.463 -15.805  -2.134  0.00  0.00     0.029 C 
BRANCH  11  12
ATOM     12  C   UNL d   1      25.302 -15.421  -1.219  0.00  0.00     0.040 C 
BRANCH  12  13
ATOM     13  C   UNL d   1      24.408 -16.584  -0.868  0.00  0.00    -0.058 A 
ATOM     14  C   UNL d   1      24.893 -17.891  -0.694  0.00  0.00     0.010 A 
ATOM     15  C   UNL d   1      24.024 -18.950  -0.452  0.00  0.00     0.037 A 
ATOM     16  C   UNL d   1      22.661 -18.699  -0.380  0.00  0.00     0.065 A 
ATOM     17  C   UNL d   1      22.160 -17.415  -0.546  0.00  0.00     0.037 A 
ATOM     18  C   UNL d   1      23.031 -16.355  -0.788  0.00  0.00     0.010 A 
BRANCH  16  19
ATOM     19  O   UNL d   1      21.766 -19.699  -0.147  0.00  0.00    -0.361 OA
ATOM     20  H   UNL d   1      21.768 -19.904   0.802  0.00  0.00     0.217 HD
ENDBRANCH  16  19
ENDBRANCH  12  13
ENDBRANCH  11  12
ENDBRANCH   9  11
ENDBRANCH   6   9
ENDBRANCH   1   5
BRANCH   3  21
ATOM     21  C   UNL d   1      28.184 -14.152   4.642  0.00  0.00     0.035 C 
ATOM     22  C   UNL d   1      27.470 -13.018   4.927  0.00  0.00     0.029 C 
ATOM     23  C   UNL d   1      27.676 -12.351   6.166  0.00  0.00     0.003 C 
ATOM     24  C   UNL d   1      28.676 -12.744   7.086  0.00  0.00     0.009 C 
ATOM     25  C   UNL d   1      29.462 -13.839   6.776  0.00  0.00    -0.030 C 
ATOM     26  C   UNL d   1      29.045 -14.542   5.647  0.00  0.00     0.038 C 
BRANCH  25  27
ATOM     27  C   UNL d   1      30.685 -14.307   7.545  0.00  0.00     0.273 C 
BRANCH  27  28
ATOM     28  N   UNL d   1      31.839 -13.270   7.809  0.00  0.00    -0.067 N 
ATOM     29  C   UNL d   1      32.240 -13.009   9.268  0.00  0.00     0.235 C 
ATOM     30  C   UNL d   1      31.596 -11.694   9.646  0.00  0.00     0.029 C 
ATOM     31  C   UNL d   1      31.603 -10.908   8.330  0.00  0.00     0.029 C 
ATOM     32  C   UNL d   1      31.666 -11.903   7.162  0.00  0.00     0.235 C 
ATOM     33  H   UNL d   1      32.654 -13.700   7.355  0.00  0.00     0.280 HD
ENDBRANCH  27  28
ENDBRANCH  25  27
ENDBRANCH   3  21
TORSDOF 9
ENDMDL
MODEL 7
REMARK VINA RESULT:    -8.760      6.812      9.584
REMARK INTER + INTRA:         -13.631
REMARK INTER:                 -11.445
REMARK INTRA:                  -2.186
REMARK CONF_INDEPENDENT:        2.685
REMARK UNBOUND:                -2.186
REMARK  9 active torsions:
REMARK  status: ('A' for Active; 'I' for Inactive)
REMARK    1  A    between atoms: C_2  and  C_3 
REMARK    2  A    between atoms: C_2  and  N_12 
REMARK    3  A    between atoms: C_3  and  C_4 
REMARK    4  A    between atoms: C_4  and  C_5 
REMARK    5  A    between atoms: C_8  and  O_9 
REMARK       I    between atoms: N_12  and  C_13 
REMARK    6  A    between atoms: C_13  and  C_15 
REMARK       I    between atoms: C_15  and  N_17 
REMARK    7  A    between atoms: N_17  and  C_18 
REMARK    8  A    between atoms: C_22  and  C_23 
REMARK    9  A    between atoms: C_23  and  N_24 
ROOT
ATOM      1  C   UNL d   1      25.607 -14.674  -2.685  0.00  0.00     0.313 C 
ATOM      2  O   UNL d   1      25.977 -14.007  -1.717  0.00  0.00    -0.262 OA
ATOM      3  N   UNL d   1      25.230 -16.025  -2.637  0.00  0.00    -0.319 N 
ATOM      4  H   UNL d   1      25.223 -16.516  -3.530  0.00  0.00     0.169 HD
ENDROOT
BRANCH   1   5
ATOM      5  C   UNL d   1      25.596 -13.977  -4.085  0.00  0.00     0.310 C 
ATOM      6  N   UNL d   1      26.220 -12.713  -4.131  0.00  0.00    -0.349 N 
ATOM      7  H   UNL d   1      26.616 -12.354  -3.269  0.00  0.00     0.163 HD
ATOM      8  O   UNL d   1      25.090 -14.552  -5.022  0.00  0.00    -0.262 OA
BRANCH   6   9
ATOM      9  C   UNL d   1      26.607 -12.063  -5.402  0.00  0.00     0.081 C 
ATOM     10  C   UNL d   1      25.908 -10.705  -5.604  0.00  0.00     0.032 C 
BRANCH   9  11
ATOM     11  C   UNL d   1      28.121 -11.848  -5.424  0.00  0.00     0.029 C 
BRANCH  11  12
ATOM     12  C   UNL d   1      28.847 -12.632  -6.515  0.00  0.00     0.040 C 
BRANCH  12  13
ATOM     13  C   UNL d   1      29.241 -14.023  -6.088  0.00  0.00    -0.058 A 
ATOM     14  C   UNL d   1      30.014 -14.876  -6.894  0.00  0.00     0.010 A 
ATOM     15  C   UNL d   1      30.286 -16.181  -6.497  0.00  0.00     0.037 A 
ATOM     16  C   UNL d   1      29.787 -16.635  -5.284  0.00  0.00     0.065 A 
ATOM     17  C   UNL d   1      29.024 -15.807  -4.470  0.00  0.00     0.037 A 
ATOM     18  C   UNL d   1      28.752 -14.501  -4.868  0.00  0.00     0.010 A 
BRANCH  16  19
ATOM     19  O   UNL d   1      30.022 -17.904  -4.849  0.00  0.00    -0.361 OA
ATOM     20  H   UNL d   1      30.887 -18.192  -5.182  0.00  0.00     0.217 HD
ENDBRANCH  16  19
ENDBRANCH  12  13
ENDBRANCH  11  12
ENDBRANCH   9  11
ENDBRANCH   6   9
ENDBRANCH   1   5
BRANCH   3  21
ATOM     21  C   UNL d   1      24.930 -16.767  -1.447  0.00  0.00     0.035 C 
ATOM     22  C   UNL d   1      25.844 -17.351  -0.609  0.00  0.00     0.029 C 
ATOM     23  C   UNL d   1      25.393 -18.197   0.442  0.00  0.00     0.003 C 
ATOM     24  C   UNL d   1      24.034 -18.557   0.601  0.00  0.00     0.009 C 
ATOM     25  C   UNL d   1      23.108 -18.041  -0.287  0.00  0.00    -0.030 C 
ATOM     26  C   UNL d   1      23.617 -17.067  -1.143  0.00  0.00     0.038 C 
BRANCH  25  27
ATOM     27  C   UNL d   1      21.646 -18.439  -0.385  0.00  0.00     0.273 C 
BRANCH  27  28
ATOM     28  N   UNL d   1      21.148 -19.658   0.479  0.00  0.00    -0.067 N 
ATOM     29  C   UNL d   1      20.098 -20.588  -0.146  0.00  0.00     0.235 C 
ATOM     30  C   UNL d   1      18.776 -20.199   0.478  0.00  0.00     0.029 C 
ATOM     31  C   UNL d   1      19.172 -19.751   1.890  0.00  0.00     0.029 C 
ATOM     32  C   UNL d   1      20.647 -19.323   1.876  0.00  0.00     0.235 C 
ATOM     33  H   UNL d   1      21.998 -20.222   0.607  0.00  0.00     0.280 HD
ENDBRANCH  27  28
ENDBRANCH  25  27
ENDBRANCH   3  21
TORSDOF 9
ENDMDL
MODEL 8
REMARK VINA RESULT:    -8.105      5.453      8.608
REMARK INTER + INTRA:         -13.570
REMARK INTER:                 -10.789
REMARK INTRA:                  -2.781
REMARK CONF_INDEPENDENT:        2.685
REMARK UNBOUND:                -2.781
REMARK  9 active torsions:
REMARK  status: ('A' for Active; 'I' for Inactive)
REMARK    1  A    between atoms: C_2  and  C_3 
REMARK    2  A    between atoms: C_2  and  N_12 
REMARK    3  A    between atoms: C_3  and  C_4 
REMARK    4  A    between atoms: C_4  and  C_5 
REMARK    5  A    between atoms: C_8  and  O_9 
REMARK       I    between atoms: N_12  and  C_13 
REMARK    6  A    between atoms: C_13  and  C_15 
REMARK       I    between atoms: C_15  and  N_17 
REMARK    7  A    between atoms: N_17  and  C_18 
REMARK    8  A    between atoms: C_22  and  C_23 
REMARK    9  A    between atoms: C_23  and  N_24 
ROOT
ATOM      1  C   UNL d   1      25.357 -14.806  -3.651  0.00  0.00     0.313 C 
ATOM      2  O   UNL d   1      25.534 -15.780  -4.384  0.00  0.00    -0.262 OA
ATOM      3  N   UNL d   1      24.738 -14.845  -2.391  0.00  0.00    -0.319 N 
ATOM      4  H   UNL d   1      24.408 -13.951  -2.031  0.00  0.00     0.169 HD
ENDROOT
BRANCH   1   5
ATOM      5  C   UNL d   1      25.815 -13.408  -4.180  0.00  0.00     0.310 C 
ATOM      6  N   UNL d   1      26.756 -13.441  -5.231  0.00  0.00    -0.349 N 
ATOM      7  H   UNL d   1      27.063 -14.352  -5.555  0.00  0.00     0.163 HD
ATOM      8  O   UNL d   1      25.337 -12.410  -3.690  0.00  0.00    -0.262 OA
BRANCH   6   9
ATOM      9  C   UNL d   1      27.046 -12.264  -6.076  0.00  0.00     0.081 C 
ATOM     10  C   UNL d   1      27.491 -11.042  -5.249  0.00  0.00     0.032 C 
BRANCH   9  11
ATOM     11  C   UNL d   1      28.151 -12.613  -7.075  0.00  0.00     0.029 C 
BRANCH  11  12
ATOM     12  C   UNL d   1      29.493 -12.953  -6.429  0.00  0.00     0.040 C 
BRANCH  12  13
ATOM     13  C   UNL d   1      29.616 -14.404  -6.040  0.00  0.00    -0.058 A 
ATOM     14  C   UNL d   1      29.212 -14.893  -4.786  0.00  0.00     0.010 A 
ATOM     15  C   UNL d   1      29.418 -16.223  -4.436  0.00  0.00     0.037 A 
ATOM     16  C   UNL d   1      30.030 -17.072  -5.347  0.00  0.00     0.065 A 
ATOM     17  C   UNL d   1      30.435 -16.611  -6.593  0.00  0.00     0.037 A 
ATOM     18  C   UNL d   1      30.228 -15.279  -6.943  0.00  0.00     0.010 A 
BRANCH  16  19
ATOM     19  O   UNL d   1      30.259 -18.383  -5.056  0.00  0.00    -0.361 OA
ATOM     20  H   UNL d   1      30.848 -18.754  -5.732  0.00  0.00     0.217 HD
ENDBRANCH  16  19
ENDBRANCH  12  13
ENDBRANCH  11  12
ENDBRANCH   9  11
ENDBRANCH   6   9
ENDBRANCH   1   5
BRANCH   3  21
ATOM     21  C   UNL d   1      24.479 -16.029  -1.624  0.00  0.00     0.035 C 
ATOM     22  C   UNL d   1      23.274 -16.391  -1.084  0.00  0.00     0.029 C 
ATOM     23  C   UNL d   1      23.205 -17.509  -0.206  0.00  0.00     0.003 C 
ATOM     24  C   UNL d   1      24.356 -18.209   0.228  0.00  0.00     0.009 C 
ATOM     25  C   UNL d   1      25.590 -17.803  -0.244  0.00  0.00    -0.030 C 
ATOM     26  C   UNL d   1      25.530 -16.842  -1.252  0.00  0.00     0.038 C 
BRANCH  25  27
ATOM     27  C   UNL d   1      26.940 -18.311   0.232  0.00  0.00     0.273 C 
BRANCH  27  28
ATOM     28  N   UNL d   1      28.154 -17.310   0.227  0.00  0.00    -0.067 N 
ATOM     29  C   UNL d   1      27.967 -15.964   0.944  0.00  0.00     0.235 C 
ATOM     30  C   UNL d   1      27.716 -14.945  -0.146  0.00  0.00     0.029 C 
ATOM     31  C   UNL d   1      28.543 -15.478  -1.321  0.00  0.00     0.029 C 
ATOM     32  C   UNL d   1      28.748 -16.989  -1.137  0.00  0.00     0.235 C 
ATOM     33  H   UNL d   1      28.884 -17.816   0.744  0.00  0.00     0.280 HD
ENDBRANCH  27  28
ENDBRANCH  25  27
ENDBRANCH   3  21
TORSDOF 9
ENDMDL
MODEL 9
REMARK VINA RESULT:    -7.670      5.119      8.410
REMARK INTER + INTRA:         -13.593
REMARK INTER:                 -10.355
REMARK INTRA:                  -3.238
REMARK CONF_INDEPENDENT:        2.685
REMARK UNBOUND:                -3.238
REMARK  9 active torsions:
REMARK  status: ('A' for Active; 'I' for Inactive)
REMARK    1  A    between atoms: C_2  and  C_3 
REMARK    2  A    between atoms: C_2  and  N_12 
REMARK    3  A    between atoms: C_3  and  C_4 
REMARK    4  A    between atoms: C_4  and  C_5 
REMARK    5  A    between atoms: C_8  and  O_9 
REMARK       I    between atoms: N_12  and  C_13 
REMARK    6  A    between atoms: C_13  and  C_15 
REMARK       I    between atoms: C_15  and  N_17 
REMARK    7  A    between atoms: N_17  and  C_18 
REMARK    8  A    between atoms: C_22  and  C_23 
REMARK    9  A    between atoms: C_23  and  N_24 
ROOT
ATOM      1  C   UNL d   1      25.307 -14.463  -3.690  0.00  0.00     0.313 C 
ATOM      2  O   UNL d   1      25.524 -15.356  -4.512  0.00  0.00    -0.262 OA
ATOM      3  N   UNL d   1      24.792 -14.661  -2.399  0.00  0.00    -0.319 N 
ATOM      4  H   UNL d   1      24.403 -13.837  -1.945  0.00  0.00     0.169 HD
ENDROOT
BRANCH   1   5
ATOM      5  C   UNL d   1      25.586 -12.989  -4.131  0.00  0.00     0.310 C 
ATOM      6  N   UNL d   1      26.245 -12.847  -5.370  0.00  0.00    -0.349 N 
ATOM      7  H   UNL d   1      26.491 -13.695  -5.870  0.00  0.00     0.163 HD
ATOM      8  O   UNL d   1      25.213 -12.084  -3.420  0.00  0.00    -0.262 OA
BRANCH   6   9
ATOM      9  C   UNL d   1      26.291 -11.565  -6.104  0.00  0.00     0.081 C 
ATOM     10  C   UNL d   1      26.563 -10.365  -5.176  0.00  0.00     0.032 C 
BRANCH   9  11
ATOM     11  C   UNL d   1      27.388 -11.625  -7.168  0.00  0.00     0.029 C 
BRANCH  11  12
ATOM     12  C   UNL d   1      28.794 -11.823  -6.606  0.00  0.00     0.040 C 
BRANCH  12  13
ATOM     13  C   UNL d   1      28.976 -13.145  -5.905  0.00  0.00    -0.058 A 
ATOM     14  C   UNL d   1      28.810 -14.380  -6.554  0.00  0.00     0.010 A 
ATOM     15  C   UNL d   1      28.907 -15.576  -5.851  0.00  0.00     0.037 A 
ATOM     16  C   UNL d   1      29.174 -15.538  -4.490  0.00  0.00     0.065 A 
ATOM     17  C   UNL d   1      29.345 -14.328  -3.828  0.00  0.00     0.037 A 
ATOM     18  C   UNL d   1      29.248 -13.131  -4.533  0.00  0.00     0.010 A 
BRANCH  16  19
ATOM     19  O   UNL d   1      29.278 -16.679  -3.753  0.00  0.00    -0.361 OA
ATOM     20  H   UNL d   1      30.218 -16.863  -3.594  0.00  0.00     0.217 HD
ENDBRANCH  16  19
ENDBRANCH  12  13
ENDBRANCH  11  12
ENDBRANCH   9  11
ENDBRANCH   6   9
ENDBRANCH   1   5
BRANCH   3  21
ATOM     21  C   UNL d   1      24.708 -15.921  -1.717  0.00  0.00     0.035 C 
ATOM     22  C   UNL d   1      23.561 -16.520  -1.270  0.00  0.00     0.029 C 
ATOM     23  C   UNL d   1      23.647 -17.689  -0.463  0.00  0.00     0.003 C 
ATOM     24  C   UNL d   1      24.880 -18.207  -0.002  0.00  0.00     0.009 C 
ATOM     25  C   UNL d   1      26.045 -17.564  -0.377  0.00  0.00    -0.030 C 
ATOM     26  C   UNL d   1      25.867 -16.563  -1.330  0.00  0.00     0.038 C 
BRANCH  25  27
ATOM     27  C   UNL d   1      27.439 -17.862   0.149  0.00  0.00     0.273 C 
BRANCH  27  28
ATOM     28  N   UNL d   1      28.373 -16.647   0.508  0.00  0.00    -0.067 N 
ATOM     29  C   UNL d   1      27.778 -15.527   1.374  0.00  0.00     0.235 C 
ATOM     30  C   UNL d   1      27.448 -14.398   0.423  0.00  0.00     0.029 C 
ATOM     31  C   UNL d   1      28.530 -14.519  -0.655  0.00  0.00     0.029 C 
ATOM     32  C   UNL d   1      29.056 -15.962  -0.667  0.00  0.00     0.235 C 
ATOM     33  H   UNL d   1      29.123 -17.078   1.063  0.00  0.00     0.280 HD
ENDBRANCH  27  28
ENDBRANCH  25  27
ENDBRANCH   3  21
TORSDOF 9
ENDMDL
