MODEL 1
REMARK VINA RESULT:    -7.368      0.000      0.000
REMARK INTER + INTRA:         -10.234
REMARK INTER:                  -9.456
REMARK INTRA:                  -0.778
REMARK CONF_INDEPENDENT:        2.088
REMARK UNBOUND:                -0.778
REMARK  7 active torsions:
REMARK  status: ('A' for Active; 'I' for Inactive)
REMARK    1  A    between atoms: C_2  and  C_3 
REMARK       I    between atoms: C_2  and  N_11 
REMARK    2  A    between atoms: C_3  and  C_4 
REMARK    3  A    between atoms: C_4  and  C_5 
REMARK    4  A    between atoms: N_11  and  N_12 
REMARK    5  A    between atoms: N_12  and  C_13 
REMARK    6  A    between atoms: C_13  and  N_15 
REMARK       I    between atoms: N_15  and  C_16 
REMARK    7  A    between atoms: C_16  and  C_18 
ROOT
ATOM      1  O   UNL d   1      26.739 -18.243   0.472  0.00  0.00    -0.272 OA
ATOM      2  C   UNL d   1      25.735 -17.900  -0.151  0.00  0.00     0.236 C 
ATOM      3  N   UNL d   1      24.771 -18.824  -0.464  0.00  0.00    -0.268 N 
ATOM      4  H   UNL d   1      24.951 -19.780  -0.146  0.00  0.00     0.190 HD
ENDROOT
BRANCH   3   5
ATOM      5  N   UNL d   1      23.545 -18.625  -1.176  0.00  0.00    -0.273 N 
ATOM      6  H   UNL d   1      23.515 -18.910  -2.148  0.00  0.00     0.189 HD
BRANCH   5   7
ATOM      7  C   UNL d   1      22.476 -18.028  -0.481  0.00  0.00     0.193 C 
ATOM      8  S   UNL d   1      22.220 -16.363  -0.613  0.00  0.00    -0.039 SA
BRANCH   7   9
ATOM      9  N   UNL d   1      21.691 -18.911   0.289  0.00  0.00    -0.302 N 
ATOM     10  C   UNL d   1      20.631 -19.697  -0.195  0.00  0.00     0.228 C 
ATOM     11  O   UNL d   1      20.220 -19.703  -1.353  0.00  0.00    -0.273 OA
ATOM     12  H   UNL d   1      21.892 -18.997   1.275  0.00  0.00     0.171 HD
BRANCH  10  13
ATOM     13  C   UNL d   1      19.904 -20.596   0.763  0.00  0.00     0.078 A 
ATOM     14  C   UNL d   1      18.794 -19.944   1.606  0.00  0.00     0.015 A 
ATOM     15  C   UNL d   1      18.453 -20.974   0.575  0.00  0.00     0.015 A 
ENDBRANCH  10  13
ENDBRANCH   7   9
ENDBRANCH   5   7
ENDBRANCH   3   5
BRANCH   2  16
ATOM     16  C   UNL d   1      25.507 -16.483  -0.605  0.00  0.00     0.109 C 
BRANCH  16  17
ATOM     17  C   UNL d   1      26.723 -15.936  -1.346  0.00  0.00     0.048 C 
BRANCH  17  18
ATOM     18  C   UNL d   1      26.357 -15.002  -2.474  0.00  0.00    -0.058 A 
ATOM     19  C   UNL d   1      25.023 -14.657  -2.737  0.00  0.00     0.007 A 
ATOM     20  C   UNL d   1      24.696 -13.952  -3.895  0.00  0.00     0.001 A 
ATOM     21  C   UNL d   1      25.702 -13.515  -4.753  0.00  0.00     0.000 A 
ATOM     22  C   UNL d   1      27.034 -13.812  -4.475  0.00  0.00     0.001 A 
ATOM     23  C   UNL d   1      27.359 -14.558  -3.345  0.00  0.00     0.007 A 
ENDBRANCH  17  18
ENDBRANCH  16  17
ENDBRANCH   2  16
TORSDOF 7
ENDMDL
MODEL 2
REMARK VINA RESULT:    -6.630      2.709      7.866
REMARK INTER + INTRA:         -10.088
REMARK INTER:                  -8.718
REMARK INTRA:                  -1.370
REMARK CONF_INDEPENDENT:        2.088
REMARK UNBOUND:                -1.370
REMARK  7 active torsions:
REMARK  status: ('A' for Active; 'I' for Inactive)
REMARK    1  A    between atoms: C_2  and  C_3 
REMARK       I    between atoms: C_2  and  N_11 
REMARK    2  A    between atoms: C_3  and  C_4 
REMARK    3  A    between atoms: C_4  and  C_5 
REMARK    4  A    between atoms: N_11  and  N_12 
REMARK    5  A    between atoms: N_12  and  C_13 
REMARK    6  A    between atoms: C_13  and  N_15 
REMARK       I    between atoms: N_15  and  C_16 
REMARK    7  A    between atoms: C_16  and  C_18 
ROOT
ATOM      1  O   UNL d   1      24.727 -18.485   0.676  0.00  0.00    -0.272 OA
ATOM      2  C   UNL d   1      24.620 -17.622  -0.195  0.00  0.00     0.236 C 
ATOM      3  N   UNL d   1      25.667 -16.777  -0.460  0.00  0.00    -0.268 N 
ATOM      4  H   UNL d   1      26.509 -16.922   0.103  0.00  0.00     0.190 HD
ENDROOT
BRANCH   3   5
ATOM      5  N   UNL d   1      25.736 -15.721  -1.423  0.00  0.00    -0.273 N 
ATOM      6  H   UNL d   1      24.913 -15.142  -1.546  0.00  0.00     0.189 HD
BRANCH   5   7
ATOM      7  C   UNL d   1      26.936 -15.573  -2.145  0.00  0.00     0.193 C 
ATOM      8  S   UNL d   1      28.264 -16.547  -1.766  0.00  0.00    -0.039 SA
BRANCH   7   9
ATOM      9  N   UNL d   1      26.914 -14.588  -3.154  0.00  0.00    -0.302 N 
ATOM     10  C   UNL d   1      25.760 -14.080  -3.777  0.00  0.00     0.228 C 
ATOM     11  O   UNL d   1      24.610 -14.445  -3.549  0.00  0.00    -0.273 OA
ATOM     12  H   UNL d   1      27.793 -14.204  -3.471  0.00  0.00     0.171 HD
BRANCH  10  13
ATOM     13  C   UNL d   1      25.917 -13.021  -4.829  0.00  0.00     0.078 A 
ATOM     14  C   UNL d   1      25.931 -11.563  -4.338  0.00  0.00     0.015 A 
ATOM     15  C   UNL d   1      27.160 -12.169  -4.939  0.00  0.00     0.015 A 
ENDBRANCH  10  13
ENDBRANCH   7   9
ENDBRANCH   5   7
ENDBRANCH   3   5
BRANCH   2  16
ATOM     16  C   UNL d   1      23.362 -17.437  -1.001  0.00  0.00     0.109 C 
BRANCH  16  17
ATOM     17  C   UNL d   1      22.711 -18.776  -1.332  0.00  0.00     0.048 C 
BRANCH  17  18
ATOM     18  C   UNL d   1      21.437 -19.021  -0.561  0.00  0.00    -0.058 A 
ATOM     19  C   UNL d   1      21.401 -18.951   0.839  0.00  0.00     0.007 A 
ATOM     20  C   UNL d   1      20.267 -19.368   1.533  0.00  0.00     0.001 A 
ATOM     21  C   UNL d   1      19.133 -19.779   0.836  0.00  0.00     0.000 A 
ATOM     22  C   UNL d   1      19.143 -19.808  -0.556  0.00  0.00     0.001 A 
ATOM     23  C   UNL d   1      20.293 -19.438  -1.251  0.00  0.00     0.007 A 
ENDBRANCH  17  18
ENDBRANCH  16  17
ENDBRANCH   2  16
TORSDOF 7
ENDMDL
MODEL 3
REMARK VINA RESULT:    -6.559      4.727      8.548
REMARK INTER + INTRA:          -9.544
REMARK INTER:                  -8.647
REMARK INTRA:                  -0.897
REMARK CONF_INDEPENDENT:        2.088
REMARK UNBOUND:                -0.897
REMARK  7 active torsions:
REMARK  status: ('A' for Active; 'I' for Inactive)
REMARK    1  A    between atoms: C_2  and  C_3 
REMARK       I    between atoms: C_2  and  N_11 
REMARK    2  A    between atoms: C_3  and  C_4 
REMARK    3  A    between atoms: C_4  and  C_5 
REMARK    4  A    between atoms: N_11  and  N_12 
REMARK    5  A    between atoms: N_12  and  C_13 
REMARK    6  A    between atoms: C_13  and  N_15 
REMARK       I    between atoms: N_15  and  C_16 
REMARK    7  A    between atoms: C_16  and  C_18 
ROOT
ATOM      1  O   UNL d   1      23.633 -14.076  -3.524  0.00  0.00    -0.272 OA
ATOM      2  C   UNL d   1      24.853 -13.996  -3.668  0.00  0.00     0.236 C 
ATOM      3  N   UNL d   1      25.414 -12.841  -4.150  0.00  0.00    -0.268 N 
ATOM      4  H   UNL d   1      24.760 -12.085  -4.367  0.00  0.00     0.190 HD
ENDROOT
BRANCH   3   5
ATOM      5  N   UNL d   1      26.797 -12.555  -4.388  0.00  0.00    -0.273 N 
ATOM      6  H   UNL d   1      27.422 -12.562  -3.591  0.00  0.00     0.189 HD
BRANCH   5   7
ATOM      7  C   UNL d   1      27.185 -12.266  -5.710  0.00  0.00     0.193 C 
ATOM      8  S   UNL d   1      26.423 -11.013  -6.549  0.00  0.00    -0.039 SA
BRANCH   7   9
ATOM      9  N   UNL d   1      28.213 -13.080  -6.228  0.00  0.00    -0.302 N 
ATOM     10  C   UNL d   1      28.187 -14.484  -6.300  0.00  0.00     0.228 C 
ATOM     11  O   UNL d   1      27.275 -15.200  -5.894  0.00  0.00    -0.273 OA
ATOM     12  H   UNL d   1      29.049 -12.635  -6.580  0.00  0.00     0.171 HD
BRANCH  10  13
ATOM     13  C   UNL d   1      29.367 -15.197  -6.893  0.00  0.00     0.078 A 
ATOM     14  C   UNL d   1      30.756 -14.650  -6.522  0.00  0.00     0.015 A 
ATOM     15  C   UNL d   1      30.329 -16.005  -6.053  0.00  0.00     0.015 A 
ENDBRANCH  10  13
ENDBRANCH   7   9
ENDBRANCH   5   7
ENDBRANCH   3   5
BRANCH   2  16
ATOM     16  C   UNL d   1      25.784 -15.133  -3.343  0.00  0.00     0.109 C 
BRANCH  16  17
ATOM     17  C   UNL d   1      25.998 -15.263  -1.838  0.00  0.00     0.048 C 
BRANCH  17  18
ATOM     18  C   UNL d   1      25.163 -16.354  -1.215  0.00  0.00    -0.058 A 
ATOM     19  C   UNL d   1      23.762 -16.328  -1.269  0.00  0.00     0.007 A 
ATOM     20  C   UNL d   1      23.014 -17.239  -0.524  0.00  0.00     0.001 A 
ATOM     21  C   UNL d   1      23.655 -18.231   0.213  0.00  0.00     0.000 A 
ATOM     22  C   UNL d   1      25.046 -18.294   0.236  0.00  0.00     0.001 A 
ATOM     23  C   UNL d   1      25.797 -17.355  -0.468  0.00  0.00     0.007 A 
ENDBRANCH  17  18
ENDBRANCH  16  17
ENDBRANCH   2  16
TORSDOF 7
ENDMDL
MODEL 4
REMARK VINA RESULT:    -6.234      5.133      8.768
REMARK INTER + INTRA:          -9.618
REMARK INTER:                  -8.322
REMARK INTRA:                  -1.296
REMARK CONF_INDEPENDENT:        2.088
REMARK UNBOUND:                -1.296
REMARK  7 active torsions:
REMARK  status: ('A' for Active; 'I' for Inactive)
REMARK    1  A    between atoms: C_2  and  C_3 
REMARK       I    between atoms: C_2  and  N_11 
REMARK    2  A    between atoms: C_3  and  C_4 
REMARK    3  A    between atoms: C_4  and  C_5 
REMARK    4  A    between atoms: N_11  and  N_12 
REMARK    5  A    between atoms: N_12  and  C_13 
REMARK    6  A    between atoms: C_13  and  N_15 
REMARK       I    between atoms: N_15  and  C_16 
REMARK    7  A    between atoms: C_16  and  C_18 
ROOT
ATOM      1  O   UNL d   1      24.803 -14.665  -4.438  0.00  0.00    -0.272 OA
ATOM      2  C   UNL d   1      25.949 -15.075  -4.260  0.00  0.00     0.236 C 
ATOM      3  N   UNL d   1      26.851 -15.068  -5.293  0.00  0.00    -0.268 N 
ATOM      4  H   UNL d   1      26.504 -14.705  -6.184  0.00  0.00     0.190 HD
ENDROOT
BRANCH   3   5
ATOM      5  N   UNL d   1      28.216 -15.500  -5.286  0.00  0.00    -0.273 N 
ATOM      6  H   UNL d   1      28.523 -16.074  -4.510  0.00  0.00     0.189 HD
BRANCH   5   7
ATOM      7  C   UNL d   1      29.039 -15.079  -6.348  0.00  0.00     0.193 C 
ATOM      8  S   UNL d   1      28.856 -13.523  -6.980  0.00  0.00    -0.039 SA
BRANCH   7   9
ATOM      9  N   UNL d   1      29.974 -16.033  -6.800  0.00  0.00    -0.302 N 
ATOM     10  C   UNL d   1      30.385 -17.175  -6.091  0.00  0.00     0.228 C 
ATOM     11  O   UNL d   1      30.009 -17.486  -4.963  0.00  0.00    -0.273 OA
ATOM     12  H   UNL d   1      30.396 -15.900  -7.708  0.00  0.00     0.171 HD
BRANCH  10  13
ATOM     13  C   UNL d   1      31.385 -18.097  -6.726  0.00  0.00     0.078 A 
ATOM     14  C   UNL d   1      30.964 -19.569  -6.873  0.00  0.00     0.015 A 
ATOM     15  C   UNL d   1      31.162 -18.716  -8.087  0.00  0.00     0.015 A 
ENDBRANCH  10  13
ENDBRANCH   7   9
ENDBRANCH   5   7
ENDBRANCH   3   5
BRANCH   2  16
ATOM     16  C   UNL d   1      26.423 -15.606  -2.933  0.00  0.00     0.109 C 
BRANCH  16  17
ATOM     17  C   UNL d   1      25.471 -15.216  -1.807  0.00  0.00     0.048 C 
BRANCH  17  18
ATOM     18  C   UNL d   1      24.672 -16.382  -1.279  0.00  0.00    -0.058 A 
ATOM     19  C   UNL d   1      23.274 -16.328  -1.180  0.00  0.00     0.007 A 
ATOM     20  C   UNL d   1      22.578 -17.336  -0.513  0.00  0.00     0.001 A 
ATOM     21  C   UNL d   1      23.260 -18.442  -0.014  0.00  0.00     0.000 A 
ATOM     22  C   UNL d   1      24.643 -18.527  -0.149  0.00  0.00     0.001 A 
ATOM     23  C   UNL d   1      25.347 -17.498  -0.771  0.00  0.00     0.007 A 
ENDBRANCH  17  18
ENDBRANCH  16  17
ENDBRANCH   2  16
TORSDOF 7
ENDMDL
MODEL 5
REMARK VINA RESULT:    -6.129      5.638      8.853
REMARK INTER + INTRA:          -9.494
REMARK INTER:                  -8.217
REMARK INTRA:                  -1.277
REMARK CONF_INDEPENDENT:        2.088
REMARK UNBOUND:                -1.277
REMARK  7 active torsions:
REMARK  status: ('A' for Active; 'I' for Inactive)
REMARK    1  A    between atoms: C_2  and  C_3 
REMARK       I    between atoms: C_2  and  N_11 
REMARK    2  A    between atoms: C_3  and  C_4 
REMARK    3  A    between atoms: C_4  and  C_5 
REMARK    4  A    between atoms: N_11  and  N_12 
REMARK    5  A    between atoms: N_12  and  C_13 
REMARK    6  A    between atoms: C_13  and  N_15 
REMARK       I    between atoms: N_15  and  C_16 
REMARK    7  A    between atoms: C_16  and  C_18 
ROOT
ATOM      1  O   UNL d   1      24.754 -14.423  -4.544  0.00  0.00    -0.272 OA
ATOM      2  C   UNL d   1      25.275 -13.614  -3.776  0.00  0.00     0.236 C 
ATOM      3  N   UNL d   1      25.251 -12.274  -4.068  0.00  0.00    -0.268 N 
ATOM      4  H   UNL d   1      24.782 -12.017  -4.940  0.00  0.00     0.190 HD
ENDROOT
BRANCH   3   5
ATOM      5  N   UNL d   1      25.796 -11.188  -3.312  0.00  0.00    -0.273 N 
ATOM      6  H   UNL d   1      26.366 -11.417  -2.505  0.00  0.00     0.189 HD
BRANCH   5   7
ATOM      7  C   UNL d   1      25.486  -9.880  -3.730  0.00  0.00     0.193 C 
ATOM      8  S   UNL d   1      25.155  -9.581  -5.360  0.00  0.00    -0.039 SA
BRANCH   7   9
ATOM      9  N   UNL d   1      25.480  -8.907  -2.710  0.00  0.00    -0.302 N 
ATOM     10  C   UNL d   1      26.333  -8.888  -1.592  0.00  0.00     0.228 C 
ATOM     11  O   UNL d   1      27.183  -9.736  -1.332  0.00  0.00    -0.273 OA
ATOM     12  H   UNL d   1      24.812  -8.152  -2.769  0.00  0.00     0.171 HD
BRANCH  10  13
ATOM     13  C   UNL d   1      26.199  -7.767  -0.602  0.00  0.00     0.078 A 
ATOM     14  C   UNL d   1      24.780  -7.472  -0.090  0.00  0.00     0.015 A 
ATOM     15  C   UNL d   1      25.823  -8.005   0.842  0.00  0.00     0.015 A 
ENDBRANCH  10  13
ENDBRANCH   7   9
ENDBRANCH   5   7
ENDBRANCH   3   5
BRANCH   2  16
ATOM     16  C   UNL d   1      25.961 -14.031  -2.503  0.00  0.00     0.109 C 
BRANCH  16  17
ATOM     17  C   UNL d   1      26.316 -15.514  -2.523  0.00  0.00     0.048 C 
BRANCH  17  18
ATOM     18  C   UNL d   1      25.525 -16.325  -1.527  0.00  0.00    -0.058 A 
ATOM     19  C   UNL d   1      26.157 -17.141  -0.578  0.00  0.00     0.007 A 
ATOM     20  C   UNL d   1      25.407 -18.024   0.198  0.00  0.00     0.001 A 
ATOM     21  C   UNL d   1      24.019 -18.040   0.094  0.00  0.00     0.000 A 
ATOM     22  C   UNL d   1      23.378 -17.200  -0.813  0.00  0.00     0.001 A 
ATOM     23  C   UNL d   1      24.128 -16.352  -1.625  0.00  0.00     0.007 A 
ENDBRANCH  17  18
ENDBRANCH  16  17
ENDBRANCH   2  16
TORSDOF 7
ENDMDL
MODEL 6
REMARK VINA RESULT:    -6.076      5.539      9.105
REMARK INTER + INTRA:          -9.365
REMARK INTER:                  -8.164
REMARK INTRA:                  -1.201
REMARK CONF_INDEPENDENT:        2.088
REMARK UNBOUND:                -1.201
REMARK  7 active torsions:
REMARK  status: ('A' for Active; 'I' for Inactive)
REMARK    1  A    between atoms: C_2  and  C_3 
REMARK       I    between atoms: C_2  and  N_11 
REMARK    2  A    between atoms: C_3  and  C_4 
REMARK    3  A    between atoms: C_4  and  C_5 
REMARK    4  A    between atoms: N_11  and  N_12 
REMARK    5  A    between atoms: N_12  and  C_13 
REMARK    6  A    between atoms: C_13  and  N_15 
REMARK       I    between atoms: N_15  and  C_16 
REMARK    7  A    between atoms: C_16  and  C_18 
ROOT
ATOM      1  O   UNL d   1      23.999 -13.760  -4.287  0.00  0.00    -0.272 OA
ATOM      2  C   UNL d   1      24.939 -13.288  -3.648  0.00  0.00     0.236 C 
ATOM      3  N   UNL d   1      25.386 -12.020  -3.916  0.00  0.00    -0.268 N 
ATOM      4  H   UNL d   1      24.891 -11.521  -4.659  0.00  0.00     0.190 HD
ENDROOT
BRANCH   3   5
ATOM      5  N   UNL d   1      26.456 -11.302  -3.290  0.00  0.00    -0.273 N 
ATOM      6  H   UNL d   1      27.358 -11.759  -3.234  0.00  0.00     0.189 HD
BRANCH   5   7
ATOM      7  C   UNL d   1      26.171 -10.021  -2.779  0.00  0.00     0.193 C 
ATOM      8  S   UNL d   1      27.031  -9.444  -1.445  0.00  0.00    -0.039 SA
BRANCH   7   9
ATOM      9  N   UNL d   1      25.155  -9.315  -3.457  0.00  0.00    -0.302 N 
ATOM     10  C   UNL d   1      25.003  -9.238  -4.852  0.00  0.00     0.228 C 
ATOM     11  O   UNL d   1      25.752  -9.752  -5.679  0.00  0.00    -0.273 OA
ATOM     12  H   UNL d   1      24.471  -8.814  -2.909  0.00  0.00     0.171 HD
BRANCH  10  13
ATOM     13  C   UNL d   1      23.854  -8.449  -5.409  0.00  0.00     0.078 A 
ATOM     14  C   UNL d   1      23.789  -6.963  -5.016  0.00  0.00     0.015 A 
ATOM     15  C   UNL d   1      24.046  -7.357  -6.437  0.00  0.00     0.015 A 
ENDBRANCH  10  13
ENDBRANCH   7   9
ENDBRANCH   5   7
ENDBRANCH   3   5
BRANCH   2  16
ATOM     16  C   UNL d   1      25.647 -14.055  -2.563  0.00  0.00     0.109 C 
BRANCH  16  17
ATOM     17  C   UNL d   1      25.645 -15.553  -2.849  0.00  0.00     0.048 C 
BRANCH  17  18
ATOM     18  C   UNL d   1      25.516 -16.393  -1.602  0.00  0.00    -0.058 A 
ATOM     19  C   UNL d   1      26.602 -16.597  -0.740  0.00  0.00     0.007 A 
ATOM     20  C   UNL d   1      26.512 -17.528   0.294  0.00  0.00     0.001 A 
ATOM     21  C   UNL d   1      25.314 -18.200   0.526  0.00  0.00     0.000 A 
ATOM     22  C   UNL d   1      24.215 -17.970  -0.297  0.00  0.00     0.001 A 
ATOM     23  C   UNL d   1      24.318 -17.076  -1.361  0.00  0.00     0.007 A 
ENDBRANCH  17  18
ENDBRANCH  16  17
ENDBRANCH   2  16
TORSDOF 7
ENDMDL
MODEL 7
REMARK VINA RESULT:    -6.076      5.021      9.391
REMARK INTER + INTRA:          -9.360
REMARK INTER:                  -8.164
REMARK INTRA:                  -1.196
REMARK CONF_INDEPENDENT:        2.088
REMARK UNBOUND:                -1.196
REMARK  7 active torsions:
REMARK  status: ('A' for Active; 'I' for Inactive)
REMARK    1  A    between atoms: C_2  and  C_3 
REMARK       I    between atoms: C_2  and  N_11 
REMARK    2  A    between atoms: C_3  and  C_4 
REMARK    3  A    between atoms: C_4  and  C_5 
REMARK    4  A    between atoms: N_11  and  N_12 
REMARK    5  A    between atoms: N_12  and  C_13 
REMARK    6  A    between atoms: C_13  and  N_15 
REMARK       I    between atoms: N_15  and  C_16 
REMARK    7  A    between atoms: C_16  and  C_18 
ROOT
ATOM      1  O   UNL d   1      24.780 -14.543  -4.499  0.00  0.00    -0.272 OA
ATOM      2  C   UNL d   1      25.938 -14.872  -4.243  0.00  0.00     0.236 C 
ATOM      3  N   UNL d   1      26.956 -14.531  -5.096  0.00  0.00    -0.268 N 
ATOM      4  H   UNL d   1      26.681 -14.001  -5.927  0.00  0.00     0.190 HD
ENDROOT
BRANCH   3   5
ATOM      5  N   UNL d   1      28.353 -14.820  -4.976  0.00  0.00    -0.273 N 
ATOM      6  H   UNL d   1      28.775 -14.726  -4.060  0.00  0.00     0.189 HD
BRANCH   5   7
ATOM      7  C   UNL d   1      29.044 -15.195  -6.144  0.00  0.00     0.193 C 
ATOM      8  S   UNL d   1      30.026 -16.570  -6.128  0.00  0.00    -0.039 SA
BRANCH   7   9
ATOM      9  N   UNL d   1      28.844 -14.354  -7.259  0.00  0.00    -0.302 N 
ATOM     10  C   UNL d   1      28.406 -13.019  -7.208  0.00  0.00     0.228 C 
ATOM     11  O   UNL d   1      28.107 -12.407  -6.186  0.00  0.00    -0.273 OA
ATOM     12  H   UNL d   1      29.024 -14.727  -8.180  0.00  0.00     0.171 HD
BRANCH  10  13
ATOM     13  C   UNL d   1      28.256 -12.261  -8.496  0.00  0.00     0.078 A 
ATOM     14  C   UNL d   1      29.130 -11.007  -8.658  0.00  0.00     0.015 A 
ATOM     15  C   UNL d   1      29.355 -12.201  -9.530  0.00  0.00     0.015 A 
ENDBRANCH  10  13
ENDBRANCH   7   9
ENDBRANCH   5   7
ENDBRANCH   3   5
BRANCH   2  16
ATOM     16  C   UNL d   1      26.303 -15.658  -3.012  0.00  0.00     0.109 C 
BRANCH  16  17
ATOM     17  C   UNL d   1      25.495 -15.202  -1.801  0.00  0.00     0.048 C 
BRANCH  17  18
ATOM     18  C   UNL d   1      24.786 -16.337  -1.103  0.00  0.00    -0.058 A 
ATOM     19  C   UNL d   1      25.485 -17.450  -0.617  0.00  0.00     0.007 A 
ATOM     20  C   UNL d   1      24.791 -18.567  -0.152  0.00  0.00     0.001 A 
ATOM     21  C   UNL d   1      23.400 -18.548  -0.091  0.00  0.00     0.000 A 
ATOM     22  C   UNL d   1      22.698 -17.428  -0.529  0.00  0.00     0.001 A 
ATOM     23  C   UNL d   1      23.387 -16.330  -1.040  0.00  0.00     0.007 A 
ENDBRANCH  17  18
ENDBRANCH  16  17
ENDBRANCH   2  16
TORSDOF 7
ENDMDL
MODEL 8
REMARK VINA RESULT:    -5.702      3.781      7.840
REMARK INTER + INTRA:          -9.362
REMARK INTER:                  -7.790
REMARK INTRA:                  -1.572
REMARK CONF_INDEPENDENT:        2.088
REMARK UNBOUND:                -1.572
REMARK  7 active torsions:
REMARK  status: ('A' for Active; 'I' for Inactive)
REMARK    1  A    between atoms: C_2  and  C_3 
REMARK       I    between atoms: C_2  and  N_11 
REMARK    2  A    between atoms: C_3  and  C_4 
REMARK    3  A    between atoms: C_4  and  C_5 
REMARK    4  A    between atoms: N_11  and  N_12 
REMARK    5  A    between atoms: N_12  and  C_13 
REMARK    6  A    between atoms: C_13  and  N_15 
REMARK       I    between atoms: N_15  and  C_16 
REMARK    7  A    between atoms: C_16  and  C_18 
ROOT
ATOM      1  O   UNL d   1      27.438 -14.501  -0.133  0.00  0.00    -0.272 OA
ATOM      2  C   UNL d   1      26.684 -14.942  -1.000  0.00  0.00     0.236 C 
ATOM      3  N   UNL d   1      25.880 -14.088  -1.711  0.00  0.00    -0.268 N 
ATOM      4  H   UNL d   1      25.960 -13.097  -1.470  0.00  0.00     0.190 HD
ENDROOT
BRANCH   3   5
ATOM      5  N   UNL d   1      24.944 -14.403  -2.747  0.00  0.00    -0.273 N 
ATOM      6  H   UNL d   1      24.050 -14.793  -2.471  0.00  0.00     0.189 HD
BRANCH   5   7
ATOM      7  C   UNL d   1      25.340 -14.169  -4.078  0.00  0.00     0.193 C 
ATOM      8  S   UNL d   1      25.906 -15.452  -5.020  0.00  0.00    -0.039 SA
BRANCH   7   9
ATOM      9  N   UNL d   1      25.222 -12.833  -4.515  0.00  0.00    -0.302 N 
ATOM     10  C   UNL d   1      25.906 -11.731  -3.971  0.00  0.00     0.228 C 
ATOM     11  O   UNL d   1      26.681 -11.774  -3.018  0.00  0.00    -0.273 OA
ATOM     12  H   UNL d   1      24.596 -12.631  -5.281  0.00  0.00     0.171 HD
BRANCH  10  13
ATOM     13  C   UNL d   1      25.672 -10.373  -4.565  0.00  0.00     0.078 A 
ATOM     14  C   UNL d   1      26.822  -9.781  -5.398  0.00  0.00     0.015 A 
ATOM     15  C   UNL d   1      25.530 -10.156  -6.054  0.00  0.00     0.015 A 
ENDBRANCH  10  13
ENDBRANCH   7   9
ENDBRANCH   5   7
ENDBRANCH   3   5
BRANCH   2  16
ATOM     16  C   UNL d   1      26.590 -16.409  -1.323  0.00  0.00     0.109 C 
BRANCH  16  17
ATOM     17  C   UNL d   1      25.909 -17.183  -0.199  0.00  0.00     0.048 C 
BRANCH  17  18
ATOM     18  C   UNL d   1      24.474 -17.533  -0.506  0.00  0.00    -0.058 A 
ATOM     19  C   UNL d   1      23.525 -16.544  -0.803  0.00  0.00     0.007 A 
ATOM     20  C   UNL d   1      22.173 -16.873  -0.892  0.00  0.00     0.001 A 
ATOM     21  C   UNL d   1      21.768 -18.200  -0.769  0.00  0.00     0.000 A 
ATOM     22  C   UNL d   1      22.709 -19.196  -0.520  0.00  0.00     0.001 A 
ATOM     23  C   UNL d   1      24.055 -18.863  -0.382  0.00  0.00     0.007 A 
ENDBRANCH  17  18
ENDBRANCH  16  17
ENDBRANCH   2  16
TORSDOF 7
ENDMDL
MODEL 9
REMARK VINA RESULT:    -5.612      3.721      7.769
REMARK INTER + INTRA:          -9.325
REMARK INTER:                  -7.700
REMARK INTRA:                  -1.625
REMARK CONF_INDEPENDENT:        2.088
REMARK UNBOUND:                -1.625
REMARK  7 active torsions:
REMARK  status: ('A' for Active; 'I' for Inactive)
REMARK    1  A    between atoms: C_2  and  C_3 
REMARK       I    between atoms: C_2  and  N_11 
REMARK    2  A    between atoms: C_3  and  C_4 
REMARK    3  A    between atoms: C_4  and  C_5 
REMARK    4  A    between atoms: N_11  and  N_12 
REMARK    5  A    between atoms: N_12  and  C_13 
REMARK    6  A    between atoms: C_13  and  N_15 
REMARK       I    between atoms: N_15  and  C_16 
REMARK    7  A    between atoms: C_16  and  C_18 
ROOT
ATOM      1  O   UNL d   1      28.599 -17.298  -1.617  0.00  0.00    -0.272 OA
ATOM      2  C   UNL d   1      27.734 -16.448  -1.406  0.00  0.00     0.236 C 
ATOM      3  N   UNL d   1      27.549 -15.420  -2.294  0.00  0.00    -0.268 N 
ATOM      4  H   UNL d   1      28.164 -15.421  -3.111  0.00  0.00     0.190 HD
ENDROOT
BRANCH   3   5
ATOM      5  N   UNL d   1      26.606 -14.344  -2.226  0.00  0.00    -0.273 N 
ATOM      6  H   UNL d   1      26.444 -13.918  -1.321  0.00  0.00     0.189 HD
BRANCH   5   7
ATOM      7  C   UNL d   1      25.957 -13.969  -3.418  0.00  0.00     0.193 C 
ATOM      8  S   UNL d   1      24.274 -14.075  -3.521  0.00  0.00    -0.039 SA
BRANCH   7   9
ATOM      9  N   UNL d   1      26.807 -13.525  -4.452  0.00  0.00    -0.302 N 
ATOM     10  C   UNL d   1      27.574 -14.350  -5.293  0.00  0.00     0.228 C 
ATOM     11  O   UNL d   1      27.634 -15.575  -5.224  0.00  0.00    -0.273 OA
ATOM     12  H   UNL d   1      26.885 -12.531  -4.617  0.00  0.00     0.171 HD
BRANCH  10  13
ATOM     13  C   UNL d   1      28.420 -13.709  -6.355  0.00  0.00     0.078 A 
ATOM     14  C   UNL d   1      29.927 -13.614  -6.066  0.00  0.00     0.015 A 
ATOM     15  C   UNL d   1      29.424 -14.492  -7.169  0.00  0.00     0.015 A 
ENDBRANCH  10  13
ENDBRANCH   7   9
ENDBRANCH   5   7
ENDBRANCH   3   5
BRANCH   2  16
ATOM     16  C   UNL d   1      26.850 -16.477  -0.188  0.00  0.00     0.109 C 
BRANCH  16  17
ATOM     17  C   UNL d   1      26.157 -17.826  -0.036  0.00  0.00     0.048 C 
BRANCH  17  18
ATOM     18  C   UNL d   1      24.693 -17.784  -0.402  0.00  0.00    -0.058 A 
ATOM     19  C   UNL d   1      24.059 -16.583  -0.750  0.00  0.00     0.007 A 
ATOM     20  C   UNL d   1      22.672 -16.539  -0.894  0.00  0.00     0.001 A 
ATOM     21  C   UNL d   1      21.920 -17.704  -0.775  0.00  0.00     0.000 A 
ATOM     22  C   UNL d   1      22.547 -18.911  -0.475  0.00  0.00     0.001 A 
ATOM     23  C   UNL d   1      23.926 -18.949  -0.282  0.00  0.00     0.007 A 
ENDBRANCH  17  18
ENDBRANCH  16  17
ENDBRANCH   2  16
TORSDOF 7
ENDMDL
