MODEL 1
REMARK VINA RESULT:    -6.706      0.000      0.000
REMARK INTER + INTRA:         -17.255
REMARK INTER:                 -10.584
REMARK INTRA:                  -6.671
REMARK CONF_INDEPENDENT:        3.878
REMARK UNBOUND:                -6.671
REMARK  13 active torsions:
REMARK  status: ('A' for Active; 'I' for Inactive)
REMARK    1  A    between atoms: S_2  and  C_4 
REMARK    2  A    between atoms: S_2  and  N_22 
REMARK    3  A    between atoms: C_4  and  C_5 
REMARK    4  A    between atoms: C_5  and  C_6 
REMARK    5  A    between atoms: C_6  and  C_7 
REMARK    6  A    between atoms: C_7  and  C_8 
REMARK    7  A    between atoms: C_8  and  C_9 
REMARK    8  A    between atoms: C_9  and  S_10 
REMARK    9  A    between atoms: S_10  and  N_13 
REMARK   10  A    between atoms: N_13  and  C_14 
REMARK   11  A    between atoms: C_20  and  O_21 
REMARK   12  A    between atoms: N_22  and  C_23 
REMARK   13  A    between atoms: C_29  and  O_30 
ROOT
ATOM      1  C   UNL d   1      27.049 -10.931  -5.973  0.00  0.00     0.001 C 
ENDROOT
BRANCH   1   2
ATOM      2  C   UNL d   1      27.364 -12.343  -6.478  0.00  0.00     0.017 C 
BRANCH   2   3
ATOM      3  C   UNL d   1      28.691 -12.798  -5.922  0.00  0.00     0.163 C 
BRANCH   3   4
ATOM      4  S   UNL d   1      28.701 -14.451  -5.254  0.00  0.00     0.231 S 
ATOM      5  O   UNL d   1      28.867 -14.327  -3.816  0.00  0.00    -0.206 OA
ATOM      6  O   UNL d   1      27.581 -15.176  -5.805  0.00  0.00    -0.206 OA
BRANCH   4   7
ATOM      7  N   UNL d   1      30.138 -15.145  -5.802  0.00  0.00    -0.282 N 
ATOM      8  H   UNL d   1      30.940 -14.517  -5.743  0.00  0.00     0.178 HD
BRANCH   7   9
ATOM      9  C   UNL d   1      30.359 -16.564  -5.811  0.00  0.00     0.077 A 
ATOM     10  C   UNL d   1      30.803 -17.223  -6.964  0.00  0.00     0.056 A 
ATOM     11  C   UNL d   1      30.960 -18.620  -6.947  0.00  0.00     0.036 A 
ATOM     12 CL   UNL d   1      31.427 -19.467  -8.373  0.00  0.00    -0.084 Cl
ATOM     13  C   UNL d   1      30.723 -19.362  -5.789  0.00  0.00     0.026 A 
ATOM     14  C   UNL d   1      30.274 -18.717  -4.650  0.00  0.00     0.040 A 
ATOM     15  C   UNL d   1      30.029 -17.351  -4.700  0.00  0.00     0.093 A 
BRANCH  15  16
ATOM     16  O   UNL d   1      29.280 -16.841  -3.679  0.00  0.00    -0.358 OA
ATOM     17  H   UNL d   1      29.816 -16.181  -3.209  0.00  0.00     0.217 HD
ENDBRANCH  15  16
ENDBRANCH   7   9
ENDBRANCH   4   7
ENDBRANCH   3   4
ENDBRANCH   2   3
ENDBRANCH   1   2
BRANCH   1  18
ATOM     18  C   UNL d   1      26.745 -10.986  -4.480  0.00  0.00     0.001 C 
BRANCH  18  19
ATOM     19  C   UNL d   1      25.624 -11.963  -4.178  0.00  0.00     0.017 C 
BRANCH  19  20
ATOM     20  C   UNL d   1      26.036 -12.996  -3.118  0.00  0.00     0.163 C 
BRANCH  20  21
ATOM     21  S   UNL d   1      25.333 -14.578  -3.578  0.00  0.00     0.231 S 
ATOM     22  O   UNL d   1      24.204 -14.822  -2.711  0.00  0.00    -0.206 OA
ATOM     23  O   UNL d   1      25.154 -14.452  -5.013  0.00  0.00    -0.206 OA
BRANCH  21  24
ATOM     24  N   UNL d   1      26.527 -15.716  -3.205  0.00  0.00    -0.282 N 
ATOM     25  H   UNL d   1      27.397 -15.743  -3.729  0.00  0.00     0.178 HD
BRANCH  24  26
ATOM     26  C   UNL d   1      26.396 -16.539  -2.020  0.00  0.00     0.077 A 
ATOM     27  C   UNL d   1      25.154 -17.074  -1.644  0.00  0.00     0.056 A 
ATOM     28  C   UNL d   1      25.045 -17.834  -0.464  0.00  0.00     0.036 A 
ATOM     29 CL   UNL d   1      23.523 -18.483   0.025  0.00  0.00    -0.084 Cl
ATOM     30  C   UNL d   1      26.155 -18.076   0.345  0.00  0.00     0.026 A 
ATOM     31  C   UNL d   1      27.383 -17.541  -0.011  0.00  0.00     0.040 A 
ATOM     32  C   UNL d   1      27.482 -16.756  -1.156  0.00  0.00     0.093 A 
BRANCH  32  33
ATOM     33  O   UNL d   1      28.650 -16.086  -1.347  0.00  0.00    -0.358 OA
ATOM     34  H   UNL d   1      28.676 -15.658  -2.213  0.00  0.00     0.217 HD
ENDBRANCH  32  33
ENDBRANCH  24  26
ENDBRANCH  21  24
ENDBRANCH  20  21
ENDBRANCH  19  20
ENDBRANCH  18  19
ENDBRANCH   1  18
TORSDOF 13
ENDMDL
MODEL 2
REMARK VINA RESULT:    -6.597      3.943      6.083
REMARK INTER + INTRA:         -16.494
REMARK INTER:                 -10.475
REMARK INTRA:                  -6.018
REMARK CONF_INDEPENDENT:        3.878
REMARK UNBOUND:                -6.018
REMARK  13 active torsions:
REMARK  status: ('A' for Active; 'I' for Inactive)
REMARK    1  A    between atoms: S_2  and  C_4 
REMARK    2  A    between atoms: S_2  and  N_22 
REMARK    3  A    between atoms: C_4  and  C_5 
REMARK    4  A    between atoms: C_5  and  C_6 
REMARK    5  A    between atoms: C_6  and  C_7 
REMARK    6  A    between atoms: C_7  and  C_8 
REMARK    7  A    between atoms: C_8  and  C_9 
REMARK    8  A    between atoms: C_9  and  S_10 
REMARK    9  A    between atoms: S_10  and  N_13 
REMARK   10  A    between atoms: N_13  and  C_14 
REMARK   11  A    between atoms: C_20  and  O_21 
REMARK   12  A    between atoms: N_22  and  C_23 
REMARK   13  A    between atoms: C_29  and  O_30 
ROOT
ATOM      1  C   UNL d   1      27.322 -11.492  -3.270  0.00  0.00     0.001 C 
ENDROOT
BRANCH   1   2
ATOM      2  C   UNL d   1      26.138 -12.243  -3.889  0.00  0.00     0.017 C 
BRANCH   2   3
ATOM      3  C   UNL d   1      26.600 -13.584  -4.404  0.00  0.00     0.163 C 
BRANCH   3   4
ATOM      4  S   UNL d   1      25.650 -14.980  -3.832  0.00  0.00     0.231 S 
ATOM      5  O   UNL d   1      24.465 -14.449  -3.181  0.00  0.00    -0.206 OA
ATOM      6  O   UNL d   1      25.531 -15.928  -4.915  0.00  0.00    -0.206 OA
BRANCH   4   7
ATOM      7  N   UNL d   1      26.565 -15.663  -2.591  0.00  0.00    -0.282 N 
ATOM      8  H   UNL d   1      27.403 -15.129  -2.362  0.00  0.00     0.178 HD
BRANCH   7   9
ATOM      9  C   UNL d   1      25.997 -16.533  -1.599  0.00  0.00     0.077 A 
ATOM     10  C   UNL d   1      24.642 -16.886  -1.632  0.00  0.00     0.056 A 
ATOM     11  C   UNL d   1      24.112 -17.700  -0.615  0.00  0.00     0.036 A 
ATOM     12 CL   UNL d   1      22.433 -18.084  -0.585  0.00  0.00    -0.084 Cl
ATOM     13  C   UNL d   1      24.920 -18.200   0.408  0.00  0.00     0.026 A 
ATOM     14  C   UNL d   1      26.257 -17.846   0.451  0.00  0.00     0.040 A 
ATOM     15  C   UNL d   1      26.753 -16.965  -0.502  0.00  0.00     0.093 A 
BRANCH  15  16
ATOM     16  O   UNL d   1      27.960 -16.395  -0.217  0.00  0.00    -0.358 OA
ATOM     17  H   UNL d   1      27.802 -15.491   0.102  0.00  0.00     0.217 HD
ENDBRANCH  15  16
ENDBRANCH   7   9
ENDBRANCH   4   7
ENDBRANCH   3   4
ENDBRANCH   2   3
ENDBRANCH   1   2
BRANCH   1  18
ATOM     18  C   UNL d   1      26.805 -10.500  -2.235  0.00  0.00     0.001 C 
BRANCH  18  19
ATOM     19  C   UNL d   1      27.431 -10.742  -0.874  0.00  0.00     0.017 C 
BRANCH  19  20
ATOM     20  C   UNL d   1      28.505 -11.840  -0.926  0.00  0.00     0.163 C 
BRANCH  20  21
ATOM     21  S   UNL d   1      27.943 -13.219   0.070  0.00  0.00     0.231 S 
ATOM     22  O   UNL d   1      26.887 -13.882  -0.658  0.00  0.00    -0.206 OA
ATOM     23  O   UNL d   1      29.176 -13.915   0.390  0.00  0.00    -0.206 OA
BRANCH  21  24
ATOM     24  N   UNL d   1      27.259 -12.517   1.448  0.00  0.00    -0.282 N 
ATOM     25  H   UNL d   1      26.509 -11.835   1.363  0.00  0.00     0.178 HD
BRANCH  24  26
ATOM     26  C   UNL d   1      27.609 -13.015   2.762  0.00  0.00     0.077 A 
ATOM     27  C   UNL d   1      27.880 -12.133   3.821  0.00  0.00     0.056 A 
ATOM     28  C   UNL d   1      28.261 -12.642   5.077  0.00  0.00     0.036 A 
ATOM     29 CL   UNL d   1      28.618 -11.575   6.385  0.00  0.00    -0.084 Cl
ATOM     30  C   UNL d   1      28.369 -14.015   5.300  0.00  0.00     0.026 A 
ATOM     31  C   UNL d   1      28.115 -14.892   4.257  0.00  0.00     0.040 A 
ATOM     32  C   UNL d   1      27.779 -14.388   3.004  0.00  0.00     0.093 A 
BRANCH  32  33
ATOM     33  O   UNL d   1      27.747 -15.272   1.970  0.00  0.00    -0.358 OA
ATOM     34  H   UNL d   1      28.636 -15.557   1.722  0.00  0.00     0.217 HD
ENDBRANCH  32  33
ENDBRANCH  24  26
ENDBRANCH  21  24
ENDBRANCH  20  21
ENDBRANCH  19  20
ENDBRANCH  18  19
ENDBRANCH   1  18
TORSDOF 13
ENDMDL
MODEL 3
REMARK VINA RESULT:    -6.424      3.603      6.243
REMARK INTER + INTRA:         -16.297
REMARK INTER:                 -10.301
REMARK INTRA:                  -5.996
REMARK CONF_INDEPENDENT:        3.878
REMARK UNBOUND:                -5.996
REMARK  13 active torsions:
REMARK  status: ('A' for Active; 'I' for Inactive)
REMARK    1  A    between atoms: S_2  and  C_4 
REMARK    2  A    between atoms: S_2  and  N_22 
REMARK    3  A    between atoms: C_4  and  C_5 
REMARK    4  A    between atoms: C_5  and  C_6 
REMARK    5  A    between atoms: C_6  and  C_7 
REMARK    6  A    between atoms: C_7  and  C_8 
REMARK    7  A    between atoms: C_8  and  C_9 
REMARK    8  A    between atoms: C_9  and  S_10 
REMARK    9  A    between atoms: S_10  and  N_13 
REMARK   10  A    between atoms: N_13  and  C_14 
REMARK   11  A    between atoms: C_20  and  O_21 
REMARK   12  A    between atoms: N_22  and  C_23 
REMARK   13  A    between atoms: C_29  and  O_30 
ROOT
ATOM      1  C   UNL d   1      28.803 -14.820  -3.576  0.00  0.00     0.001 C 
ENDROOT
BRANCH   1   2
ATOM      2  C   UNL d   1      28.978 -16.292  -3.189  0.00  0.00     0.017 C 
BRANCH   2   3
ATOM      3  C   UNL d   1      28.987 -16.426  -1.686  0.00  0.00     0.163 C 
BRANCH   3   4
ATOM      4  S   UNL d   1      29.068 -14.885  -0.792  0.00  0.00     0.231 S 
ATOM      5  O   UNL d   1      30.421 -14.379  -0.939  0.00  0.00    -0.206 OA
ATOM      6  O   UNL d   1      27.935 -14.074  -1.172  0.00  0.00    -0.206 OA
BRANCH   4   7
ATOM      7  N   UNL d   1      28.931 -15.306   0.836  0.00  0.00    -0.282 N 
ATOM      8  H   UNL d   1      29.484 -16.124   1.092  0.00  0.00     0.178 HD
BRANCH   7   9
ATOM      9  C   UNL d   1      28.572 -14.358   1.854  0.00  0.00     0.077 A 
ATOM     10  C   UNL d   1      29.326 -14.232   3.027  0.00  0.00     0.056 A 
ATOM     11  C   UNL d   1      28.914 -13.327   4.022  0.00  0.00     0.036 A 
ATOM     12 CL   UNL d   1      29.775 -13.208   5.509  0.00  0.00    -0.084 Cl
ATOM     13  C   UNL d   1      27.790 -12.518   3.845  0.00  0.00     0.026 A 
ATOM     14  C   UNL d   1      27.036 -12.646   2.692  0.00  0.00     0.040 A 
ATOM     15  C   UNL d   1      27.393 -13.609   1.755  0.00  0.00     0.093 A 
BRANCH  15  16
ATOM     16  O   UNL d   1      26.442 -13.918   0.826  0.00  0.00    -0.358 OA
ATOM     17  H   UNL d   1      26.769 -14.663   0.294  0.00  0.00     0.217 HD
ENDBRANCH  15  16
ENDBRANCH   7   9
ENDBRANCH   4   7
ENDBRANCH   3   4
ENDBRANCH   2   3
ENDBRANCH   1   2
BRANCH   1  18
ATOM     18  C   UNL d   1      28.358 -14.729  -5.030  0.00  0.00     0.001 C 
BRANCH  18  19
ATOM     19  C   UNL d   1      27.030 -14.005  -5.158  0.00  0.00     0.017 C 
BRANCH  19  20
ATOM     20  C   UNL d   1      26.464 -13.602  -3.788  0.00  0.00     0.163 C 
BRANCH  20  21
ATOM     21  S   UNL d   1      25.186 -14.777  -3.344  0.00  0.00     0.231 S 
ATOM     22  O   UNL d   1      23.911 -14.121  -3.515  0.00  0.00    -0.206 OA
ATOM     23  O   UNL d   1      25.531 -15.947  -4.130  0.00  0.00    -0.206 OA
BRANCH  21  24
ATOM     24  N   UNL d   1      25.404 -15.060  -1.692  0.00  0.00    -0.282 N 
ATOM     25  H   UNL d   1      25.805 -14.343  -1.092  0.00  0.00     0.178 HD
BRANCH  24  26
ATOM     26  C   UNL d   1      24.855 -16.255  -1.084  0.00  0.00     0.077 A 
ATOM     27  C   UNL d   1      23.519 -16.629  -1.302  0.00  0.00     0.056 A 
ATOM     28  C   UNL d   1      22.996 -17.770  -0.665  0.00  0.00     0.036 A 
ATOM     29 CL   UNL d   1      21.352 -18.233  -0.904  0.00  0.00    -0.084 Cl
ATOM     30  C   UNL d   1      23.784 -18.551   0.181  0.00  0.00     0.026 A 
ATOM     31  C   UNL d   1      25.100 -18.183   0.412  0.00  0.00     0.040 A 
ATOM     32  C   UNL d   1      25.605 -17.031  -0.186  0.00  0.00     0.093 A 
BRANCH  32  33
ATOM     33  O   UNL d   1      26.824 -16.601   0.235  0.00  0.00    -0.358 OA
ATOM     34  H   UNL d   1      27.081 -15.779  -0.205  0.00  0.00     0.217 HD
ENDBRANCH  32  33
ENDBRANCH  24  26
ENDBRANCH  21  24
ENDBRANCH  20  21
ENDBRANCH  19  20
ENDBRANCH  18  19
ENDBRANCH   1  18
TORSDOF 13
ENDMDL
MODEL 4
REMARK VINA RESULT:    -6.201      0.758      5.753
REMARK INTER + INTRA:         -16.804
REMARK INTER:                 -10.079
REMARK INTRA:                  -6.725
REMARK CONF_INDEPENDENT:        3.878
REMARK UNBOUND:                -6.725
REMARK  13 active torsions:
REMARK  status: ('A' for Active; 'I' for Inactive)
REMARK    1  A    between atoms: S_2  and  C_4 
REMARK    2  A    between atoms: S_2  and  N_22 
REMARK    3  A    between atoms: C_4  and  C_5 
REMARK    4  A    between atoms: C_5  and  C_6 
REMARK    5  A    between atoms: C_6  and  C_7 
REMARK    6  A    between atoms: C_7  and  C_8 
REMARK    7  A    between atoms: C_8  and  C_9 
REMARK    8  A    between atoms: C_9  and  S_10 
REMARK    9  A    between atoms: S_10  and  N_13 
REMARK   10  A    between atoms: N_13  and  C_14 
REMARK   11  A    between atoms: C_20  and  O_21 
REMARK   12  A    between atoms: N_22  and  C_23 
REMARK   13  A    between atoms: C_29  and  O_30 
ROOT
ATOM      1  C   UNL d   1      27.557 -11.427  -3.849  0.00  0.00     0.001 C 
ENDROOT
BRANCH   1   2
ATOM      2  C   UNL d   1      26.369 -12.318  -3.472  0.00  0.00     0.017 C 
BRANCH   2   3
ATOM      3  C   UNL d   1      26.016 -13.214  -4.634  0.00  0.00     0.163 C 
BRANCH   3   4
ATOM      4  S   UNL d   1      25.531 -14.871  -4.191  0.00  0.00     0.231 S 
ATOM      5  O   UNL d   1      24.601 -14.758  -3.081  0.00  0.00    -0.206 OA
ATOM      6  O   UNL d   1      25.158 -15.577  -5.393  0.00  0.00    -0.206 OA
BRANCH   4   7
ATOM      7  N   UNL d   1      26.914 -15.580  -3.533  0.00  0.00    -0.282 N 
ATOM      8  H   UNL d   1      27.782 -15.170  -3.877  0.00  0.00     0.178 HD
BRANCH   7   9
ATOM      9  C   UNL d   1      26.910 -16.253  -2.265  0.00  0.00     0.077 A 
ATOM     10  C   UNL d   1      25.738 -16.813  -1.742  0.00  0.00     0.056 A 
ATOM     11  C   UNL d   1      25.765 -17.421  -0.474  0.00  0.00     0.036 A 
ATOM     12 CL   UNL d   1      24.323 -18.047   0.228  0.00  0.00    -0.084 Cl
ATOM     13  C   UNL d   1      26.950 -17.516   0.258  0.00  0.00     0.026 A 
ATOM     14  C   UNL d   1      28.108 -16.954  -0.248  0.00  0.00     0.040 A 
ATOM     15  C   UNL d   1      28.055 -16.272  -1.458  0.00  0.00     0.093 A 
BRANCH  15  16
ATOM     16  O   UNL d   1      29.120 -15.465  -1.735  0.00  0.00    -0.358 OA
ATOM     17  H   UNL d   1      28.919 -14.962  -2.541  0.00  0.00     0.217 HD
ENDBRANCH  15  16
ENDBRANCH   7   9
ENDBRANCH   4   7
ENDBRANCH   3   4
ENDBRANCH   2   3
ENDBRANCH   1   2
BRANCH   1  18
ATOM     18  C   UNL d   1      27.603 -11.261  -5.363  0.00  0.00     0.001 C 
BRANCH  18  19
ATOM     19  C   UNL d   1      28.913 -11.769  -5.937  0.00  0.00     0.017 C 
BRANCH  19  20
ATOM     20  C   UNL d   1      28.706 -13.003  -6.829  0.00  0.00     0.163 C 
BRANCH  20  21
ATOM     21  S   UNL d   1      28.885 -14.465  -5.809  0.00  0.00     0.231 S 
ATOM     22  O   UNL d   1      29.203 -14.028  -4.470  0.00  0.00    -0.206 OA
ATOM     23  O   UNL d   1      27.664 -15.203  -6.079  0.00  0.00    -0.206 OA
BRANCH  21  24
ATOM     24  N   UNL d   1      30.238 -15.269  -6.426  0.00  0.00    -0.282 N 
ATOM     25  H   UNL d   1      30.994 -14.749  -6.863  0.00  0.00     0.178 HD
BRANCH  24  26
ATOM     26  C   UNL d   1      30.415 -16.685  -6.173  0.00  0.00     0.077 A 
ATOM     27  C   UNL d   1      30.809 -17.559  -7.198  0.00  0.00     0.056 A 
ATOM     28  C   UNL d   1      30.931 -18.937  -6.936  0.00  0.00     0.036 A 
ATOM     29 CL   UNL d   1      31.393 -20.030  -8.188  0.00  0.00    -0.084 Cl
ATOM     30  C   UNL d   1      30.675 -19.459  -5.668  0.00  0.00     0.026 A 
ATOM     31  C   UNL d   1      30.274 -18.604  -4.653  0.00  0.00     0.040 A 
ATOM     32  C   UNL d   1      30.113 -17.248  -4.922  0.00  0.00     0.093 A 
BRANCH  32  33
ATOM     33  O   UNL d   1      29.520 -16.493  -3.958  0.00  0.00    -0.358 OA
ATOM     34  H   UNL d   1      30.111 -15.797  -3.641  0.00  0.00     0.217 HD
ENDBRANCH  32  33
ENDBRANCH  24  26
ENDBRANCH  21  24
ENDBRANCH  20  21
ENDBRANCH  19  20
ENDBRANCH  18  19
ENDBRANCH   1  18
TORSDOF 13
ENDMDL
MODEL 5
REMARK VINA RESULT:    -5.988      1.812      2.569
REMARK INTER + INTRA:         -16.262
REMARK INTER:                  -9.866
REMARK INTRA:                  -6.397
REMARK CONF_INDEPENDENT:        3.878
REMARK UNBOUND:                -6.397
REMARK  13 active torsions:
REMARK  status: ('A' for Active; 'I' for Inactive)
REMARK    1  A    between atoms: S_2  and  C_4 
REMARK    2  A    between atoms: S_2  and  N_22 
REMARK    3  A    between atoms: C_4  and  C_5 
REMARK    4  A    between atoms: C_5  and  C_6 
REMARK    5  A    between atoms: C_6  and  C_7 
REMARK    6  A    between atoms: C_7  and  C_8 
REMARK    7  A    between atoms: C_8  and  C_9 
REMARK    8  A    between atoms: C_9  and  S_10 
REMARK    9  A    between atoms: S_10  and  N_13 
REMARK   10  A    between atoms: N_13  and  C_14 
REMARK   11  A    between atoms: C_20  and  O_21 
REMARK   12  A    between atoms: N_22  and  C_23 
REMARK   13  A    between atoms: C_29  and  O_30 
ROOT
ATOM      1  C   UNL d   1      27.568 -11.203  -3.773  0.00  0.00     0.001 C 
ENDROOT
BRANCH   1   2
ATOM      2  C   UNL d   1      27.989 -12.604  -4.229  0.00  0.00     0.017 C 
BRANCH   2   3
ATOM      3  C   UNL d   1      26.981 -13.142  -5.215  0.00  0.00     0.163 C 
BRANCH   3   4
ATOM      4  S   UNL d   1      26.464 -14.823  -4.925  0.00  0.00     0.231 S 
ATOM      5  O   UNL d   1      25.165 -14.763  -4.277  0.00  0.00    -0.206 OA
ATOM      6  O   UNL d   1      26.642 -15.575  -6.145  0.00  0.00    -0.206 OA
BRANCH   4   7
ATOM      7  N   UNL d   1      27.514 -15.416  -3.745  0.00  0.00    -0.282 N 
ATOM      8  H   UNL d   1      27.042 -15.696  -2.885  0.00  0.00     0.178 HD
BRANCH   7   9
ATOM      9  C   UNL d   1      28.790 -15.994  -4.064  0.00  0.00     0.077 A 
ATOM     10  C   UNL d   1      29.314 -15.926  -5.361  0.00  0.00     0.056 A 
ATOM     11  C   UNL d   1      30.544 -16.547  -5.644  0.00  0.00     0.036 A 
ATOM     12 CL   UNL d   1      31.175 -16.551  -7.247  0.00  0.00    -0.084 Cl
ATOM     13  C   UNL d   1      31.276 -17.194  -4.647  0.00  0.00     0.026 A 
ATOM     14  C   UNL d   1      30.758 -17.272  -3.366  0.00  0.00     0.040 A 
ATOM     15  C   UNL d   1      29.499 -16.740  -3.114  0.00  0.00     0.093 A 
BRANCH  15  16
ATOM     16  O   UNL d   1      28.905 -17.138  -1.952  0.00  0.00    -0.358 OA
ATOM     17  H   UNL d   1      28.835 -16.366  -1.366  0.00  0.00     0.217 HD
ENDBRANCH  15  16
ENDBRANCH   7   9
ENDBRANCH   4   7
ENDBRANCH   3   4
ENDBRANCH   2   3
ENDBRANCH   1   2
BRANCH   1  18
ATOM     18  C   UNL d   1      26.141 -11.251  -3.242  0.00  0.00     0.001 C 
BRANCH  18  19
ATOM     19  C   UNL d   1      25.875 -12.540  -2.486  0.00  0.00     0.017 C 
BRANCH  19  20
ATOM     20  C   UNL d   1      26.701 -12.624  -1.192  0.00  0.00     0.163 C 
BRANCH  20  21
ATOM     21  S   UNL d   1      26.827 -14.348  -0.722  0.00  0.00     0.231 S 
ATOM     22  O   UNL d   1      28.112 -14.830  -1.171  0.00  0.00    -0.206 OA
ATOM     23  O   UNL d   1      26.494 -14.327   0.691  0.00  0.00    -0.206 OA
BRANCH  21  24
ATOM     24  N   UNL d   1      25.635 -15.139  -1.623  0.00  0.00    -0.282 N 
ATOM     25  H   UNL d   1      25.388 -14.812  -2.554  0.00  0.00     0.178 HD
BRANCH  24  26
ATOM     26  C   UNL d   1      25.087 -16.394  -1.153  0.00  0.00     0.077 A 
ATOM     27  C   UNL d   1      23.717 -16.677  -1.276  0.00  0.00     0.056 A 
ATOM     28  C   UNL d   1      23.201 -17.885  -0.770  0.00  0.00     0.036 A 
ATOM     29 CL   UNL d   1      21.518 -18.241  -0.894  0.00  0.00    -0.084 Cl
ATOM     30  C   UNL d   1      24.029 -18.822  -0.150  0.00  0.00     0.026 A 
ATOM     31  C   UNL d   1      25.380 -18.546  -0.013  0.00  0.00     0.040 A 
ATOM     32  C   UNL d   1      25.882 -17.333  -0.476  0.00  0.00     0.093 A 
BRANCH  32  33
ATOM     33  O   UNL d   1      27.161 -17.022  -0.132  0.00  0.00    -0.358 OA
ATOM     34  H   UNL d   1      27.472 -16.235  -0.599  0.00  0.00     0.217 HD
ENDBRANCH  32  33
ENDBRANCH  24  26
ENDBRANCH  21  24
ENDBRANCH  20  21
ENDBRANCH  19  20
ENDBRANCH  18  19
ENDBRANCH   1  18
TORSDOF 13
ENDMDL
MODEL 6
REMARK VINA RESULT:    -5.961      1.958      5.874
REMARK INTER + INTRA:         -16.687
REMARK INTER:                  -9.839
REMARK INTRA:                  -6.848
REMARK CONF_INDEPENDENT:        3.878
REMARK UNBOUND:                -6.848
REMARK  13 active torsions:
REMARK  status: ('A' for Active; 'I' for Inactive)
REMARK    1  A    between atoms: S_2  and  C_4 
REMARK    2  A    between atoms: S_2  and  N_22 
REMARK    3  A    between atoms: C_4  and  C_5 
REMARK    4  A    between atoms: C_5  and  C_6 
REMARK    5  A    between atoms: C_6  and  C_7 
REMARK    6  A    between atoms: C_7  and  C_8 
REMARK    7  A    between atoms: C_8  and  C_9 
REMARK    8  A    between atoms: C_9  and  S_10 
REMARK    9  A    between atoms: S_10  and  N_13 
REMARK   10  A    between atoms: N_13  and  C_14 
REMARK   11  A    between atoms: C_20  and  O_21 
REMARK   12  A    between atoms: N_22  and  C_23 
REMARK   13  A    between atoms: C_29  and  O_30 
ROOT
ATOM      1  C   UNL d   1      27.667 -11.447  -3.044  0.00  0.00     0.001 C 
ENDROOT
BRANCH   1   2
ATOM      2  C   UNL d   1      28.180 -11.827  -1.651  0.00  0.00     0.017 C 
BRANCH   2   3
ATOM      3  C   UNL d   1      27.030 -12.305  -0.799  0.00  0.00     0.163 C 
BRANCH   3   4
ATOM      4  S   UNL d   1      27.072 -14.037  -0.377  0.00  0.00     0.231 S 
ATOM      5  O   UNL d   1      28.239 -14.605  -1.030  0.00  0.00    -0.206 OA
ATOM      6  O   UNL d   1      26.894 -14.167   1.050  0.00  0.00    -0.206 OA
BRANCH   4   7
ATOM      7  N   UNL d   1      25.750 -14.722  -1.170  0.00  0.00    -0.282 N 
ATOM      8  H   UNL d   1      25.582 -14.327  -2.095  0.00  0.00     0.178 HD
BRANCH   7   9
ATOM      9  C   UNL d   1      25.269 -16.042  -0.874  0.00  0.00     0.077 A 
ATOM     10  C   UNL d   1      23.928 -16.390  -1.078  0.00  0.00     0.056 A 
ATOM     11  C   UNL d   1      23.484 -17.678  -0.730  0.00  0.00     0.036 A 
ATOM     12 CL   UNL d   1      21.824 -18.108  -0.895  0.00  0.00    -0.084 Cl
ATOM     13  C   UNL d   1      24.365 -18.636  -0.224  0.00  0.00     0.026 A 
ATOM     14  C   UNL d   1      25.689 -18.295  -0.011  0.00  0.00     0.040 A 
ATOM     15  C   UNL d   1      26.100 -16.992  -0.266  0.00  0.00     0.093 A 
BRANCH  15  16
ATOM     16  O   UNL d   1      27.300 -16.629   0.273  0.00  0.00    -0.358 OA
ATOM     17  H   UNL d   1      27.789 -16.114  -0.391  0.00  0.00     0.217 HD
ENDBRANCH  15  16
ENDBRANCH   7   9
ENDBRANCH   4   7
ENDBRANCH   3   4
ENDBRANCH   2   3
ENDBRANCH   1   2
BRANCH   1  18
ATOM     18  C   UNL d   1      26.196 -11.828  -3.162  0.00  0.00     0.001 C 
BRANCH  18  19
ATOM     19  C   UNL d   1      25.853 -12.285  -4.568  0.00  0.00     0.017 C 
BRANCH  19  20
ATOM     20  C   UNL d   1      26.821 -13.368  -5.070  0.00  0.00     0.163 C 
BRANCH  20  21
ATOM     21  S   UNL d   1      26.189 -14.963  -4.557  0.00  0.00     0.231 S 
ATOM     22  O   UNL d   1      24.915 -14.741  -3.913  0.00  0.00    -0.206 OA
ATOM     23  O   UNL d   1      26.280 -15.756  -5.770  0.00  0.00    -0.206 OA
BRANCH  21  24
ATOM     24  N   UNL d   1      27.274 -15.510  -3.382  0.00  0.00    -0.282 N 
ATOM     25  H   UNL d   1      26.969 -15.657  -2.424  0.00  0.00     0.178 HD
BRANCH  24  26
ATOM     26  C   UNL d   1      28.599 -15.949  -3.771  0.00  0.00     0.077 A 
ATOM     27  C   UNL d   1      29.089 -15.712  -5.065  0.00  0.00     0.056 A 
ATOM     28  C   UNL d   1      30.362 -16.188  -5.431  0.00  0.00     0.036 A 
ATOM     29 CL   UNL d   1      30.974 -15.924  -7.023  0.00  0.00    -0.084 Cl
ATOM     30  C   UNL d   1      31.160 -16.890  -4.527  0.00  0.00     0.026 A 
ATOM     31  C   UNL d   1      30.679 -17.140  -3.252  0.00  0.00     0.040 A 
ATOM     32  C   UNL d   1      29.404 -16.705  -2.903  0.00  0.00     0.093 A 
BRANCH  32  33
ATOM     33  O   UNL d   1      28.900 -17.154  -1.722  0.00  0.00    -0.358 OA
ATOM     34  H   UNL d   1      29.080 -16.534  -1.002  0.00  0.00     0.217 HD
ENDBRANCH  32  33
ENDBRANCH  24  26
ENDBRANCH  21  24
ENDBRANCH  20  21
ENDBRANCH  19  20
ENDBRANCH  18  19
ENDBRANCH   1  18
TORSDOF 13
ENDMDL
MODEL 7
REMARK VINA RESULT:    -5.803      4.478      7.921
REMARK INTER + INTRA:         -16.081
REMARK INTER:                  -9.681
REMARK INTRA:                  -6.400
REMARK CONF_INDEPENDENT:        3.878
REMARK UNBOUND:                -6.400
REMARK  13 active torsions:
REMARK  status: ('A' for Active; 'I' for Inactive)
REMARK    1  A    between atoms: S_2  and  C_4 
REMARK    2  A    between atoms: S_2  and  N_22 
REMARK    3  A    between atoms: C_4  and  C_5 
REMARK    4  A    between atoms: C_5  and  C_6 
REMARK    5  A    between atoms: C_6  and  C_7 
REMARK    6  A    between atoms: C_7  and  C_8 
REMARK    7  A    between atoms: C_8  and  C_9 
REMARK    8  A    between atoms: C_9  and  S_10 
REMARK    9  A    between atoms: S_10  and  N_13 
REMARK   10  A    between atoms: N_13  and  C_14 
REMARK   11  A    between atoms: C_20  and  O_21 
REMARK   12  A    between atoms: N_22  and  C_23 
REMARK   13  A    between atoms: C_29  and  O_30 
ROOT
ATOM      1  C   UNL d   1      25.007 -17.833   0.535  0.00  0.00     0.001 C 
ENDROOT
BRANCH   1   2
ATOM      2  C   UNL d   1      26.469 -18.270   0.669  0.00  0.00     0.017 C 
BRANCH   2   3
ATOM      3  C   UNL d   1      27.322 -17.498  -0.307  0.00  0.00     0.163 C 
BRANCH   3   4
ATOM      4  S   UNL d   1      27.350 -15.733  -0.053  0.00  0.00     0.231 S 
ATOM      5  O   UNL d   1      28.167 -15.165  -1.112  0.00  0.00    -0.206 OA
ATOM      6  O   UNL d   1      25.996 -15.278   0.155  0.00  0.00    -0.206 OA
BRANCH   4   7
ATOM      7  N   UNL d   1      28.240 -15.500   1.360  0.00  0.00    -0.282 N 
ATOM      8  H   UNL d   1      29.128 -16.002   1.369  0.00  0.00     0.178 HD
BRANCH   7   9
ATOM      9  C   UNL d   1      28.086 -14.338   2.190  0.00  0.00     0.077 A 
ATOM     10  C   UNL d   1      28.216 -14.416   3.582  0.00  0.00     0.056 A 
ATOM     11  C   UNL d   1      28.009 -13.266   4.364  0.00  0.00     0.036 A 
ATOM     12 CL   UNL d   1      28.082 -13.349   6.083  0.00  0.00    -0.084 Cl
ATOM     13  C   UNL d   1      27.718 -12.033   3.776  0.00  0.00     0.026 A 
ATOM     14  C   UNL d   1      27.578 -11.952   2.402  0.00  0.00     0.040 A 
ATOM     15  C   UNL d   1      27.690 -13.110   1.643  0.00  0.00     0.093 A 
BRANCH  15  16
ATOM     16  O   UNL d   1      27.215 -13.035   0.366  0.00  0.00    -0.358 OA
ATOM     17  H   UNL d   1      27.716 -13.661  -0.183  0.00  0.00     0.217 HD
ENDBRANCH  15  16
ENDBRANCH   7   9
ENDBRANCH   4   7
ENDBRANCH   3   4
ENDBRANCH   2   3
ENDBRANCH   1   2
BRANCH   1  18
ATOM     18  C   UNL d   1      24.533 -18.083  -0.891  0.00  0.00     0.001 C 
BRANCH  18  19
ATOM     19  C   UNL d   1      24.208 -16.782  -1.603  0.00  0.00     0.017 C 
BRANCH  19  20
ATOM     20  C   UNL d   1      25.368 -16.314  -2.496  0.00  0.00     0.163 C 
BRANCH  20  21
ATOM     21  S   UNL d   1      25.008 -14.650  -3.052  0.00  0.00     0.231 S 
ATOM     22  O   UNL d   1      25.477 -14.533  -4.413  0.00  0.00    -0.206 OA
ATOM     23  O   UNL d   1      23.598 -14.498  -2.737  0.00  0.00    -0.206 OA
BRANCH  21  24
ATOM     24  N   UNL d   1      25.965 -13.646  -2.086  0.00  0.00    -0.282 N 
ATOM     25  H   UNL d   1      26.312 -13.970  -1.187  0.00  0.00     0.178 HD
BRANCH  24  26
ATOM     26  C   UNL d   1      26.451 -12.386  -2.611  0.00  0.00     0.077 A 
ATOM     27  C   UNL d   1      25.631 -11.570  -3.408  0.00  0.00     0.056 A 
ATOM     28  C   UNL d   1      26.142 -10.372  -3.943  0.00  0.00     0.036 A 
ATOM     29 CL   UNL d   1      25.157  -9.367  -4.941  0.00  0.00    -0.084 Cl
ATOM     30  C   UNL d   1      27.453  -9.968  -3.692  0.00  0.00     0.026 A 
ATOM     31  C   UNL d   1      28.273 -10.773  -2.917  0.00  0.00     0.040 A 
ATOM     32  C   UNL d   1      27.781 -11.978  -2.422  0.00  0.00     0.093 A 
BRANCH  32  33
ATOM     33  O   UNL d   1      28.680 -12.824  -1.851  0.00  0.00    -0.358 OA
ATOM     34  H   UNL d   1      28.353 -13.733  -1.840  0.00  0.00     0.217 HD
ENDBRANCH  32  33
ENDBRANCH  24  26
ENDBRANCH  21  24
ENDBRANCH  20  21
ENDBRANCH  19  20
ENDBRANCH  18  19
ENDBRANCH   1  18
TORSDOF 13
ENDMDL
MODEL 8
REMARK VINA RESULT:    -5.704      3.661      5.958
REMARK INTER + INTRA:         -16.153
REMARK INTER:                  -9.581
REMARK INTRA:                  -6.571
REMARK CONF_INDEPENDENT:        3.878
REMARK UNBOUND:                -6.571
REMARK  13 active torsions:
REMARK  status: ('A' for Active; 'I' for Inactive)
REMARK    1  A    between atoms: S_2  and  C_4 
REMARK    2  A    between atoms: S_2  and  N_22 
REMARK    3  A    between atoms: C_4  and  C_5 
REMARK    4  A    between atoms: C_5  and  C_6 
REMARK    5  A    between atoms: C_6  and  C_7 
REMARK    6  A    between atoms: C_7  and  C_8 
REMARK    7  A    between atoms: C_8  and  C_9 
REMARK    8  A    between atoms: C_9  and  S_10 
REMARK    9  A    between atoms: S_10  and  N_13 
REMARK   10  A    between atoms: N_13  and  C_14 
REMARK   11  A    between atoms: C_20  and  O_21 
REMARK   12  A    between atoms: N_22  and  C_23 
REMARK   13  A    between atoms: C_29  and  O_30 
ROOT
ATOM      1  C   UNL d   1      28.890 -12.713  -4.557  0.00  0.00     0.001 C 
ENDROOT
BRANCH   1   2
ATOM      2  C   UNL d   1      28.072 -13.998  -4.388  0.00  0.00     0.017 C 
BRANCH   2   3
ATOM      3  C   UNL d   1      26.658 -13.652  -3.991  0.00  0.00     0.163 C 
BRANCH   3   4
ATOM      4  S   UNL d   1      25.591 -15.051  -3.702  0.00  0.00     0.231 S 
ATOM      5  O   UNL d   1      24.376 -14.540  -3.091  0.00  0.00    -0.206 OA
ATOM      6  O   UNL d   1      25.530 -15.839  -4.911  0.00  0.00    -0.206 OA
BRANCH   4   7
ATOM      7  N   UNL d   1      26.348 -15.947  -2.490  0.00  0.00    -0.282 N 
ATOM      8  H   UNL d   1      27.238 -15.551  -2.188  0.00  0.00     0.178 HD
BRANCH   7   9
ATOM      9  C   UNL d   1      25.624 -16.805  -1.594  0.00  0.00     0.077 A 
ATOM     10  C   UNL d   1      24.243 -16.997  -1.729  0.00  0.00     0.056 A 
ATOM     11  C   UNL d   1      23.562 -17.806  -0.802  0.00  0.00     0.036 A 
ATOM     12 CL   UNL d   1      21.853 -17.995  -0.894  0.00  0.00    -0.084 Cl
ATOM     13  C   UNL d   1      24.242 -18.458   0.228  0.00  0.00     0.026 A 
ATOM     14  C   UNL d   1      25.605 -18.264   0.372  0.00  0.00     0.040 A 
ATOM     15  C   UNL d   1      26.256 -17.389  -0.488  0.00  0.00     0.093 A 
BRANCH  15  16
ATOM     16  O   UNL d   1      27.498 -16.980  -0.096  0.00  0.00    -0.358 OA
ATOM     17  H   UNL d   1      27.826 -16.337  -0.747  0.00  0.00     0.217 HD
ENDBRANCH  15  16
ENDBRANCH   7   9
ENDBRANCH   4   7
ENDBRANCH   3   4
ENDBRANCH   2   3
ENDBRANCH   1   2
BRANCH   1  18
ATOM     18  C   UNL d   1      29.800 -12.532  -3.348  0.00  0.00     0.001 C 
BRANCH  18  19
ATOM     19  C   UNL d   1      29.075 -12.851  -2.055  0.00  0.00     0.017 C 
BRANCH  19  20
ATOM     20  C   UNL d   1      30.041 -13.333  -0.961  0.00  0.00     0.163 C 
BRANCH  20  21
ATOM     21  S   UNL d   1      29.995 -15.124  -0.924  0.00  0.00     0.231 S 
ATOM     22  O   UNL d   1      29.082 -15.558  -1.955  0.00  0.00    -0.206 OA
ATOM     23  O   UNL d   1      31.400 -15.487  -0.974  0.00  0.00    -0.206 OA
BRANCH  21  24
ATOM     24  N   UNL d   1      29.311 -15.516   0.571  0.00  0.00    -0.282 N 
ATOM     25  H   UNL d   1      29.526 -16.401   1.023  0.00  0.00     0.178 HD
BRANCH  24  26
ATOM     26  C   UNL d   1      28.561 -14.518   1.307  0.00  0.00     0.077 A 
ATOM     27  C   UNL d   1      28.880 -14.210   2.639  0.00  0.00     0.056 A 
ATOM     28  C   UNL d   1      28.107 -13.269   3.346  0.00  0.00     0.036 A 
ATOM     29 CL   UNL d   1      28.470 -12.893   4.990  0.00  0.00    -0.084 Cl
ATOM     30  C   UNL d   1      27.026 -12.623   2.746  0.00  0.00     0.026 A 
ATOM     31  C   UNL d   1      26.697 -12.930   1.435  0.00  0.00     0.040 A 
ATOM     32  C   UNL d   1      27.435 -13.891   0.750  0.00  0.00     0.093 A 
BRANCH  32  33
ATOM     33  O   UNL d   1      26.946 -14.305  -0.450  0.00  0.00    -0.358 OA
ATOM     34  H   UNL d   1      27.365 -15.128  -0.737  0.00  0.00     0.217 HD
ENDBRANCH  32  33
ENDBRANCH  24  26
ENDBRANCH  21  24
ENDBRANCH  20  21
ENDBRANCH  19  20
ENDBRANCH  18  19
ENDBRANCH   1  18
TORSDOF 13
ENDMDL
MODEL 9
REMARK VINA RESULT:    -4.890      3.550      6.037
REMARK INTER + INTRA:         -16.048
REMARK INTER:                  -8.767
REMARK INTRA:                  -7.280
REMARK CONF_INDEPENDENT:        3.878
REMARK UNBOUND:                -7.280
REMARK  13 active torsions:
REMARK  status: ('A' for Active; 'I' for Inactive)
REMARK    1  A    between atoms: S_2  and  C_4 
REMARK    2  A    between atoms: S_2  and  N_22 
REMARK    3  A    between atoms: C_4  and  C_5 
REMARK    4  A    between atoms: C_5  and  C_6 
REMARK    5  A    between atoms: C_6  and  C_7 
REMARK    6  A    between atoms: C_7  and  C_8 
REMARK    7  A    between atoms: C_8  and  C_9 
REMARK    8  A    between atoms: C_9  and  S_10 
REMARK    9  A    between atoms: S_10  and  N_13 
REMARK   10  A    between atoms: N_13  and  C_14 
REMARK   11  A    between atoms: C_20  and  O_21 
REMARK   12  A    between atoms: N_22  and  C_23 
REMARK   13  A    between atoms: C_29  and  O_30 
ROOT
ATOM      1  C   UNL d   1      24.338 -17.695   0.233  0.00  0.00     0.001 C 
ENDROOT
BRANCH   1   2
ATOM      2  C   UNL d   1      25.726 -18.220  -0.149  0.00  0.00     0.017 C 
BRANCH   2   3
ATOM      3  C   UNL d   1      26.784 -17.453   0.604  0.00  0.00     0.163 C 
BRANCH   3   4
ATOM      4  S   UNL d   1      27.613 -16.187  -0.338  0.00  0.00     0.231 S 
ATOM      5  O   UNL d   1      27.720 -16.674  -1.703  0.00  0.00    -0.206 OA
ATOM      6  O   UNL d   1      26.982 -14.919  -0.058  0.00  0.00    -0.206 OA
BRANCH   4   7
ATOM      7  N   UNL d   1      29.197 -16.163   0.243  0.00  0.00    -0.282 N 
ATOM      8  H   UNL d   1      29.288 -16.533   1.189  0.00  0.00     0.178 HD
BRANCH   7   9
ATOM      9  C   UNL d   1      30.341 -16.171  -0.625  0.00  0.00     0.077 A 
ATOM     10  C   UNL d   1      31.528 -16.815  -0.256  0.00  0.00     0.056 A 
ATOM     11  C   UNL d   1      32.642 -16.759  -1.113  0.00  0.00     0.036 A 
ATOM     12 CL   UNL d   1      34.140 -17.472  -0.650  0.00  0.00    -0.084 Cl
ATOM     13  C   UNL d   1      32.576 -16.109  -2.347  0.00  0.00     0.026 A 
ATOM     14  C   UNL d   1      31.408 -15.463  -2.712  0.00  0.00     0.040 A 
ATOM     15  C   UNL d   1      30.343 -15.440  -1.820  0.00  0.00     0.093 A 
BRANCH  15  16
ATOM     16  O   UNL d   1      29.367 -14.521  -2.080  0.00  0.00    -0.358 OA
ATOM     17  H   UNL d   1      28.636 -14.671  -1.458  0.00  0.00     0.217 HD
ENDBRANCH  15  16
ENDBRANCH   7   9
ENDBRANCH   4   7
ENDBRANCH   3   4
ENDBRANCH   2   3
ENDBRANCH   1   2
BRANCH   1  18
ATOM     18  C   UNL d   1      23.604 -17.246  -1.025  0.00  0.00     0.001 C 
BRANCH  18  19
ATOM     19  C   UNL d   1      24.321 -16.092  -1.702  0.00  0.00     0.017 C 
BRANCH  19  20
ATOM     20  C   UNL d   1      25.165 -16.565  -2.896  0.00  0.00     0.163 C 
BRANCH  20  21
ATOM     21  S   UNL d   1      25.663 -15.122  -3.834  0.00  0.00     0.231 S 
ATOM     22  O   UNL d   1      26.482 -15.578  -4.933  0.00  0.00    -0.206 OA
ATOM     23  O   UNL d   1      24.405 -14.440  -4.077  0.00  0.00    -0.206 OA
BRANCH  21  24
ATOM     24  N   UNL d   1      26.651 -14.236  -2.787  0.00  0.00    -0.282 N 
ATOM     25  H   UNL d   1      27.312 -14.707  -2.175  0.00  0.00     0.178 HD
BRANCH  24  26
ATOM     26  C   UNL d   1      26.693 -12.791  -2.883  0.00  0.00     0.077 A 
ATOM     27  C   UNL d   1      26.163 -12.124  -3.999  0.00  0.00     0.056 A 
ATOM     28  C   UNL d   1      26.257 -10.722  -4.090  0.00  0.00     0.036 A 
ATOM     29 CL   UNL d   1      25.629  -9.887  -5.463  0.00  0.00    -0.084 Cl
ATOM     30  C   UNL d   1      26.864  -9.972  -3.083  0.00  0.00     0.026 A 
ATOM     31  C   UNL d   1      27.401 -10.622  -1.983  0.00  0.00     0.040 A 
ATOM     32  C   UNL d   1      27.345 -12.011  -1.914  0.00  0.00     0.093 A 
BRANCH  32  33
ATOM     33  O   UNL d   1      28.066 -12.610  -0.928  0.00  0.00    -0.358 OA
ATOM     34  H   UNL d   1      27.875 -13.556  -0.875  0.00  0.00     0.217 HD
ENDBRANCH  32  33
ENDBRANCH  24  26
ENDBRANCH  21  24
ENDBRANCH  20  21
ENDBRANCH  19  20
ENDBRANCH  18  19
ENDBRANCH   1  18
TORSDOF 13
ENDMDL
