MODEL 1
REMARK VINA RESULT:    -9.473      0.000      0.000
REMARK INTER + INTRA:         -14.053
REMARK INTER:                 -12.456
REMARK INTRA:                  -1.597
REMARK CONF_INDEPENDENT:        2.983
REMARK UNBOUND:                -1.597
REMARK  10 active torsions:
REMARK  status: ('A' for Active; 'I' for Inactive)
REMARK    1  A    between atoms: C_2  and  N_3 
REMARK    2  A    between atoms: N_3  and  C_4 
REMARK    3  A    between atoms: N_3  and  C_6 
REMARK    4  A    between atoms: C_9  and  N_10 
REMARK    5  A    between atoms: C_16  and  N_17 
REMARK    6  A    between atoms: N_17  and  C_18 
REMARK    7  A    between atoms: C_18  and  N_20 
REMARK       I    between atoms: N_20  and  C_21 
REMARK    8  A    between atoms: C_21  and  C_23 
REMARK    9  A    between atoms: C_26  and  O_27 
REMARK   10  A    between atoms: C_30  and  O_31 
ROOT
ATOM      1  N   UNL d   1      28.051 -13.616   3.748  0.00  0.00    -0.150 N 
ATOM      2  N   UNL d   1      27.887 -14.797   3.122  0.00  0.00    -0.147 NA
ATOM      3  C   UNL d   1      27.851 -14.343   1.867  0.00  0.00     0.110 C 
ATOM      4  C   UNL d   1      28.681 -14.676   0.809  0.00  0.00     0.045 C 
ATOM      5  C   UNL d   1      28.513 -13.892  -0.373  0.00  0.00    -0.033 C 
ATOM      6  C   UNL d   1      29.753 -13.730  -1.206  0.00  0.00     0.050 C 
ATOM      7  C   UNL d   1      27.330 -13.144  -0.655  0.00  0.00     0.042 C 
ATOM      8  C   UNL d   1      26.637 -12.663   0.508  0.00  0.00     0.066 C 
ATOM      9  C   UNL d   1      27.126 -13.113   1.815  0.00  0.00     0.111 C 
ATOM     10  N   UNL d   1      27.409 -12.553   3.054  0.00  0.00    -0.147 NA
ENDROOT
BRANCH   7  11
ATOM     11  N   UNL d   1      26.977 -12.919  -2.099  0.00  0.00    -0.333 N 
ATOM     12  H   UNL d   1      27.673 -12.365  -2.593  0.00  0.00     0.168 HD
BRANCH  11  13
ATOM     13  C   UNL d   1      26.105 -13.657  -2.955  0.00  0.00     0.179 C 
ATOM     14  S   UNL d   1      26.046 -13.414  -4.614  0.00  0.00    -0.040 SA
BRANCH  13  15
ATOM     15  N   UNL d   1      25.192 -14.562  -2.287  0.00  0.00    -0.299 N 
ATOM     16  C   UNL d   1      25.504 -15.742  -1.575  0.00  0.00     0.260 C 
ATOM     17  O   UNL d   1      26.679 -15.980  -1.116  0.00  0.00    -0.267 OA
ATOM     18  H   UNL d   1      24.187 -14.388  -2.372  0.00  0.00     0.171 HD
BRANCH  16  19
ATOM     19  C   UNL d   1      24.546 -16.841  -1.233  0.00  0.00     0.065 A 
ATOM     20  C   UNL d   1      23.170 -16.477  -1.270  0.00  0.00     0.022 A 
ATOM     21  C   UNL d   1      22.151 -17.299  -0.760  0.00  0.00     0.038 A 
ATOM     22  C   UNL d   1      22.463 -18.544  -0.231  0.00  0.00     0.070 A 
ATOM     23  C   UNL d   1      23.809 -18.902  -0.144  0.00  0.00     0.074 A 
ATOM     24  C   UNL d   1      24.861 -18.064  -0.612  0.00  0.00     0.086 A 
BRANCH  22  25
ATOM     25  O   UNL d   1      21.395 -19.298   0.175  0.00  0.00    -0.356 OA
ATOM     26  C   UNL d   1      20.251 -19.306  -0.674  0.00  0.00     0.210 C 
ENDBRANCH  22  25
BRANCH  24  27
ATOM     27  O   UNL d   1      26.073 -18.613  -0.299  0.00  0.00    -0.355 OA
ATOM     28  C   UNL d   1      26.754 -18.204   0.866  0.00  0.00     0.210 C 
ENDBRANCH  24  27
ENDBRANCH  16  19
ENDBRANCH  13  15
ENDBRANCH  11  13
ENDBRANCH   7  11
BRANCH   1  29
ATOM     29  C   UNL d   1      28.348 -13.688   5.173  0.00  0.00     0.079 A 
ATOM     30  C   UNL d   1      27.812 -12.841   6.191  0.00  0.00     0.036 A 
ATOM     31  C   UNL d   1      28.337 -12.859   7.544  0.00  0.00     0.039 A 
ATOM     32  C   UNL d   1      29.400 -13.715   7.884  0.00  0.00     0.134 A 
ATOM     33  C   UNL d   1      29.965 -14.450   6.834  0.00  0.00     0.039 A 
ATOM     34  C   UNL d   1      29.454 -14.446   5.522  0.00  0.00     0.036 A 
BRANCH  32  35
ATOM     35  N   UNL d   1      29.889 -14.087   9.303  0.00  0.00    -0.042 N 
ATOM     36  H   UNL d   1      30.058 -15.091   9.168  0.00  0.00     0.286 HD
BRANCH  35  37
ATOM     37  C   UNL d   1      31.320 -13.591   9.567  0.00  0.00     0.237 C 
ATOM     38  C   UNL d   1      32.344 -14.646   9.962  0.00  0.00     0.035 C 
ENDBRANCH  35  37
BRANCH  35  39
ATOM     39  C   UNL d   1      28.771 -14.156  10.334  0.00  0.00     0.237 C 
ATOM     40  C   UNL d   1      28.336 -12.833  10.947  0.00  0.00     0.035 C 
ENDBRANCH  35  39
ENDBRANCH  32  35
ENDBRANCH   1  29
TORSDOF 10
ENDMDL
MODEL 2
REMARK VINA RESULT:    -9.021      1.223      1.735
REMARK INTER + INTRA:         -13.909
REMARK INTER:                 -12.004
REMARK INTRA:                  -1.905
REMARK CONF_INDEPENDENT:        2.983
REMARK UNBOUND:                -1.905
REMARK  10 active torsions:
REMARK  status: ('A' for Active; 'I' for Inactive)
REMARK    1  A    between atoms: C_2  and  N_3 
REMARK    2  A    between atoms: N_3  and  C_4 
REMARK    3  A    between atoms: N_3  and  C_6 
REMARK    4  A    between atoms: C_9  and  N_10 
REMARK    5  A    between atoms: C_16  and  N_17 
REMARK    6  A    between atoms: N_17  and  C_18 
REMARK    7  A    between atoms: C_18  and  N_20 
REMARK       I    between atoms: N_20  and  C_21 
REMARK    8  A    between atoms: C_21  and  C_23 
REMARK    9  A    between atoms: C_26  and  O_27 
REMARK   10  A    between atoms: C_30  and  O_31 
ROOT
ATOM      1  N   UNL d   1      27.950 -12.802   4.381  0.00  0.00    -0.150 N 
ATOM      2  N   UNL d   1      27.400 -13.986   4.050  0.00  0.00    -0.147 NA
ATOM      3  C   UNL d   1      27.606 -13.930   2.732  0.00  0.00     0.110 C 
ATOM      4  C   UNL d   1      28.317 -14.813   1.936  0.00  0.00     0.045 C 
ATOM      5  C   UNL d   1      28.516 -14.396   0.585  0.00  0.00    -0.033 C 
ATOM      6  C   UNL d   1      29.776 -14.907  -0.055  0.00  0.00     0.050 C 
ATOM      7  C   UNL d   1      27.708 -13.409  -0.058  0.00  0.00     0.042 C 
ATOM      8  C   UNL d   1      27.174 -12.409   0.824  0.00  0.00     0.066 C 
ATOM      9  C   UNL d   1      27.387 -12.599   2.263  0.00  0.00     0.111 C 
ATOM     10  N   UNL d   1      27.783 -11.834   3.352  0.00  0.00    -0.147 NA
ENDROOT
BRANCH   7  11
ATOM     11  N   UNL d   1      27.547 -13.506  -1.550  0.00  0.00    -0.333 N 
ATOM     12  H   UNL d   1      27.701 -12.617  -2.021  0.00  0.00     0.168 HD
BRANCH  11  13
ATOM     13  C   UNL d   1      27.631 -14.643  -2.408  0.00  0.00     0.179 C 
ATOM     14  S   UNL d   1      28.587 -14.669  -3.787  0.00  0.00    -0.040 SA
BRANCH  13  15
ATOM     15  N   UNL d   1      26.752 -15.746  -2.073  0.00  0.00    -0.299 N 
ATOM     16  C   UNL d   1      25.341 -15.775  -2.113  0.00  0.00     0.260 C 
ATOM     17  O   UNL d   1      24.654 -14.937  -2.802  0.00  0.00    -0.267 OA
ATOM     18  H   UNL d   1      27.170 -16.603  -1.701  0.00  0.00     0.171 HD
BRANCH  16  19
ATOM     19  C   UNL d   1      24.462 -16.765  -1.414  0.00  0.00     0.065 A 
ATOM     20  C   UNL d   1      23.102 -16.371  -1.271  0.00  0.00     0.022 A 
ATOM     21  C   UNL d   1      22.193 -17.057  -0.449  0.00  0.00     0.038 A 
ATOM     22  C   UNL d   1      22.597 -18.197   0.233  0.00  0.00     0.070 A 
ATOM     23  C   UNL d   1      23.937 -18.575   0.144  0.00  0.00     0.074 A 
ATOM     24  C   UNL d   1      24.886 -17.866  -0.647  0.00  0.00     0.086 A 
BRANCH  22  25
ATOM     25  O   UNL d   1      21.621 -18.833   0.952  0.00  0.00    -0.356 OA
ATOM     26  C   UNL d   1      20.605 -19.501   0.210  0.00  0.00     0.210 C 
ENDBRANCH  22  25
BRANCH  24  27
ATOM     27  O   UNL d   1      26.136 -18.388  -0.460  0.00  0.00    -0.355 OA
ATOM     28  C   UNL d   1      26.993 -17.836   0.513  0.00  0.00     0.210 C 
ENDBRANCH  24  27
ENDBRANCH  16  19
ENDBRANCH  13  15
ENDBRANCH  11  13
ENDBRANCH   7  11
BRANCH   1  29
ATOM     29  C   UNL d   1      28.116 -12.554   5.807  0.00  0.00     0.079 A 
ATOM     30  C   UNL d   1      28.152 -11.276   6.444  0.00  0.00     0.036 A 
ATOM     31  C   UNL d   1      28.538 -11.134   7.836  0.00  0.00     0.039 A 
ATOM     32  C   UNL d   1      28.892 -12.265   8.595  0.00  0.00     0.134 A 
ATOM     33  C   UNL d   1      28.946 -13.483   7.906  0.00  0.00     0.039 A 
ATOM     34  C   UNL d   1      28.563 -13.628   6.559  0.00  0.00     0.036 A 
BRANCH  32  35
ATOM     35  N   UNL d   1      29.040 -12.355  10.131  0.00  0.00    -0.042 N 
ATOM     36  H   UNL d   1      28.811 -11.386  10.383  0.00  0.00     0.286 HD
BRANCH  35  37
ATOM     37  C   UNL d   1      27.863 -13.102  10.779  0.00  0.00     0.237 C 
ATOM     38  C   UNL d   1      28.153 -14.496  11.318  0.00  0.00     0.035 C 
ENDBRANCH  35  37
BRANCH  35  39
ATOM     39  C   UNL d   1      30.486 -12.403  10.603  0.00  0.00     0.237 C 
ATOM     40  C   UNL d   1      31.500 -12.967   9.616  0.00  0.00     0.035 C 
ENDBRANCH  35  39
ENDBRANCH  32  35
ENDBRANCH   1  29
TORSDOF 10
ENDMDL
MODEL 3
REMARK VINA RESULT:    -9.004      1.825      2.508
REMARK INTER + INTRA:         -13.450
REMARK INTER:                 -11.987
REMARK INTRA:                  -1.462
REMARK CONF_INDEPENDENT:        2.983
REMARK UNBOUND:                -1.462
REMARK  10 active torsions:
REMARK  status: ('A' for Active; 'I' for Inactive)
REMARK    1  A    between atoms: C_2  and  N_3 
REMARK    2  A    between atoms: N_3  and  C_4 
REMARK    3  A    between atoms: N_3  and  C_6 
REMARK    4  A    between atoms: C_9  and  N_10 
REMARK    5  A    between atoms: C_16  and  N_17 
REMARK    6  A    between atoms: N_17  and  C_18 
REMARK    7  A    between atoms: C_18  and  N_20 
REMARK       I    between atoms: N_20  and  C_21 
REMARK    8  A    between atoms: C_21  and  C_23 
REMARK    9  A    between atoms: C_26  and  O_27 
REMARK   10  A    between atoms: C_30  and  O_31 
ROOT
ATOM      1  N   UNL d   1      29.059 -13.440   5.684  0.00  0.00    -0.150 N 
ATOM      2  N   UNL d   1      29.809 -14.537   5.461  0.00  0.00    -0.147 NA
ATOM      3  C   UNL d   1      29.764 -14.529   4.126  0.00  0.00     0.110 C 
ATOM      4  C   UNL d   1      30.821 -14.463   3.233  0.00  0.00     0.045 C 
ATOM      5  C   UNL d   1      30.456 -14.291   1.863  0.00  0.00    -0.033 C 
ATOM      6  C   UNL d   1      31.461 -13.549   1.029  0.00  0.00     0.050 C 
ATOM      7  C   UNL d   1      29.160 -14.607   1.352  0.00  0.00     0.042 C 
ATOM      8  C   UNL d   1      28.092 -14.452   2.300  0.00  0.00     0.066 C 
ATOM      9  C   UNL d   1      28.462 -14.144   3.685  0.00  0.00     0.111 C 
ATOM     10  N   UNL d   1      28.059 -13.269   4.686  0.00  0.00    -0.147 NA
ENDROOT
BRANCH   7  11
ATOM     11  N   UNL d   1      29.062 -15.016  -0.091  0.00  0.00    -0.333 N 
ATOM     12  H   UNL d   1      29.686 -15.785  -0.326  0.00  0.00     0.168 HD
BRANCH  11  13
ATOM     13  C   UNL d   1      28.006 -14.815  -1.031  0.00  0.00     0.179 C 
ATOM     14  S   UNL d   1      27.834 -13.396  -1.909  0.00  0.00    -0.040 SA
BRANCH  13  15
ATOM     15  N   UNL d   1      27.023 -15.878  -1.105  0.00  0.00    -0.299 N 
ATOM     16  C   UNL d   1      25.659 -15.775  -1.457  0.00  0.00     0.260 C 
ATOM     17  O   UNL d   1      25.189 -14.776  -2.113  0.00  0.00    -0.267 OA
ATOM     18  H   UNL d   1      27.303 -16.818  -0.815  0.00  0.00     0.171 HD
BRANCH  16  19
ATOM     19  C   UNL d   1      24.597 -16.789  -1.161  0.00  0.00     0.065 A 
ATOM     20  C   UNL d   1      23.260 -16.313  -1.268  0.00  0.00     0.022 A 
ATOM     21  C   UNL d   1      22.153 -17.044  -0.808  0.00  0.00     0.038 A 
ATOM     22  C   UNL d   1      22.334 -18.307  -0.261  0.00  0.00     0.070 A 
ATOM     23  C   UNL d   1      23.639 -18.775  -0.106  0.00  0.00     0.074 A 
ATOM     24  C   UNL d   1      24.779 -18.030  -0.522  0.00  0.00     0.086 A 
BRANCH  22  25
ATOM     25  O   UNL d   1      21.188 -18.968   0.092  0.00  0.00    -0.356 OA
ATOM     26  C   UNL d   1      20.322 -19.369  -0.965  0.00  0.00     0.210 C 
ENDBRANCH  22  25
BRANCH  24  27
ATOM     27  O   UNL d   1      25.924 -18.676  -0.148  0.00  0.00    -0.355 OA
ATOM     28  C   UNL d   1      26.668 -18.211   0.957  0.00  0.00     0.210 C 
ENDBRANCH  24  27
ENDBRANCH  16  19
ENDBRANCH  13  15
ENDBRANCH  11  13
ENDBRANCH   7  11
BRANCH   1  29
ATOM     29  C   UNL d   1      29.023 -12.963   7.060  0.00  0.00     0.079 A 
ATOM     30  C   UNL d   1      28.495 -11.713   7.507  0.00  0.00     0.036 A 
ATOM     31  C   UNL d   1      28.705 -11.246   8.866  0.00  0.00     0.039 A 
ATOM     32  C   UNL d   1      29.443 -12.020   9.779  0.00  0.00     0.134 A 
ATOM     33  C   UNL d   1      30.031 -13.185   9.271  0.00  0.00     0.039 A 
ATOM     34  C   UNL d   1      29.824 -13.649   7.958  0.00  0.00     0.036 A 
BRANCH  32  35
ATOM     35  N   UNL d   1      29.521 -11.842  11.312  0.00  0.00    -0.042 N 
ATOM     36  H   UNL d   1      29.014 -10.953  11.407  0.00  0.00     0.286 HD
BRANCH  35  37
ATOM     37  C   UNL d   1      28.568 -12.794  12.051  0.00  0.00     0.237 C 
ATOM     38  C   UNL d   1      27.842 -13.827  11.201  0.00  0.00     0.035 C 
ENDBRANCH  35  37
BRANCH  35  39
ATOM     39  C   UNL d   1      30.893 -11.402  11.806  0.00  0.00     0.237 C 
ATOM     40  C   UNL d   1      31.201  -9.915  11.708  0.00  0.00     0.035 C 
ENDBRANCH  35  39
ENDBRANCH  32  35
ENDBRANCH   1  29
TORSDOF 10
ENDMDL
MODEL 4
REMARK VINA RESULT:    -8.757      6.181      8.891
REMARK INTER + INTRA:         -13.634
REMARK INTER:                 -11.740
REMARK INTRA:                  -1.894
REMARK CONF_INDEPENDENT:        2.983
REMARK UNBOUND:                -1.894
REMARK  10 active torsions:
REMARK  status: ('A' for Active; 'I' for Inactive)
REMARK    1  A    between atoms: C_2  and  N_3 
REMARK    2  A    between atoms: N_3  and  C_4 
REMARK    3  A    between atoms: N_3  and  C_6 
REMARK    4  A    between atoms: C_9  and  N_10 
REMARK    5  A    between atoms: C_16  and  N_17 
REMARK    6  A    between atoms: N_17  and  C_18 
REMARK    7  A    between atoms: C_18  and  N_20 
REMARK       I    between atoms: N_20  and  C_21 
REMARK    8  A    between atoms: C_21  and  C_23 
REMARK    9  A    between atoms: C_26  and  O_27 
REMARK   10  A    between atoms: C_30  and  O_31 
ROOT
ATOM      1  N   UNL d   1      25.081 -16.263  -1.635  0.00  0.00    -0.150 N 
ATOM      2  N   UNL d   1      26.380 -16.444  -1.328  0.00  0.00    -0.147 NA
ATOM      3  C   UNL d   1      26.870 -15.357  -1.929  0.00  0.00     0.110 C 
ATOM      4  C   UNL d   1      27.589 -14.316  -1.366  0.00  0.00     0.045 C 
ATOM      5  C   UNL d   1      27.827 -13.200  -2.226  0.00  0.00    -0.033 C 
ATOM      6  C   UNL d   1      27.942 -11.876  -1.526  0.00  0.00     0.050 C 
ATOM      7  C   UNL d   1      27.759 -13.280  -3.650  0.00  0.00     0.042 C 
ATOM      8  C   UNL d   1      26.832 -14.257  -4.149  0.00  0.00     0.066 C 
ATOM      9  C   UNL d   1      26.192 -15.139  -3.167  0.00  0.00     0.111 C 
ATOM     10  N   UNL d   1      24.918 -15.618  -2.893  0.00  0.00    -0.147 NA
ENDROOT
BRANCH   7  11
ATOM     11  N   UNL d   1      28.615 -12.331  -4.442  0.00  0.00    -0.333 N 
ATOM     12  H   UNL d   1      28.985 -11.569  -3.877  0.00  0.00     0.168 HD
BRANCH  11  13
ATOM     13  C   UNL d   1      29.308 -12.532  -5.674  0.00  0.00     0.179 C 
ATOM     14  S   UNL d   1      29.277 -11.412  -6.923  0.00  0.00    -0.040 SA
BRANCH  13  15
ATOM     15  N   UNL d   1      29.958 -13.819  -5.823  0.00  0.00    -0.299 N 
ATOM     16  C   UNL d   1      29.353 -15.077  -6.038  0.00  0.00     0.260 C 
ATOM     17  O   UNL d   1      28.158 -15.200  -6.491  0.00  0.00    -0.267 OA
ATOM     18  H   UNL d   1      30.973 -13.866  -5.705  0.00  0.00     0.171 HD
BRANCH  16  19
ATOM     19  C   UNL d   1      29.996 -16.410  -5.808  0.00  0.00     0.065 A 
ATOM     20  C   UNL d   1      30.437 -17.080  -6.984  0.00  0.00     0.022 A 
ATOM     21  C   UNL d   1      30.847 -18.423  -6.988  0.00  0.00     0.038 A 
ATOM     22  C   UNL d   1      30.875 -19.143  -5.802  0.00  0.00     0.070 A 
ATOM     23  C   UNL d   1      30.404 -18.522  -4.645  0.00  0.00     0.074 A 
ATOM     24  C   UNL d   1      29.940 -17.175  -4.628  0.00  0.00     0.086 A 
BRANCH  22  25
ATOM     25  O   UNL d   1      31.355 -20.421  -5.898  0.00  0.00    -0.356 OA
ATOM     26  C   UNL d   1      31.506 -21.147  -4.682  0.00  0.00     0.210 C 
ENDBRANCH  22  25
BRANCH  24  27
ATOM     27  O   UNL d   1      29.438 -16.867  -3.395  0.00  0.00    -0.355 OA
ATOM     28  C   UNL d   1      30.176 -16.045  -2.517  0.00  0.00     0.210 C 
ENDBRANCH  24  27
ENDBRANCH  16  19
ENDBRANCH  13  15
ENDBRANCH  11  13
ENDBRANCH   7  11
BRANCH   1  29
ATOM     29  C   UNL d   1      24.140 -17.158  -0.974  0.00  0.00     0.079 A 
ATOM     30  C   UNL d   1      24.382 -18.518  -0.610  0.00  0.00     0.036 A 
ATOM     31  C   UNL d   1      23.308 -19.381  -0.153  0.00  0.00     0.039 A 
ATOM     32  C   UNL d   1      21.992 -18.893  -0.062  0.00  0.00     0.134 A 
ATOM     33  C   UNL d   1      21.780 -17.589  -0.528  0.00  0.00     0.039 A 
ATOM     34  C   UNL d   1      22.819 -16.743  -0.962  0.00  0.00     0.036 A 
BRANCH  32  35
ATOM     35  N   UNL d   1      20.795 -19.548   0.665  0.00  0.00    -0.042 N 
ATOM     36  H   UNL d   1      21.186 -20.484   0.828  0.00  0.00     0.286 HD
BRANCH  35  37
ATOM     37  C   UNL d   1      20.655 -19.044   2.111  0.00  0.00     0.237 C 
ATOM     38  C   UNL d   1      20.247 -20.075   3.155  0.00  0.00     0.035 C 
ENDBRANCH  35  37
BRANCH  35  39
ATOM     39  C   UNL d   1      19.644 -19.914  -0.261  0.00  0.00     0.237 C 
ATOM     40  C   UNL d   1      18.573 -20.826   0.320  0.00  0.00     0.035 C 
ENDBRANCH  35  39
ENDBRANCH  32  35
ENDBRANCH   1  29
TORSDOF 10
ENDMDL
MODEL 5
REMARK VINA RESULT:    -8.423      6.661      9.918
REMARK INTER + INTRA:         -12.926
REMARK INTER:                 -11.406
REMARK INTRA:                  -1.520
REMARK CONF_INDEPENDENT:        2.983
REMARK UNBOUND:                -1.520
REMARK  10 active torsions:
REMARK  status: ('A' for Active; 'I' for Inactive)
REMARK    1  A    between atoms: C_2  and  N_3 
REMARK    2  A    between atoms: N_3  and  C_4 
REMARK    3  A    between atoms: N_3  and  C_6 
REMARK    4  A    between atoms: C_9  and  N_10 
REMARK    5  A    between atoms: C_16  and  N_17 
REMARK    6  A    between atoms: N_17  and  C_18 
REMARK    7  A    between atoms: C_18  and  N_20 
REMARK       I    between atoms: N_20  and  C_21 
REMARK    8  A    between atoms: C_21  and  C_23 
REMARK    9  A    between atoms: C_26  and  O_27 
REMARK   10  A    between atoms: C_30  and  O_31 
ROOT
ATOM      1  N   UNL d   1      24.941 -16.160  -1.778  0.00  0.00    -0.150 N 
ATOM      2  N   UNL d   1      25.841 -15.533  -0.996  0.00  0.00    -0.147 NA
ATOM      3  C   UNL d   1      26.291 -14.652  -1.892  0.00  0.00     0.110 C 
ATOM      4  C   UNL d   1      26.282 -13.269  -1.815  0.00  0.00     0.045 C 
ATOM      5  C   UNL d   1      26.670 -12.586  -3.008  0.00  0.00    -0.033 C 
ATOM      6  C   UNL d   1      26.036 -11.237  -3.199  0.00  0.00     0.050 C 
ATOM      7  C   UNL d   1      27.433 -13.198  -4.048  0.00  0.00     0.042 C 
ATOM      8  C   UNL d   1      27.226 -14.613  -4.186  0.00  0.00     0.066 C 
ATOM      9  C   UNL d   1      26.393 -15.272  -3.174  0.00  0.00     0.111 C 
ATOM     10  N   UNL d   1      25.355 -16.193  -3.140  0.00  0.00    -0.147 NA
ENDROOT
BRANCH   7  11
ATOM     11  N   UNL d   1      28.314 -12.308  -4.881  0.00  0.00    -0.333 N 
ATOM     12  H   UNL d   1      29.134 -11.981  -4.376  0.00  0.00     0.168 HD
BRANCH  11  13
ATOM     13  C   UNL d   1      28.418 -12.192  -6.300  0.00  0.00     0.179 C 
ATOM     14  S   UNL d   1      27.442 -11.165  -7.198  0.00  0.00    -0.040 SA
BRANCH  13  15
ATOM     15  N   UNL d   1      29.354 -13.099  -6.935  0.00  0.00    -0.299 N 
ATOM     16  C   UNL d   1      29.353 -14.511  -6.900  0.00  0.00     0.260 C 
ATOM     17  O   UNL d   1      28.308 -15.193  -6.596  0.00  0.00    -0.267 OA
ATOM     18  H   UNL d   1      30.158 -12.701  -7.426  0.00  0.00     0.171 HD
BRANCH  16  19
ATOM     19  C   UNL d   1      30.514 -15.398  -7.227  0.00  0.00     0.065 A 
ATOM     20  C   UNL d   1      30.405 -16.737  -6.757  0.00  0.00     0.022 A 
ATOM     21  C   UNL d   1      31.482 -17.638  -6.767  0.00  0.00     0.038 A 
ATOM     22  C   UNL d   1      32.707 -17.249  -7.291  0.00  0.00     0.070 A 
ATOM     23  C   UNL d   1      32.851 -15.929  -7.717  0.00  0.00     0.074 A 
ATOM     24  C   UNL d   1      31.784 -14.985  -7.672  0.00  0.00     0.086 A 
BRANCH  22  25
ATOM     25  O   UNL d   1      33.672 -18.220  -7.320  0.00  0.00    -0.356 OA
ATOM     26  C   UNL d   1      33.688 -19.081  -8.454  0.00  0.00     0.210 C 
ENDBRANCH  22  25
BRANCH  24  27
ATOM     27  O   UNL d   1      32.236 -13.749  -8.042  0.00  0.00    -0.355 OA
ATOM     28  C   UNL d   1      32.760 -13.548  -9.336  0.00  0.00     0.210 C 
ENDBRANCH  24  27
ENDBRANCH  16  19
ENDBRANCH  13  15
ENDBRANCH  11  13
ENDBRANCH   7  11
BRANCH   1  29
ATOM     29  C   UNL d   1      24.054 -17.097  -1.103  0.00  0.00     0.079 A 
ATOM     30  C   UNL d   1      24.409 -18.389  -0.606  0.00  0.00     0.036 A 
ATOM     31  C   UNL d   1      23.401 -19.326  -0.145  0.00  0.00     0.039 A 
ATOM     32  C   UNL d   1      22.038 -18.981  -0.183  0.00  0.00     0.134 A 
ATOM     33  C   UNL d   1      21.725 -17.750  -0.774  0.00  0.00     0.039 A 
ATOM     34  C   UNL d   1      22.699 -16.832  -1.213  0.00  0.00     0.036 A 
BRANCH  32  35
ATOM     35  N   UNL d   1      20.867 -19.704   0.521  0.00  0.00    -0.042 N 
ATOM     36  H   UNL d   1      21.312 -20.611   0.706  0.00  0.00     0.286 HD
BRANCH  35  37
ATOM     37  C   UNL d   1      20.655 -19.195   1.956  0.00  0.00     0.237 C 
ATOM     38  C   UNL d   1      19.972 -20.151   2.925  0.00  0.00     0.035 C 
ENDBRANCH  35  37
BRANCH  35  39
ATOM     39  C   UNL d   1      19.767 -20.153  -0.431  0.00  0.00     0.237 C 
ATOM     40  C   UNL d   1      18.428 -20.505   0.202  0.00  0.00     0.035 C 
ENDBRANCH  35  39
ENDBRANCH  32  35
ENDBRANCH   1  29
TORSDOF 10
ENDMDL
MODEL 6
REMARK VINA RESULT:    -8.267      6.670      9.403
REMARK INTER + INTRA:         -12.971
REMARK INTER:                 -11.250
REMARK INTRA:                  -1.722
REMARK CONF_INDEPENDENT:        2.983
REMARK UNBOUND:                -1.722
REMARK  10 active torsions:
REMARK  status: ('A' for Active; 'I' for Inactive)
REMARK    1  A    between atoms: C_2  and  N_3 
REMARK    2  A    between atoms: N_3  and  C_4 
REMARK    3  A    between atoms: N_3  and  C_6 
REMARK    4  A    between atoms: C_9  and  N_10 
REMARK    5  A    between atoms: C_16  and  N_17 
REMARK    6  A    between atoms: N_17  and  C_18 
REMARK    7  A    between atoms: C_18  and  N_20 
REMARK       I    between atoms: N_20  and  C_21 
REMARK    8  A    between atoms: C_21  and  C_23 
REMARK    9  A    between atoms: C_26  and  O_27 
REMARK   10  A    between atoms: C_30  and  O_31 
ROOT
ATOM      1  N   UNL d   1      25.143 -16.327  -1.635  0.00  0.00    -0.150 N 
ATOM      2  N   UNL d   1      24.657 -15.190  -2.170  0.00  0.00    -0.147 NA
ATOM      3  C   UNL d   1      25.765 -14.785  -2.794  0.00  0.00     0.110 C 
ATOM      4  C   UNL d   1      25.947 -14.534  -4.144  0.00  0.00     0.045 C 
ATOM      5  C   UNL d   1      27.295 -14.284  -4.546  0.00  0.00    -0.033 C 
ATOM      6  C   UNL d   1      27.621 -14.696  -5.953  0.00  0.00     0.050 C 
ATOM      7  C   UNL d   1      28.318 -13.871  -3.640  0.00  0.00     0.042 C 
ATOM      8  C   UNL d   1      28.153 -14.349  -2.295  0.00  0.00     0.066 C 
ATOM      9  C   UNL d   1      26.908 -15.059  -1.982  0.00  0.00     0.111 C 
ATOM     10  N   UNL d   1      26.524 -16.214  -1.315  0.00  0.00    -0.147 NA
ENDROOT
BRANCH   7  11
ATOM     11  N   UNL d   1      29.441 -13.037  -4.192  0.00  0.00    -0.333 N 
ATOM     12  H   UNL d   1      29.754 -12.319  -3.543  0.00  0.00     0.168 HD
BRANCH  11  13
ATOM     13  C   UNL d   1      30.373 -13.331  -5.232  0.00  0.00     0.179 C 
ATOM     14  S   UNL d   1      30.795 -12.214  -6.411  0.00  0.00    -0.040 SA
BRANCH  13  15
ATOM     15  N   UNL d   1      30.859 -14.696  -5.270  0.00  0.00    -0.299 N 
ATOM     16  C   UNL d   1      31.110 -15.496  -6.407  0.00  0.00     0.260 C 
ATOM     17  O   UNL d   1      31.284 -14.997  -7.577  0.00  0.00    -0.267 OA
ATOM     18  H   UNL d   1      30.989 -15.190  -4.384  0.00  0.00     0.171 HD
BRANCH  16  19
ATOM     19  C   UNL d   1      31.236 -16.988  -6.420  0.00  0.00     0.065 A 
ATOM     20  C   UNL d   1      31.277 -17.581  -7.713  0.00  0.00     0.022 A 
ATOM     21  C   UNL d   1      31.161 -18.965  -7.920  0.00  0.00     0.038 A 
ATOM     22  C   UNL d   1      31.044 -19.822  -6.834  0.00  0.00     0.070 A 
ATOM     23  C   UNL d   1      30.956 -19.261  -5.561  0.00  0.00     0.074 A 
ATOM     24  C   UNL d   1      31.024 -17.856  -5.332  0.00  0.00     0.086 A 
BRANCH  22  25
ATOM     25  O   UNL d   1      31.007 -21.157  -7.136  0.00  0.00    -0.356 OA
ATOM     26  C   UNL d   1      31.921 -22.001  -6.442  0.00  0.00     0.210 C 
ENDBRANCH  22  25
BRANCH  24  27
ATOM     27  O   UNL d   1      30.799 -17.584  -4.011  0.00  0.00    -0.355 OA
ATOM     28  C   UNL d   1      31.145 -18.533  -3.026  0.00  0.00     0.210 C 
ENDBRANCH  24  27
ENDBRANCH  16  19
ENDBRANCH  13  15
ENDBRANCH  11  13
ENDBRANCH   7  11
BRANCH   1  29
ATOM     29  C   UNL d   1      24.162 -17.208  -1.015  0.00  0.00     0.079 A 
ATOM     30  C   UNL d   1      24.397 -18.539  -0.550  0.00  0.00     0.036 A 
ATOM     31  C   UNL d   1      23.303 -19.404  -0.148  0.00  0.00     0.039 A 
ATOM     32  C   UNL d   1      21.974 -18.948  -0.213  0.00  0.00     0.134 A 
ATOM     33  C   UNL d   1      21.780 -17.679  -0.773  0.00  0.00     0.039 A 
ATOM     34  C   UNL d   1      22.837 -16.831  -1.155  0.00  0.00     0.036 A 
BRANCH  32  35
ATOM     35  N   UNL d   1      20.727 -19.594   0.434  0.00  0.00    -0.042 N 
ATOM     36  H   UNL d   1      21.034 -20.574   0.456  0.00  0.00     0.286 HD
BRANCH  35  37
ATOM     37  C   UNL d   1      20.637 -19.291   1.938  0.00  0.00     0.237 C 
ATOM     38  C   UNL d   1      19.869 -20.292   2.791  0.00  0.00     0.035 C 
ENDBRANCH  35  37
BRANCH  35  39
ATOM     39  C   UNL d   1      19.544 -19.722  -0.516  0.00  0.00     0.237 C 
ATOM     40  C   UNL d   1      18.416 -20.641  -0.069  0.00  0.00     0.035 C 
ENDBRANCH  35  39
ENDBRANCH  32  35
ENDBRANCH   1  29
TORSDOF 10
ENDMDL
MODEL 7
REMARK VINA RESULT:    -8.247      6.630      9.538
REMARK INTER + INTRA:         -13.043
REMARK INTER:                 -11.230
REMARK INTRA:                  -1.813
REMARK CONF_INDEPENDENT:        2.983
REMARK UNBOUND:                -1.813
REMARK  10 active torsions:
REMARK  status: ('A' for Active; 'I' for Inactive)
REMARK    1  A    between atoms: C_2  and  N_3 
REMARK    2  A    between atoms: N_3  and  C_4 
REMARK    3  A    between atoms: N_3  and  C_6 
REMARK    4  A    between atoms: C_9  and  N_10 
REMARK    5  A    between atoms: C_16  and  N_17 
REMARK    6  A    between atoms: N_17  and  C_18 
REMARK    7  A    between atoms: C_18  and  N_20 
REMARK       I    between atoms: N_20  and  C_21 
REMARK    8  A    between atoms: C_21  and  C_23 
REMARK    9  A    between atoms: C_26  and  O_27 
REMARK   10  A    between atoms: C_30  and  O_31 
ROOT
ATOM      1  N   UNL d   1      25.177 -16.631  -1.507  0.00  0.00    -0.150 N 
ATOM      2  N   UNL d   1      24.749 -15.420  -1.913  0.00  0.00    -0.147 NA
ATOM      3  C   UNL d   1      25.844 -15.046  -2.580  0.00  0.00     0.110 C 
ATOM      4  C   UNL d   1      25.957 -14.695  -3.915  0.00  0.00     0.045 C 
ATOM      5  C   UNL d   1      27.292 -14.512  -4.390  0.00  0.00    -0.033 C 
ATOM      6  C   UNL d   1      27.493 -14.825  -5.845  0.00  0.00     0.050 C 
ATOM      7  C   UNL d   1      28.401 -14.253  -3.529  0.00  0.00     0.042 C 
ATOM      8  C   UNL d   1      28.286 -14.830  -2.218  0.00  0.00     0.066 C 
ATOM      9  C   UNL d   1      27.011 -15.471  -1.876  0.00  0.00     0.111 C 
ATOM     10  N   UNL d   1      26.581 -16.648  -1.277  0.00  0.00    -0.147 NA
ENDROOT
BRANCH   7  11
ATOM     11  N   UNL d   1      29.548 -13.461  -4.091  0.00  0.00    -0.333 N 
ATOM     12  H   UNL d   1      29.621 -12.531  -3.684  0.00  0.00     0.168 HD
BRANCH  11  13
ATOM     13  C   UNL d   1      30.737 -13.907  -4.743  0.00  0.00     0.179 C 
ATOM     14  S   UNL d   1      32.183 -13.058  -4.671  0.00  0.00    -0.040 SA
BRANCH  13  15
ATOM     15  N   UNL d   1      30.592 -15.091  -5.567  0.00  0.00    -0.299 N 
ATOM     16  C   UNL d   1      30.287 -16.405  -5.150  0.00  0.00     0.260 C 
ATOM     17  O   UNL d   1      29.738 -16.660  -4.017  0.00  0.00    -0.267 OA
ATOM     18  H   UNL d   1      30.787 -15.013  -6.568  0.00  0.00     0.171 HD
BRANCH  16  19
ATOM     19  C   UNL d   1      30.517 -17.654  -5.944  0.00  0.00     0.065 A 
ATOM     20  C   UNL d   1      30.405 -18.868  -5.209  0.00  0.00     0.022 A 
ATOM     21  C   UNL d   1      30.810 -20.110  -5.723  0.00  0.00     0.038 A 
ATOM     22  C   UNL d   1      31.304 -20.197  -7.018  0.00  0.00     0.070 A 
ATOM     23  C   UNL d   1      31.465 -19.015  -7.741  0.00  0.00     0.074 A 
ATOM     24  C   UNL d   1      31.104 -17.739  -7.220  0.00  0.00     0.086 A 
BRANCH  22  25
ATOM     25  O   UNL d   1      31.605 -21.460  -7.451  0.00  0.00    -0.356 OA
ATOM     26  C   UNL d   1      32.156 -22.358  -6.492  0.00  0.00     0.210 C 
ENDBRANCH  22  25
BRANCH  24  27
ATOM     27  O   UNL d   1      31.472 -16.754  -8.094  0.00  0.00    -0.355 OA
ATOM     28  C   UNL d   1      32.822 -16.355  -8.180  0.00  0.00     0.210 C 
ENDBRANCH  24  27
ENDBRANCH  16  19
ENDBRANCH  13  15
ENDBRANCH  11  13
ENDBRANCH   7  11
BRANCH   1  29
ATOM     29  C   UNL d   1      24.172 -17.487  -0.891  0.00  0.00     0.079 A 
ATOM     30  C   UNL d   1      24.329 -18.866  -0.553  0.00  0.00     0.036 A 
ATOM     31  C   UNL d   1      23.198 -19.679  -0.145  0.00  0.00     0.039 A 
ATOM     32  C   UNL d   1      21.909 -19.122  -0.077  0.00  0.00     0.134 A 
ATOM     33  C   UNL d   1      21.780 -17.799  -0.518  0.00  0.00     0.039 A 
ATOM     34  C   UNL d   1      22.875 -17.002  -0.905  0.00  0.00     0.036 A 
BRANCH  32  35
ATOM     35  N   UNL d   1      20.659 -19.727   0.603  0.00  0.00    -0.042 N 
ATOM     36  H   UNL d   1      20.994 -20.686   0.755  0.00  0.00     0.286 HD
BRANCH  35  37
ATOM     37  C   UNL d   1      20.506 -19.247   2.055  0.00  0.00     0.237 C 
ATOM     38  C   UNL d   1      20.249 -20.320   3.104  0.00  0.00     0.035 C 
ENDBRANCH  35  37
BRANCH  35  39
ATOM     39  C   UNL d   1      19.516 -20.010  -0.362  0.00  0.00     0.237 C 
ATOM     40  C   UNL d   1      18.354 -20.825   0.189  0.00  0.00     0.035 C 
ENDBRANCH  35  39
ENDBRANCH  32  35
ENDBRANCH   1  29
TORSDOF 10
ENDMDL
MODEL 8
REMARK VINA RESULT:    -8.177      6.400      9.554
REMARK INTER + INTRA:         -12.970
REMARK INTER:                 -11.160
REMARK INTRA:                  -1.810
REMARK CONF_INDEPENDENT:        2.983
REMARK UNBOUND:                -1.810
REMARK  10 active torsions:
REMARK  status: ('A' for Active; 'I' for Inactive)
REMARK    1  A    between atoms: C_2  and  N_3 
REMARK    2  A    between atoms: N_3  and  C_4 
REMARK    3  A    between atoms: N_3  and  C_6 
REMARK    4  A    between atoms: C_9  and  N_10 
REMARK    5  A    between atoms: C_16  and  N_17 
REMARK    6  A    between atoms: N_17  and  C_18 
REMARK    7  A    between atoms: C_18  and  N_20 
REMARK       I    between atoms: N_20  and  C_21 
REMARK    8  A    between atoms: C_21  and  C_23 
REMARK    9  A    between atoms: C_26  and  O_27 
REMARK   10  A    between atoms: C_30  and  O_31 
ROOT
ATOM      1  N   UNL d   1      25.039 -16.159  -1.576  0.00  0.00    -0.150 N 
ATOM      2  N   UNL d   1      24.463 -15.219  -2.348  0.00  0.00    -0.147 NA
ATOM      3  C   UNL d   1      25.572 -14.719  -2.898  0.00  0.00     0.110 C 
ATOM      4  C   UNL d   1      25.904 -14.641  -4.241  0.00  0.00     0.045 C 
ATOM      5  C   UNL d   1      27.240 -14.217  -4.518  0.00  0.00    -0.033 C 
ATOM      6  C   UNL d   1      27.827 -14.766  -5.787  0.00  0.00     0.050 C 
ATOM      7  C   UNL d   1      28.044 -13.499  -3.582  0.00  0.00     0.042 C 
ATOM      8  C   UNL d   1      27.764 -13.795  -2.205  0.00  0.00     0.066 C 
ATOM      9  C   UNL d   1      26.614 -14.662  -1.924  0.00  0.00     0.111 C 
ATOM     10  N   UNL d   1      26.325 -15.756  -1.120  0.00  0.00    -0.147 NA
ENDROOT
BRANCH   7  11
ATOM     11  N   UNL d   1      29.090 -12.569  -4.132  0.00  0.00    -0.333 N 
ATOM     12  H   UNL d   1      29.984 -13.030  -4.289  0.00  0.00     0.168 HD
BRANCH  11  13
ATOM     13  C   UNL d   1      28.940 -11.333  -4.831  0.00  0.00     0.179 C 
ATOM     14  S   UNL d   1      29.450 -11.122  -6.416  0.00  0.00    -0.040 SA
BRANCH  13  15
ATOM     15  N   UNL d   1      28.414 -10.232  -4.049  0.00  0.00    -0.299 N 
ATOM     16  C   UNL d   1      28.552 -10.009  -2.661  0.00  0.00     0.260 C 
ATOM     17  O   UNL d   1      29.473 -10.567  -1.961  0.00  0.00    -0.267 OA
ATOM     18  H   UNL d   1      27.815  -9.547  -4.517  0.00  0.00     0.171 HD
BRANCH  16  19
ATOM     19  C   UNL d   1      27.700  -9.102  -1.829  0.00  0.00     0.065 A 
ATOM     20  C   UNL d   1      27.805  -9.295  -0.422  0.00  0.00     0.022 A 
ATOM     21  C   UNL d   1      26.922  -8.703   0.495  0.00  0.00     0.038 A 
ATOM     22  C   UNL d   1      25.920  -7.854   0.046  0.00  0.00     0.070 A 
ATOM     23  C   UNL d   1      25.770  -7.685  -1.331  0.00  0.00     0.074 A 
ATOM     24  C   UNL d   1      26.626  -8.313  -2.281  0.00  0.00     0.086 A 
BRANCH  22  25
ATOM     25  O   UNL d   1      25.156  -7.273   1.022  0.00  0.00    -0.356 OA
ATOM     26  C   UNL d   1      25.049  -5.853   0.998  0.00  0.00     0.210 C 
ENDBRANCH  22  25
BRANCH  24  27
ATOM     27  O   UNL d   1      26.182  -8.063  -3.549  0.00  0.00    -0.355 OA
ATOM     28  C   UNL d   1      25.201  -8.893  -4.131  0.00  0.00     0.210 C 
ENDBRANCH  24  27
ENDBRANCH  16  19
ENDBRANCH  13  15
ENDBRANCH  11  13
ENDBRANCH   7  11
BRANCH   1  29
ATOM     29  C   UNL d   1      24.130 -17.100  -0.935  0.00  0.00     0.079 A 
ATOM     30  C   UNL d   1      24.425 -18.454  -0.584  0.00  0.00     0.036 A 
ATOM     31  C   UNL d   1      23.384 -19.366  -0.148  0.00  0.00     0.039 A 
ATOM     32  C   UNL d   1      22.048 -18.935  -0.066  0.00  0.00     0.134 A 
ATOM     33  C   UNL d   1      21.786 -17.635  -0.518  0.00  0.00     0.039 A 
ATOM     34  C   UNL d   1      22.793 -16.742  -0.932  0.00  0.00     0.036 A 
BRANCH  32  35
ATOM     35  N   UNL d   1      20.873 -19.648   0.642  0.00  0.00    -0.042 N 
ATOM     36  H   UNL d   1      21.319 -20.550   0.848  0.00  0.00     0.286 HD
BRANCH  35  37
ATOM     37  C   UNL d   1      20.647 -19.112   2.065  0.00  0.00     0.237 C 
ATOM     38  C   UNL d   1      20.282 -20.138   3.130  0.00  0.00     0.035 C 
ENDBRANCH  35  37
BRANCH  35  39
ATOM     39  C   UNL d   1      19.782 -20.119  -0.311  0.00  0.00     0.237 C 
ATOM     40  C   UNL d   1      18.538 -20.718   0.330  0.00  0.00     0.035 C 
ENDBRANCH  35  39
ENDBRANCH  32  35
ENDBRANCH   1  29
TORSDOF 10
ENDMDL
MODEL 9
REMARK VINA RESULT:    -7.930      6.242     10.106
REMARK INTER + INTRA:         -12.834
REMARK INTER:                 -10.913
REMARK INTRA:                  -1.921
REMARK CONF_INDEPENDENT:        2.983
REMARK UNBOUND:                -1.921
REMARK  10 active torsions:
REMARK  status: ('A' for Active; 'I' for Inactive)
REMARK    1  A    between atoms: C_2  and  N_3 
REMARK    2  A    between atoms: N_3  and  C_4 
REMARK    3  A    between atoms: N_3  and  C_6 
REMARK    4  A    between atoms: C_9  and  N_10 
REMARK    5  A    between atoms: C_16  and  N_17 
REMARK    6  A    between atoms: N_17  and  C_18 
REMARK    7  A    between atoms: C_18  and  N_20 
REMARK       I    between atoms: N_20  and  C_21 
REMARK    8  A    between atoms: C_21  and  C_23 
REMARK    9  A    between atoms: C_26  and  O_27 
REMARK   10  A    between atoms: C_30  and  O_31 
ROOT
ATOM      1  N   UNL d   1      29.841 -16.367  -6.151  0.00  0.00    -0.150 N 
ATOM      2  N   UNL d   1      30.150 -15.578  -7.197  0.00  0.00    -0.147 NA
ATOM      3  C   UNL d   1      29.656 -14.432  -6.723  0.00  0.00     0.110 C 
ATOM      4  C   UNL d   1      30.320 -13.237  -6.503  0.00  0.00     0.045 C 
ATOM      5  C   UNL d   1      29.568 -12.233  -5.818  0.00  0.00    -0.033 C 
ATOM      6  C   UNL d   1      30.385 -11.289  -4.984  0.00  0.00     0.050 C 
ATOM      7  C   UNL d   1      28.141 -12.234  -5.751  0.00  0.00     0.042 C 
ATOM      8  C   UNL d   1      27.543 -13.540  -5.784  0.00  0.00     0.066 C 
ATOM      9  C   UNL d   1      28.433 -14.680  -6.029  0.00  0.00     0.111 C 
ATOM     10  N   UNL d   1      28.644 -15.949  -5.506  0.00  0.00    -0.147 NA
ENDROOT
BRANCH   7  11
ATOM     11  N   UNL d   1      27.451 -10.905  -5.618  0.00  0.00    -0.333 N 
ATOM     12  H   UNL d   1      27.692 -10.259  -6.367  0.00  0.00     0.168 HD
BRANCH  11  13
ATOM     13  C   UNL d   1      26.262 -10.557  -4.909  0.00  0.00     0.179 C 
ATOM     14  S   UNL d   1      25.602  -9.015  -4.948  0.00  0.00    -0.040 SA
BRANCH  13  15
ATOM     15  N   UNL d   1      25.713 -11.597  -4.061  0.00  0.00    -0.299 N 
ATOM     16  C   UNL d   1      26.345 -12.269  -2.991  0.00  0.00     0.260 C 
ATOM     17  O   UNL d   1      27.375 -11.793  -2.390  0.00  0.00    -0.267 OA
ATOM     18  H   UNL d   1      24.777 -11.953  -4.273  0.00  0.00     0.171 HD
BRANCH  16  19
ATOM     19  C   UNL d   1      25.912 -13.572  -2.393  0.00  0.00     0.065 A 
ATOM     20  C   UNL d   1      26.366 -13.809  -1.066  0.00  0.00     0.022 A 
ATOM     21  C   UNL d   1      26.256 -15.060  -0.436  0.00  0.00     0.038 A 
ATOM     22  C   UNL d   1      25.644 -16.117  -1.094  0.00  0.00     0.070 A 
ATOM     23  C   UNL d   1      25.231 -15.920  -2.412  0.00  0.00     0.074 A 
ATOM     24  C   UNL d   1      25.376 -14.673  -3.086  0.00  0.00     0.086 A 
BRANCH  22  25
ATOM     25  O   UNL d   1      25.523 -17.273  -0.370  0.00  0.00    -0.356 OA
ATOM     26  C   UNL d   1      24.320 -18.017  -0.539  0.00  0.00     0.210 C 
ENDBRANCH  22  25
BRANCH  24  27
ATOM     27  O   UNL d   1      24.992 -14.799  -4.392  0.00  0.00    -0.355 OA
ATOM     28  C   UNL d   1      25.530 -15.830  -5.190  0.00  0.00     0.210 C 
ENDBRANCH  24  27
ENDBRANCH  16  19
ENDBRANCH  13  15
ENDBRANCH  11  13
ENDBRANCH   7  11
BRANCH   1  29
ATOM     29  C   UNL d   1      30.405 -17.710  -6.179  0.00  0.00     0.079 A 
ATOM     30  C   UNL d   1      30.892 -18.398  -7.333  0.00  0.00     0.036 A 
ATOM     31  C   UNL d   1      31.232 -19.809  -7.286  0.00  0.00     0.039 A 
ATOM     32  C   UNL d   1      31.084 -20.537  -6.091  0.00  0.00     0.134 A 
ATOM     33  C   UNL d   1      30.505 -19.853  -5.015  0.00  0.00     0.039 A 
ATOM     34  C   UNL d   1      30.183 -18.482  -5.051  0.00  0.00     0.036 A 
BRANCH  32  35
ATOM     35  N   UNL d   1      31.658 -21.936  -5.768  0.00  0.00    -0.042 N 
ATOM     36  H   UNL d   1      30.817 -22.505  -5.919  0.00  0.00     0.286 HD
BRANCH  35  37
ATOM     37  C   UNL d   1      32.563 -22.460  -6.893  0.00  0.00     0.237 C 
ATOM     38  C   UNL d   1      31.952 -23.488  -7.837  0.00  0.00     0.035 C 
ENDBRANCH  35  37
BRANCH  35  39
ATOM     39  C   UNL d   1      31.862 -22.181  -4.279  0.00  0.00     0.237 C 
ATOM     40  C   UNL d   1      30.677 -22.763  -3.522  0.00  0.00     0.035 C 
ENDBRANCH  35  39
ENDBRANCH  32  35
ENDBRANCH   1  29
TORSDOF 10
ENDMDL
