MODEL 1
REMARK VINA RESULT:   -13.427      0.000      0.000
REMARK INTER + INTRA:         -14.988
REMARK INTER:                 -14.620
REMARK INTRA:                  -0.368
REMARK CONF_INDEPENDENT:        1.193
REMARK UNBOUND:                -0.368
REMARK  4 active torsions:
REMARK  status: ('A' for Active; 'I' for Inactive)
REMARK       I    between atoms: C_2  and  N_3 
REMARK       I    between atoms: C_2  and  N_12 
REMARK    1  A    between atoms: N_3  and  O_4 
REMARK    2  A    between atoms: O_4  and  C_5 
REMARK    3  A    between atoms: C_5  and  C_6 
REMARK    4  A    between atoms: N_12  and  C_13 
ROOT
ATOM      1  O   UNL d   1      20.675 -16.998  -2.020  0.00  0.00    -0.252 OA
ATOM      2  C   UNL d   1      20.655 -17.795  -1.080  0.00  0.00     0.318 C 
ATOM      3  N   UNL d   1      21.682 -18.016  -0.208  0.00  0.00    -0.221 N 
ATOM      4  N   UNL d   1      19.530 -18.575  -0.895  0.00  0.00    -0.234 NA
ATOM      5  H   UNL d   1      21.642 -18.691   0.538  0.00  0.00     0.198 HD
ATOM      6  H   UNL d   1      18.897 -18.419  -1.672  0.00  0.00     0.133 HD
ENDROOT
BRANCH   3   7
ATOM      7  O   UNL d   1      22.822 -17.184  -0.300  0.00  0.00    -0.272 OA
BRANCH   7   8
ATOM      8  C   UNL d   1      23.809 -17.803  -1.135  0.00  0.00     0.240 C 
BRANCH   8   9
ATOM      9  C   UNL d   1      25.129 -17.089  -0.989  0.00  0.00    -0.032 A 
ATOM     10  C   UNL d   1      25.823 -17.103   0.232  0.00  0.00     0.009 A 
ATOM     11  C   UNL d   1      26.998 -16.366   0.387  0.00  0.00     0.001 A 
ATOM     12  C   UNL d   1      27.540 -15.677  -0.697  0.00  0.00     0.000 A 
ATOM     13  C   UNL d   1      26.881 -15.689  -1.925  0.00  0.00     0.001 A 
ATOM     14  C   UNL d   1      25.678 -16.383  -2.067  0.00  0.00     0.009 A 
ENDBRANCH   8   9
ENDBRANCH   7   8
ENDBRANCH   3   7
BRANCH   4  15
ATOM     15  C   UNL d   1      19.644 -19.970  -0.521  0.00  0.00     0.098 C 
ATOM     16  C   UNL d   1      18.289 -20.624  -0.893  0.00  0.00     0.029 C 
ATOM     17  C   UNL d   1      17.564 -21.002   0.393  0.00  0.00     0.041 C 
ATOM     18  C   UNL d   1      18.589 -20.794   1.451  0.00  0.00    -0.047 A 
ATOM     19  C   UNL d   1      18.405 -21.046   2.799  0.00  0.00     0.049 A 
ATOM     20  C   UNL d   1      19.761 -20.212   0.961  0.00  0.00    -0.034 A 
ATOM     21  C   UNL d   1      19.418 -20.690   3.675  0.00  0.00     0.117 A 
ATOM     22  F   UNL d   1      19.203 -20.784   4.993  0.00  0.00    -0.206 F 
ATOM     23  C   UNL d   1      20.638 -20.195   3.204  0.00  0.00     0.043 A 
ATOM     24  C   UNL d   1      20.819 -19.955   1.833  0.00  0.00     0.012 A 
ENDBRANCH   4  15
TORSDOF 4
ENDMDL
