MODEL 1
REMARK VINA RESULT:    -9.591      0.000      0.000
REMARK INTER + INTRA:         -13.552
REMARK INTER:                 -11.679
REMARK INTRA:                  -1.873
REMARK CONF_INDEPENDENT:        2.088
REMARK UNBOUND:                -1.873
REMARK  7 active torsions:
REMARK  status: ('A' for Active; 'I' for Inactive)
REMARK    1  A    between atoms: C_2  and  C_3 
REMARK       I    between atoms: C_2  and  N_15 
REMARK    2  A    between atoms: C_3  and  N_4 
REMARK    3  A    between atoms: C_6  and  C_7 
REMARK    4  A    between atoms: N_15  and  C_16 
REMARK    5  A    between atoms: C_17  and  C_16 
REMARK    6  A    between atoms: C_17  and  C_27 
REMARK    7  A    between atoms: C_17  and  C_18 
ROOT
ATOM      1  C   UNL d   1      26.669 -15.823  -0.955  0.00  0.00     0.136 C 
ENDROOT
BRANCH   1   2
ATOM      2  N   UNL d   1      26.656 -16.735   0.169  0.00  0.00    -0.359 N 
ATOM      3  C   UNL d   1      25.807 -17.837   0.264  0.00  0.00     0.237 C 
ATOM      4  O   UNL d   1      25.903 -18.575   1.243  0.00  0.00    -0.272 OA
ATOM      5  H   UNL d   1      27.271 -16.613   0.972  0.00  0.00     0.162 HD
BRANCH   3   6
ATOM      6  C   UNL d   1      24.809 -18.101  -0.891  0.00  0.00     0.251 C 
BRANCH   6   7
ATOM      7  N   UNL d   1      23.395 -18.127  -0.511  0.00  0.00    -0.247 N 
ATOM      8  N   UNL d   1      22.742 -19.321  -0.117  0.00  0.00    -0.199 NA
ATOM      9  C   UNL d   1      21.387 -19.080  -0.641  0.00  0.00     0.265 C 
ATOM     10  H   UNL d   1      22.656 -19.224   0.903  0.00  0.00     0.150 HD
ATOM     11  O   UNL d   1      21.209 -17.664  -0.695  0.00  0.00    -0.275 OA
ATOM     12  C   UNL d   1      22.473 -17.141  -0.779  0.00  0.00     0.379 C 
ATOM     13  O   UNL d   1      22.712 -15.969  -1.064  0.00  0.00    -0.237 OA
BRANCH   9  14
ATOM     14  C   UNL d   1      20.279 -19.710   0.172  0.00  0.00     0.027 A 
ATOM     15  C   UNL d   1      19.181 -20.449  -0.237  0.00  0.00     0.019 A 
ATOM     16  C   UNL d   1      18.335 -20.846   0.845  0.00  0.00     0.008 A 
ATOM     17  C   UNL d   1      18.816 -20.423   2.063  0.00  0.00     0.050 A 
ATOM     18  S   UNL d   1      20.281 -19.555   1.894  0.00  0.00    -0.102 SA
ENDBRANCH   9  14
ENDBRANCH   6   7
ENDBRANCH   3   6
ENDBRANCH   1   2
BRANCH   1  19
ATOM     19  C   UNL d   1      26.274 -14.310  -0.841  0.00  0.00     0.069 C 
BRANCH  19  20
ATOM     20  C   UNL d   1      27.185 -13.381  -0.050  0.00  0.00    -0.026 C 
ATOM     21  C   UNL d   1      26.686 -12.579   0.997  0.00  0.00     0.009 C 
ATOM     22  C   UNL d   1      27.391 -11.513   1.523  0.00  0.00     0.001 C 
ATOM     23  C   UNL d   1      28.721 -11.374   1.192  0.00  0.00     0.002 C 
ATOM     24  C   UNL d   1      29.322 -12.301   0.339  0.00  0.00     0.024 C 
ATOM     25  C   UNL d   1      28.549 -13.253  -0.334  0.00  0.00     0.041 C 
ATOM     26 CL   UNL d   1      29.328 -14.244  -1.514  0.00  0.00    -0.084 Cl
ENDBRANCH  19  20
BRANCH  19  27
ATOM     27  C   UNL d   1      25.973 -13.796  -2.231  0.00  0.00    -0.040 A 
ATOM     28  C   UNL d   1      26.318 -12.614  -2.760  0.00  0.00    -0.005 A 
ATOM     29  C   UNL d   1      27.017 -11.478  -2.246  0.00  0.00     0.014 A 
ATOM     30  C   UNL d   1      25.637 -12.574  -4.062  0.00  0.00     0.038 A 
ATOM     31  C   UNL d   1      27.011 -10.344  -2.958  0.00  0.00     0.001 A 
ATOM     32  C   UNL d   1      26.377 -10.282  -4.263  0.00  0.00     0.002 A 
ATOM     33  C   UNL d   1      25.720 -11.317  -4.828  0.00  0.00     0.030 A 
ATOM     34  N   UNL d   1      25.028 -13.670  -4.321  0.00  0.00    -0.385 N 
ATOM     35  C   UNL d   1      25.169 -14.615  -3.193  0.00  0.00     0.155 A 
ATOM     36  H   UNL d   1      24.508 -13.840  -5.179  0.00  0.00     0.160 HD
ENDBRANCH  19  27
ENDBRANCH   1  19
TORSDOF 7
ENDMDL
MODEL 2
REMARK VINA RESULT:    -9.561      1.657      2.446
REMARK INTER + INTRA:         -13.956
REMARK INTER:                 -11.649
REMARK INTRA:                  -2.307
REMARK CONF_INDEPENDENT:        2.088
REMARK UNBOUND:                -2.307
REMARK  7 active torsions:
REMARK  status: ('A' for Active; 'I' for Inactive)
REMARK    1  A    between atoms: C_2  and  C_3 
REMARK       I    between atoms: C_2  and  N_15 
REMARK    2  A    between atoms: C_3  and  N_4 
REMARK    3  A    between atoms: C_6  and  C_7 
REMARK    4  A    between atoms: N_15  and  C_16 
REMARK    5  A    between atoms: C_17  and  C_16 
REMARK    6  A    between atoms: C_17  and  C_27 
REMARK    7  A    between atoms: C_17  and  C_18 
ROOT
ATOM      1  C   UNL d   1      26.126 -15.261  -0.405  0.00  0.00     0.136 C 
ENDROOT
BRANCH   1   2
ATOM      2  N   UNL d   1      26.413 -16.385   0.461  0.00  0.00    -0.359 N 
ATOM      3  C   UNL d   1      25.888 -17.662   0.273  0.00  0.00     0.237 C 
ATOM      4  O   UNL d   1      26.226 -18.560   1.042  0.00  0.00    -0.272 OA
ATOM      5  H   UNL d   1      27.018 -16.299   1.276  0.00  0.00     0.162 HD
BRANCH   3   6
ATOM      6  C   UNL d   1      24.931 -17.898  -0.923  0.00  0.00     0.251 C 
BRANCH   6   7
ATOM      7  N   UNL d   1      23.504 -17.924  -0.595  0.00  0.00    -0.247 N 
ATOM      8  N   UNL d   1      22.837 -19.117  -0.222  0.00  0.00    -0.199 NA
ATOM      9  C   UNL d   1      21.502 -18.876  -0.796  0.00  0.00     0.265 C 
ATOM     10  H   UNL d   1      22.714 -19.017   0.793  0.00  0.00     0.150 HD
ATOM     11  O   UNL d   1      21.326 -17.461  -0.860  0.00  0.00    -0.275 OA
ATOM     12  C   UNL d   1      22.592 -16.938  -0.898  0.00  0.00     0.379 C 
ATOM     13  O   UNL d   1      22.842 -15.767  -1.177  0.00  0.00    -0.237 OA
BRANCH   9  14
ATOM     14  C   UNL d   1      20.365 -19.505  -0.023  0.00  0.00     0.027 A 
ATOM     15  C   UNL d   1      19.246 -20.183  -0.475  0.00  0.00     0.019 A 
ATOM     16  C   UNL d   1      18.376 -20.602   0.580  0.00  0.00     0.008 A 
ATOM     17  C   UNL d   1      18.860 -20.255   1.820  0.00  0.00     0.050 A 
ATOM     18  S   UNL d   1      20.357 -19.433   1.705  0.00  0.00    -0.102 SA
ENDBRANCH   9  14
ENDBRANCH   6   7
ENDBRANCH   3   6
ENDBRANCH   1   2
BRANCH   1  19
ATOM     19  C   UNL d   1      27.173 -14.648  -1.397  0.00  0.00     0.069 C 
BRANCH  19  20
ATOM     20  C   UNL d   1      28.426 -15.452  -1.718  0.00  0.00    -0.026 C 
ATOM     21  C   UNL d   1      28.619 -16.034  -2.987  0.00  0.00     0.009 C 
ATOM     22  C   UNL d   1      29.566 -17.013  -3.224  0.00  0.00     0.001 C 
ATOM     23  C   UNL d   1      30.519 -17.257  -2.259  0.00  0.00     0.002 C 
ATOM     24  C   UNL d   1      30.506 -16.520  -1.073  0.00  0.00     0.024 C 
ATOM     25  C   UNL d   1      29.431 -15.678  -0.771  0.00  0.00     0.041 C 
ATOM     26 CL   UNL d   1      29.390 -14.944   0.790  0.00  0.00    -0.084 Cl
ENDBRANCH  19  20
BRANCH  19  27
ATOM     27  C   UNL d   1      26.437 -14.187  -2.635  0.00  0.00    -0.040 A 
ATOM     28  C   UNL d   1      26.806 -13.232  -3.500  0.00  0.00    -0.005 A 
ATOM     29  C   UNL d   1      27.925 -12.344  -3.560  0.00  0.00     0.014 A 
ATOM     30  C   UNL d   1      25.660 -13.088  -4.409  0.00  0.00     0.038 A 
ATOM     31  C   UNL d   1      27.898 -11.336  -4.440  0.00  0.00     0.001 A 
ATOM     32  C   UNL d   1      26.796 -11.187  -5.375  0.00  0.00     0.002 A 
ATOM     33  C   UNL d   1      25.718 -11.997  -5.399  0.00  0.00     0.030 A 
ATOM     34  N   UNL d   1      24.741 -13.945  -4.164  0.00  0.00    -0.385 N 
ATOM     35  C   UNL d   1      25.114 -14.783  -3.005  0.00  0.00     0.155 A 
ATOM     36  H   UNL d   1      23.873 -14.012  -4.693  0.00  0.00     0.160 HD
ENDBRANCH  19  27
ENDBRANCH   1  19
TORSDOF 7
ENDMDL
MODEL 3
REMARK VINA RESULT:    -9.528      2.512      3.630
REMARK INTER + INTRA:         -13.520
REMARK INTER:                 -11.616
REMARK INTRA:                  -1.904
REMARK CONF_INDEPENDENT:        2.088
REMARK UNBOUND:                -1.904
REMARK  7 active torsions:
REMARK  status: ('A' for Active; 'I' for Inactive)
REMARK    1  A    between atoms: C_2  and  C_3 
REMARK       I    between atoms: C_2  and  N_15 
REMARK    2  A    between atoms: C_3  and  N_4 
REMARK    3  A    between atoms: C_6  and  C_7 
REMARK    4  A    between atoms: N_15  and  C_16 
REMARK    5  A    between atoms: C_17  and  C_16 
REMARK    6  A    between atoms: C_17  and  C_27 
REMARK    7  A    between atoms: C_17  and  C_18 
ROOT
ATOM      1  C   UNL d   1      27.240 -16.932  -1.504  0.00  0.00     0.136 C 
ENDROOT
BRANCH   1   2
ATOM      2  N   UNL d   1      26.888 -17.408  -0.183  0.00  0.00    -0.359 N 
ATOM      3  C   UNL d   1      25.672 -18.017   0.124  0.00  0.00     0.237 C 
ATOM      4  O   UNL d   1      25.486 -18.423   1.270  0.00  0.00    -0.272 OA
ATOM      5  H   UNL d   1      27.518 -17.313   0.611  0.00  0.00     0.162 HD
BRANCH   3   6
ATOM      6  C   UNL d   1      24.627 -18.186  -1.007  0.00  0.00     0.251 C 
BRANCH   6   7
ATOM      7  N   UNL d   1      23.229 -18.231  -0.574  0.00  0.00    -0.247 N 
ATOM      8  N   UNL d   1      22.608 -19.431  -0.145  0.00  0.00    -0.199 NA
ATOM      9  C   UNL d   1      21.232 -19.214  -0.620  0.00  0.00     0.265 C 
ATOM     10  H   UNL d   1      22.560 -19.325   0.876  0.00  0.00     0.150 HD
ATOM     11  O   UNL d   1      21.030 -17.802  -0.680  0.00  0.00    -0.275 OA
ATOM     12  C   UNL d   1      22.282 -17.260  -0.815  0.00  0.00     0.379 C 
ATOM     13  O   UNL d   1      22.492 -16.088  -1.120  0.00  0.00    -0.237 OA
BRANCH   9  14
ATOM     14  C   UNL d   1      20.165 -19.854   0.240  0.00  0.00     0.027 A 
ATOM     15  C   UNL d   1      19.058 -20.603  -0.122  0.00  0.00     0.019 A 
ATOM     16  C   UNL d   1      18.261 -21.007   0.995  0.00  0.00     0.008 A 
ATOM     17  C   UNL d   1      18.788 -20.576   2.191  0.00  0.00     0.050 A 
ATOM     18  S   UNL d   1      20.237 -19.694   1.960  0.00  0.00    -0.102 SA
ENDBRANCH   9  14
ENDBRANCH   6   7
ENDBRANCH   3   6
ENDBRANCH   1   2
BRANCH   1  19
ATOM     19  C   UNL d   1      28.532 -16.097  -1.803  0.00  0.00     0.069 C 
BRANCH  19  20
ATOM     20  C   UNL d   1      29.482 -16.592  -2.885  0.00  0.00    -0.026 C 
ATOM     21  C   UNL d   1      29.383 -16.134  -4.215  0.00  0.00     0.009 C 
ATOM     22  C   UNL d   1      30.002 -16.773  -5.273  0.00  0.00     0.001 C 
ATOM     23  C   UNL d   1      30.945 -17.740  -5.000  0.00  0.00     0.002 C 
ATOM     24  C   UNL d   1      31.250 -18.053  -3.674  0.00  0.00     0.024 C 
ATOM     25  C   UNL d   1      30.478 -17.540  -2.627  0.00  0.00     0.041 C 
ATOM     26 CL   UNL d   1      30.792 -18.115  -1.030  0.00  0.00    -0.084 Cl
ENDBRANCH  19  20
BRANCH  19  27
ATOM     27  C   UNL d   1      28.125 -14.653  -1.995  0.00  0.00    -0.040 A 
ATOM     28  C   UNL d   1      27.119 -14.176  -2.741  0.00  0.00    -0.005 A 
ATOM     29  C   UNL d   1      26.151 -14.797  -3.590  0.00  0.00     0.014 A 
ATOM     30  C   UNL d   1      27.279 -12.716  -2.696  0.00  0.00     0.038 A 
ATOM     31  C   UNL d   1      25.405 -14.023  -4.388  0.00  0.00     0.001 A 
ATOM     32  C   UNL d   1      25.515 -12.575  -4.342  0.00  0.00     0.002 A 
ATOM     33  C   UNL d   1      26.385 -11.913  -3.551  0.00  0.00     0.030 A 
ATOM     34  N   UNL d   1      28.229 -12.360  -1.916  0.00  0.00    -0.385 N 
ATOM     35  C   UNL d   1      28.896 -13.547  -1.342  0.00  0.00     0.155 A 
ATOM     36  H   UNL d   1      28.487 -11.389  -1.744  0.00  0.00     0.160 HD
ENDBRANCH  19  27
ENDBRANCH   1  19
TORSDOF 7
ENDMDL
MODEL 4
REMARK VINA RESULT:    -9.490      1.398      2.071
REMARK INTER + INTRA:         -13.497
REMARK INTER:                 -11.578
REMARK INTRA:                  -1.919
REMARK CONF_INDEPENDENT:        2.088
REMARK UNBOUND:                -1.919
REMARK  7 active torsions:
REMARK  status: ('A' for Active; 'I' for Inactive)
REMARK    1  A    between atoms: C_2  and  C_3 
REMARK       I    between atoms: C_2  and  N_15 
REMARK    2  A    between atoms: C_3  and  N_4 
REMARK    3  A    between atoms: C_6  and  C_7 
REMARK    4  A    between atoms: N_15  and  C_16 
REMARK    5  A    between atoms: C_17  and  C_16 
REMARK    6  A    between atoms: C_17  and  C_27 
REMARK    7  A    between atoms: C_17  and  C_18 
ROOT
ATOM      1  C   UNL d   1      27.452 -15.792  -0.210  0.00  0.00     0.136 C 
ENDROOT
BRANCH   1   2
ATOM      2  N   UNL d   1      27.296 -16.967   0.621  0.00  0.00    -0.359 N 
ATOM      3  C   UNL d   1      26.339 -17.956   0.393  0.00  0.00     0.237 C 
ATOM      4  O   UNL d   1      26.315 -18.937   1.134  0.00  0.00    -0.272 OA
ATOM      5  H   UNL d   1      27.879 -17.133   1.438  0.00  0.00     0.162 HD
BRANCH   3   6
ATOM      6  C   UNL d   1      25.378 -17.789  -0.811  0.00  0.00     0.251 C 
BRANCH   6   7
ATOM      7  N   UNL d   1      23.951 -17.791  -0.485  0.00  0.00    -0.247 N 
ATOM      8  N   UNL d   1      23.292 -18.942   0.016  0.00  0.00    -0.199 NA
ATOM      9  C   UNL d   1      21.957 -18.778  -0.584  0.00  0.00     0.265 C 
ATOM     10  H   UNL d   1      23.166 -18.733   1.014  0.00  0.00     0.150 HD
ATOM     11  O   UNL d   1      21.770 -17.380  -0.802  0.00  0.00    -0.275 OA
ATOM     12  C   UNL d   1      23.031 -16.852  -0.895  0.00  0.00     0.379 C 
ATOM     13  O   UNL d   1      23.271 -15.717  -1.300  0.00  0.00    -0.237 OA
BRANCH   9  14
ATOM     14  C   UNL d   1      20.824 -19.329   0.252  0.00  0.00     0.027 A 
ATOM     15  C   UNL d   1      20.655 -19.345   1.627  0.00  0.00     0.019 A 
ATOM     16  C   UNL d   1      19.449 -19.995   2.038  0.00  0.00     0.008 A 
ATOM     17  C   UNL d   1      18.710 -20.443   0.968  0.00  0.00     0.050 A 
ATOM     18  S   UNL d   1      19.469 -20.075  -0.521  0.00  0.00    -0.102 SA
ENDBRANCH   9  14
ENDBRANCH   6   7
ENDBRANCH   3   6
ENDBRANCH   1   2
BRANCH   1  19
ATOM     19  C   UNL d   1      26.890 -14.381   0.179  0.00  0.00     0.069 C 
BRANCH  19  20
ATOM     20  C   UNL d   1      27.593 -13.599   1.280  0.00  0.00    -0.026 C 
ATOM     21  C   UNL d   1      26.893 -13.132   2.411  0.00  0.00     0.009 C 
ATOM     22  C   UNL d   1      27.404 -12.171   3.263  0.00  0.00     0.001 C 
ATOM     23  C   UNL d   1      28.736 -11.834   3.153  0.00  0.00     0.002 C 
ATOM     24  C   UNL d   1      29.531 -12.461   2.193  0.00  0.00     0.024 C 
ATOM     25  C   UNL d   1      28.954 -13.281   1.218  0.00  0.00     0.041 C 
ATOM     26 CL   UNL d   1      29.968 -13.872  -0.049  0.00  0.00    -0.084 Cl
ENDBRANCH  19  20
BRANCH  19  27
ATOM     27  C   UNL d   1      26.712 -13.578  -1.091  0.00  0.00    -0.040 A 
ATOM     28  C   UNL d   1      26.311 -14.020  -2.291  0.00  0.00    -0.005 A 
ATOM     29  C   UNL d   1      25.956 -15.313  -2.790  0.00  0.00     0.014 A 
ATOM     30  C   UNL d   1      26.472 -12.867  -3.187  0.00  0.00     0.038 A 
ATOM     31  C   UNL d   1      25.810 -15.473  -4.111  0.00  0.00     0.001 A 
ATOM     32  C   UNL d   1      25.929 -14.346  -5.020  0.00  0.00     0.002 A 
ATOM     33  C   UNL d   1      26.235 -13.093  -4.625  0.00  0.00     0.030 A 
ATOM     34  N   UNL d   1      26.839 -11.815  -2.557  0.00  0.00    -0.385 N 
ATOM     35  C   UNL d   1      27.030 -12.115  -1.122  0.00  0.00     0.155 A 
ATOM     36  H   UNL d   1      26.993 -10.913  -3.003  0.00  0.00     0.160 HD
ENDBRANCH  19  27
ENDBRANCH   1  19
TORSDOF 7
ENDMDL
MODEL 5
REMARK VINA RESULT:    -9.468      4.326      7.503
REMARK INTER + INTRA:         -13.389
REMARK INTER:                 -11.556
REMARK INTRA:                  -1.834
REMARK CONF_INDEPENDENT:        2.088
REMARK UNBOUND:                -1.834
REMARK  7 active torsions:
REMARK  status: ('A' for Active; 'I' for Inactive)
REMARK    1  A    between atoms: C_2  and  C_3 
REMARK       I    between atoms: C_2  and  N_15 
REMARK    2  A    between atoms: C_3  and  N_4 
REMARK    3  A    between atoms: C_6  and  C_7 
REMARK    4  A    between atoms: N_15  and  C_16 
REMARK    5  A    between atoms: C_17  and  C_16 
REMARK    6  A    between atoms: C_17  and  C_27 
REMARK    7  A    between atoms: C_17  and  C_18 
ROOT
ATOM      1  C   UNL d   1      26.284 -14.372  -0.322  0.00  0.00     0.136 C 
ENDROOT
BRANCH   1   2
ATOM      2  N   UNL d   1      27.243 -13.328  -0.617  0.00  0.00    -0.359 N 
ATOM      3  C   UNL d   1      28.453 -13.173   0.058  0.00  0.00     0.237 C 
ATOM      4  O   UNL d   1      29.217 -12.277  -0.297  0.00  0.00    -0.272 OA
ATOM      5  H   UNL d   1      27.078 -12.631  -1.341  0.00  0.00     0.162 HD
BRANCH   3   6
ATOM      6  C   UNL d   1      28.792 -14.164   1.199  0.00  0.00     0.251 C 
BRANCH   6   7
ATOM      7  N   UNL d   1      28.404 -13.736   2.545  0.00  0.00    -0.247 N 
ATOM      8  N   UNL d   1      29.202 -14.008   3.684  0.00  0.00    -0.199 NA
ATOM      9  C   UNL d   1      28.162 -14.187   4.711  0.00  0.00     0.265 C 
ATOM     10  H   UNL d   1      29.637 -13.101   3.897  0.00  0.00     0.150 HD
ATOM     11  O   UNL d   1      27.026 -13.435   4.288  0.00  0.00    -0.275 OA
ATOM     12  C   UNL d   1      27.145 -13.329   2.926  0.00  0.00     0.379 C 
ATOM     13  O   UNL d   1      26.243 -12.941   2.187  0.00  0.00    -0.237 OA
BRANCH   9  14
ATOM     14  C   UNL d   1      28.577 -13.760   6.102  0.00  0.00     0.027 A 
ATOM     15  C   UNL d   1      29.282 -14.450   7.074  0.00  0.00     0.019 A 
ATOM     16  C   UNL d   1      29.446 -13.707   8.285  0.00  0.00     0.008 A 
ATOM     17  C   UNL d   1      28.882 -12.454   8.205  0.00  0.00     0.050 A 
ATOM     18  S   UNL d   1      28.165 -12.182   6.676  0.00  0.00    -0.102 SA
ENDBRANCH   9  14
ENDBRANCH   6   7
ENDBRANCH   3   6
ENDBRANCH   1   2
BRANCH   1  19
ATOM     19  C   UNL d   1      26.073 -15.630  -1.233  0.00  0.00     0.069 C 
BRANCH  19  20
ATOM     20  C   UNL d   1      24.946 -16.594  -0.888  0.00  0.00    -0.026 C 
ATOM     21  C   UNL d   1      23.610 -16.322  -1.249  0.00  0.00     0.009 C 
ATOM     22  C   UNL d   1      22.535 -16.993  -0.697  0.00  0.00     0.001 C 
ATOM     23  C   UNL d   1      22.777 -18.131   0.042  0.00  0.00     0.002 C 
ATOM     24  C   UNL d   1      24.088 -18.575   0.219  0.00  0.00     0.024 C 
ATOM     25  C   UNL d   1      25.168 -17.779  -0.178  0.00  0.00     0.041 C 
ATOM     26 CL   UNL d   1      26.758 -18.303   0.240  0.00  0.00    -0.084 Cl
ENDBRANCH  19  20
BRANCH  19  27
ATOM     27  C   UNL d   1      26.031 -15.168  -2.672  0.00  0.00    -0.040 A 
ATOM     28  C   UNL d   1      26.992 -15.284  -3.599  0.00  0.00    -0.005 A 
ATOM     29  C   UNL d   1      28.319 -15.817  -3.571  0.00  0.00     0.014 A 
ATOM     30  C   UNL d   1      26.490 -14.531  -4.756  0.00  0.00     0.038 A 
ATOM     31  C   UNL d   1      29.127 -15.583  -4.613  0.00  0.00     0.001 A 
ATOM     32  C   UNL d   1      28.649 -14.872  -5.787  0.00  0.00     0.002 A 
ATOM     33  C   UNL d   1      27.405 -14.361  -5.900  0.00  0.00     0.030 A 
ATOM     34  N   UNL d   1      25.301 -14.095  -4.567  0.00  0.00    -0.385 N 
ATOM     35  C   UNL d   1      24.830 -14.455  -3.213  0.00  0.00     0.155 A 
ATOM     36  H   UNL d   1      24.777 -13.560  -5.258  0.00  0.00     0.160 HD
ENDBRANCH  19  27
ENDBRANCH   1  19
TORSDOF 7
ENDMDL
MODEL 6
REMARK VINA RESULT:    -9.353      1.628      4.033
REMARK INTER + INTRA:         -13.722
REMARK INTER:                 -11.441
REMARK INTRA:                  -2.281
REMARK CONF_INDEPENDENT:        2.088
REMARK UNBOUND:                -2.281
REMARK  7 active torsions:
REMARK  status: ('A' for Active; 'I' for Inactive)
REMARK    1  A    between atoms: C_2  and  C_3 
REMARK       I    between atoms: C_2  and  N_15 
REMARK    2  A    between atoms: C_3  and  N_4 
REMARK    3  A    between atoms: C_6  and  C_7 
REMARK    4  A    between atoms: N_15  and  C_16 
REMARK    5  A    between atoms: C_17  and  C_16 
REMARK    6  A    between atoms: C_17  and  C_27 
REMARK    7  A    between atoms: C_17  and  C_18 
ROOT
ATOM      1  C   UNL d   1      27.367 -16.511  -1.261  0.00  0.00     0.136 C 
ENDROOT
BRANCH   1   2
ATOM      2  N   UNL d   1      27.114 -17.197  -0.012  0.00  0.00    -0.359 N 
ATOM      3  C   UNL d   1      26.002 -18.006   0.217  0.00  0.00     0.237 C 
ATOM      4  O   UNL d   1      25.899 -18.578   1.300  0.00  0.00    -0.272 OA
ATOM      5  H   UNL d   1      27.740 -17.116   0.787  0.00  0.00     0.162 HD
BRANCH   3   6
ATOM      6  C   UNL d   1      24.967 -18.177  -0.924  0.00  0.00     0.251 C 
BRANCH   6   7
ATOM      7  N   UNL d   1      23.562 -18.131  -0.515  0.00  0.00    -0.247 N 
ATOM      8  N   UNL d   1      22.801 -19.306  -0.296  0.00  0.00    -0.199 NA
ATOM      9  C   UNL d   1      21.470 -18.859  -0.739  0.00  0.00     0.265 C 
ATOM     10  H   UNL d   1      22.737 -19.366   0.728  0.00  0.00     0.150 HD
ATOM     11  O   UNL d   1      21.429 -17.443  -0.564  0.00  0.00    -0.275 OA
ATOM     12  C   UNL d   1      22.736 -17.033  -0.598  0.00  0.00     0.379 C 
ATOM     13  O   UNL d   1      23.084 -15.858  -0.701  0.00  0.00    -0.237 OA
BRANCH   9  14
ATOM     14  C   UNL d   1      20.316 -19.505  -0.005  0.00  0.00     0.027 A 
ATOM     15  C   UNL d   1      19.150 -20.068  -0.496  0.00  0.00     0.019 A 
ATOM     16  C   UNL d   1      18.281 -20.551   0.533  0.00  0.00     0.008 A 
ATOM     17  C   UNL d   1      18.811 -20.365   1.789  0.00  0.00     0.050 A 
ATOM     18  S   UNL d   1      20.349 -19.618   1.720  0.00  0.00    -0.102 SA
ENDBRANCH   9  14
ENDBRANCH   6   7
ENDBRANCH   3   6
ENDBRANCH   1   2
BRANCH   1  19
ATOM     19  C   UNL d   1      27.678 -14.977  -1.354  0.00  0.00     0.069 C 
BRANCH  19  20
ATOM     20  C   UNL d   1      26.916 -14.143  -2.375  0.00  0.00    -0.026 C 
ATOM     21  C   UNL d   1      25.587 -14.453  -2.731  0.00  0.00     0.009 C 
ATOM     22  C   UNL d   1      24.974 -13.932  -3.855  0.00  0.00     0.001 C 
ATOM     23  C   UNL d   1      25.585 -12.888  -4.516  0.00  0.00     0.002 C 
ATOM     24  C   UNL d   1      26.799 -12.387  -4.044  0.00  0.00     0.024 C 
ATOM     25  C   UNL d   1      27.496 -13.051  -3.029  0.00  0.00     0.041 C 
ATOM     26 CL   UNL d   1      29.075 -12.484  -2.624  0.00  0.00    -0.084 Cl
ENDBRANCH  19  20
BRANCH  19  27
ATOM     27  C   UNL d   1      27.615 -14.398   0.042  0.00  0.00    -0.040 A 
ATOM     28  C   UNL d   1      28.627 -14.225   0.904  0.00  0.00    -0.005 A 
ATOM     29  C   UNL d   1      30.024 -14.524   0.846  0.00  0.00     0.014 A 
ATOM     30  C   UNL d   1      27.985 -13.785   2.151  0.00  0.00     0.038 A 
ATOM     31  C   UNL d   1      30.747 -14.435   1.969  0.00  0.00     0.001 A 
ATOM     32  C   UNL d   1      30.150 -13.970   3.210  0.00  0.00     0.002 A 
ATOM     33  C   UNL d   1      28.847 -13.646   3.339  0.00  0.00     0.030 A 
ATOM     34  N   UNL d   1      26.724 -13.618   2.010  0.00  0.00    -0.385 N 
ATOM     35  C   UNL d   1      26.309 -13.970   0.636  0.00  0.00     0.155 A 
ATOM     36  H   UNL d   1      26.107 -13.305   2.757  0.00  0.00     0.160 HD
ENDBRANCH  19  27
ENDBRANCH   1  19
TORSDOF 7
ENDMDL
MODEL 7
REMARK VINA RESULT:    -9.190      1.808      2.374
REMARK INTER + INTRA:         -13.307
REMARK INTER:                 -11.278
REMARK INTRA:                  -2.028
REMARK CONF_INDEPENDENT:        2.088
REMARK UNBOUND:                -2.028
REMARK  7 active torsions:
REMARK  status: ('A' for Active; 'I' for Inactive)
REMARK    1  A    between atoms: C_2  and  C_3 
REMARK       I    between atoms: C_2  and  N_15 
REMARK    2  A    between atoms: C_3  and  N_4 
REMARK    3  A    between atoms: C_6  and  C_7 
REMARK    4  A    between atoms: N_15  and  C_16 
REMARK    5  A    between atoms: C_17  and  C_16 
REMARK    6  A    between atoms: C_17  and  C_27 
REMARK    7  A    between atoms: C_17  and  C_18 
ROOT
ATOM      1  C   UNL d   1      27.591 -16.134  -0.667  0.00  0.00     0.136 C 
ENDROOT
BRANCH   1   2
ATOM      2  N   UNL d   1      27.352 -16.933   0.516  0.00  0.00    -0.359 N 
ATOM      3  C   UNL d   1      26.376 -17.926   0.596  0.00  0.00     0.237 C 
ATOM      4  O   UNL d   1      26.280 -18.577   1.635  0.00  0.00    -0.272 OA
ATOM      5  H   UNL d   1      27.885 -16.803   1.373  0.00  0.00     0.162 HD
BRANCH   3   6
ATOM      6  C   UNL d   1      25.486 -18.187  -0.645  0.00  0.00     0.251 C 
BRANCH   6   7
ATOM      7  N   UNL d   1      24.043 -18.091  -0.419  0.00  0.00    -0.247 N 
ATOM      8  N   UNL d   1      23.244 -19.229  -0.144  0.00  0.00    -0.199 NA
ATOM      9  C   UNL d   1      21.982 -18.844  -0.799  0.00  0.00     0.265 C 
ATOM     10  H   UNL d   1      23.056 -19.154   0.864  0.00  0.00     0.150 HD
ATOM     11  O   UNL d   1      21.941 -17.418  -0.815  0.00  0.00    -0.275 OA
ATOM     12  C   UNL d   1      23.249 -17.014  -0.743  0.00  0.00     0.379 C 
ATOM     13  O   UNL d   1      23.624 -15.862  -0.954  0.00  0.00    -0.237 OA
BRANCH   9  14
ATOM     14  C   UNL d   1      20.739 -19.391  -0.134  0.00  0.00     0.027 A 
ATOM     15  C   UNL d   1      20.505 -19.711   1.193  0.00  0.00     0.019 A 
ATOM     16  C   UNL d   1      19.195 -20.238   1.422  0.00  0.00     0.008 A 
ATOM     17  C   UNL d   1      18.447 -20.290   0.268  0.00  0.00     0.050 A 
ATOM     18  S   UNL d   1      19.324 -19.700  -1.078  0.00  0.00    -0.102 SA
ENDBRANCH   9  14
ENDBRANCH   6   7
ENDBRANCH   3   6
ENDBRANCH   1   2
BRANCH   1  19
ATOM     19  C   UNL d   1      27.213 -14.616  -0.773  0.00  0.00     0.069 C 
BRANCH  19  20
ATOM     20  C   UNL d   1      28.208 -13.583  -0.261  0.00  0.00    -0.026 C 
ATOM     21  C   UNL d   1      29.419 -13.332  -0.937  0.00  0.00     0.009 C 
ATOM     22  C   UNL d   1      30.472 -12.650  -0.357  0.00  0.00     0.001 C 
ATOM     23  C   UNL d   1      30.250 -11.977   0.825  0.00  0.00     0.002 C 
ATOM     24  C   UNL d   1      28.982 -12.001   1.407  0.00  0.00     0.024 C 
ATOM     25  C   UNL d   1      27.988 -12.853   0.911  0.00  0.00     0.041 C 
ATOM     26 CL   UNL d   1      26.508 -12.970   1.791  0.00  0.00    -0.084 Cl
ENDBRANCH  19  20
BRANCH  19  27
ATOM     27  C   UNL d   1      26.756 -14.341  -2.188  0.00  0.00    -0.040 A 
ATOM     28  C   UNL d   1      27.338 -14.737  -3.329  0.00  0.00    -0.005 A 
ATOM     29  C   UNL d   1      28.526 -15.480  -3.615  0.00  0.00     0.014 A 
ATOM     30  C   UNL d   1      26.577 -14.063  -4.390  0.00  0.00     0.038 A 
ATOM     31  C   UNL d   1      28.968 -15.523  -4.878  0.00  0.00     0.001 A 
ATOM     32  C   UNL d   1      28.220 -14.897  -5.955  0.00  0.00     0.002 A 
ATOM     33  C   UNL d   1      27.080 -14.200  -5.770  0.00  0.00     0.030 A 
ATOM     34  N   UNL d   1      25.578 -13.411  -3.927  0.00  0.00    -0.385 N 
ATOM     35  C   UNL d   1      25.539 -13.509  -2.452  0.00  0.00     0.155 A 
ATOM     36  H   UNL d   1      24.925 -12.888  -4.507  0.00  0.00     0.160 HD
ENDBRANCH  19  27
ENDBRANCH   1  19
TORSDOF 7
ENDMDL
MODEL 8
REMARK VINA RESULT:    -7.932      4.310      7.945
REMARK INTER + INTRA:         -13.518
REMARK INTER:                 -10.020
REMARK INTRA:                  -3.498
REMARK CONF_INDEPENDENT:        2.088
REMARK UNBOUND:                -3.498
REMARK  7 active torsions:
REMARK  status: ('A' for Active; 'I' for Inactive)
REMARK    1  A    between atoms: C_2  and  C_3 
REMARK       I    between atoms: C_2  and  N_15 
REMARK    2  A    between atoms: C_3  and  N_4 
REMARK    3  A    between atoms: C_6  and  C_7 
REMARK    4  A    between atoms: N_15  and  C_16 
REMARK    5  A    between atoms: C_17  and  C_16 
REMARK    6  A    between atoms: C_17  and  C_27 
REMARK    7  A    between atoms: C_17  and  C_18 
ROOT
ATOM      1  C   UNL d   1      26.471 -14.042   0.002  0.00  0.00     0.136 C 
ENDROOT
BRANCH   1   2
ATOM      2  N   UNL d   1      27.498 -13.129  -0.457  0.00  0.00    -0.359 N 
ATOM      3  C   UNL d   1      27.611 -12.689  -1.775  0.00  0.00     0.237 C 
ATOM      4  O   UNL d   1      28.495 -11.881  -2.054  0.00  0.00    -0.272 OA
ATOM      5  H   UNL d   1      28.213 -12.762   0.168  0.00  0.00     0.162 HD
BRANCH   3   6
ATOM      6  C   UNL d   1      26.590 -13.211  -2.817  0.00  0.00     0.251 C 
BRANCH   6   7
ATOM      7  N   UNL d   1      27.111 -14.182  -3.781  0.00  0.00    -0.247 N 
ATOM      8  N   UNL d   1      28.474 -14.205  -4.168  0.00  0.00    -0.199 NA
ATOM      9  C   UNL d   1      28.355 -14.637  -5.571  0.00  0.00     0.265 C 
ATOM     10  H   UNL d   1      28.853 -15.019  -3.668  0.00  0.00     0.150 HD
ATOM     11  O   UNL d   1      27.143 -15.384  -5.673  0.00  0.00    -0.275 OA
ATOM     12  C   UNL d   1      26.354 -14.943  -4.643  0.00  0.00     0.379 C 
ATOM     13  O   UNL d   1      25.155 -15.196  -4.541  0.00  0.00    -0.237 OA
BRANCH   9  14
ATOM     14  C   UNL d   1      29.517 -15.464  -6.072  0.00  0.00     0.027 A 
ATOM     15  C   UNL d   1      30.441 -15.192  -7.067  0.00  0.00     0.019 A 
ATOM     16  C   UNL d   1      31.379 -16.253  -7.270  0.00  0.00     0.008 A 
ATOM     17  C   UNL d   1      31.166 -17.305  -6.409  0.00  0.00     0.050 A 
ATOM     18  S   UNL d   1      29.844 -17.007  -5.363  0.00  0.00    -0.102 SA
ENDBRANCH   9  14
ENDBRANCH   6   7
ENDBRANCH   3   6
ENDBRANCH   1   2
BRANCH   1  19
ATOM     19  C   UNL d   1      26.669 -15.595   0.072  0.00  0.00     0.069 C 
BRANCH  19  20
ATOM     20  C   UNL d   1      25.506 -16.493  -0.330  0.00  0.00    -0.026 C 
ATOM     21  C   UNL d   1      24.456 -16.015  -1.140  0.00  0.00     0.009 C 
ATOM     22  C   UNL d   1      23.250 -16.679  -1.269  0.00  0.00     0.001 C 
ATOM     23  C   UNL d   1      23.154 -17.970  -0.795  0.00  0.00     0.002 C 
ATOM     24  C   UNL d   1      24.263 -18.571  -0.197  0.00  0.00     0.024 C 
ATOM     25  C   UNL d   1      25.405 -17.820   0.099  0.00  0.00     0.041 C 
ATOM     26 CL   UNL d   1      26.663 -18.580   1.005  0.00  0.00    -0.084 Cl
ENDBRANCH  19  20
BRANCH  19  27
ATOM     27  C   UNL d   1      27.954 -15.940  -0.647  0.00  0.00    -0.040 A 
ATOM     28  C   UNL d   1      29.207 -15.647  -0.272  0.00  0.00    -0.005 A 
ATOM     29  C   UNL d   1      29.755 -14.935   0.840  0.00  0.00     0.014 A 
ATOM     30  C   UNL d   1      30.045 -16.069  -1.403  0.00  0.00     0.038 A 
ATOM     31  C   UNL d   1      31.054 -14.614   0.820  0.00  0.00     0.001 A 
ATOM     32  C   UNL d   1      31.916 -15.046  -0.267  0.00  0.00     0.002 A 
ATOM     33  C   UNL d   1      31.481 -15.742  -1.337  0.00  0.00     0.030 A 
ATOM     34  N   UNL d   1      29.361 -16.647  -2.319  0.00  0.00    -0.385 N 
ATOM     35  C   UNL d   1      27.928 -16.662  -1.958  0.00  0.00     0.155 A 
ATOM     36  H   UNL d   1      29.764 -17.019  -3.177  0.00  0.00     0.160 HD
ENDBRANCH  19  27
ENDBRANCH   1  19
TORSDOF 7
ENDMDL
MODEL 9
REMARK VINA RESULT:    -7.512      4.339      7.953
REMARK INTER + INTRA:         -13.392
REMARK INTER:                  -9.600
REMARK INTRA:                  -3.793
REMARK CONF_INDEPENDENT:        2.088
REMARK UNBOUND:                -3.793
REMARK  7 active torsions:
REMARK  status: ('A' for Active; 'I' for Inactive)
REMARK    1  A    between atoms: C_2  and  C_3 
REMARK       I    between atoms: C_2  and  N_15 
REMARK    2  A    between atoms: C_3  and  N_4 
REMARK    3  A    between atoms: C_6  and  C_7 
REMARK    4  A    between atoms: N_15  and  C_16 
REMARK    5  A    between atoms: C_17  and  C_16 
REMARK    6  A    between atoms: C_17  and  C_27 
REMARK    7  A    between atoms: C_17  and  C_18 
ROOT
ATOM      1  C   UNL d   1      25.534 -13.748  -2.388  0.00  0.00     0.136 C 
ENDROOT
BRANCH   1   2
ATOM      2  N   UNL d   1      25.881 -12.344  -2.454  0.00  0.00    -0.359 N 
ATOM      3  C   UNL d   1      26.060 -11.644  -3.646  0.00  0.00     0.237 C 
ATOM      4  O   UNL d   1      26.314 -10.442  -3.594  0.00  0.00    -0.272 OA
ATOM      5  H   UNL d   1      26.026 -11.783  -1.616  0.00  0.00     0.162 HD
BRANCH   3   6
ATOM      6  C   UNL d   1      25.891 -12.410  -4.983  0.00  0.00     0.251 C 
BRANCH   6   7
ATOM      7  N   UNL d   1      26.813 -13.528  -5.191  0.00  0.00    -0.247 N 
ATOM      8  N   UNL d   1      28.112 -13.346  -5.729  0.00  0.00    -0.199 NA
ATOM      9  C   UNL d   1      28.275 -14.600  -6.484  0.00  0.00     0.265 C 
ATOM     10  H   UNL d   1      28.728 -13.443  -4.912  0.00  0.00     0.150 HD
ATOM     11  O   UNL d   1      27.445 -15.575  -5.854  0.00  0.00    -0.275 OA
ATOM     12  C   UNL d   1      26.469 -14.861  -5.209  0.00  0.00     0.379 C 
ATOM     13  O   UNL d   1      25.448 -15.363  -4.741  0.00  0.00    -0.237 OA
BRANCH   9  14
ATOM     14  C   UNL d   1      29.699 -15.104  -6.561  0.00  0.00     0.027 A 
ATOM     15  C   UNL d   1      30.861 -14.443  -6.923  0.00  0.00     0.019 A 
ATOM     16  C   UNL d   1      32.017 -15.284  -6.900  0.00  0.00     0.008 A 
ATOM     17  C   UNL d   1      31.719 -16.566  -6.500  0.00  0.00     0.050 A 
ATOM     18  S   UNL d   1      30.053 -16.746  -6.151  0.00  0.00    -0.102 SA
ENDBRANCH   9  14
ENDBRANCH   6   7
ENDBRANCH   3   6
ENDBRANCH   1   2
BRANCH   1  19
ATOM     19  C   UNL d   1      26.307 -14.785  -1.504  0.00  0.00     0.069 C 
BRANCH  19  20
ATOM     20  C   UNL d   1      25.611 -16.091  -1.141  0.00  0.00    -0.026 C 
ATOM     21  C   UNL d   1      24.405 -16.476  -1.761  0.00  0.00     0.009 C 
ATOM     22  C   UNL d   1      23.590 -17.471  -1.255  0.00  0.00     0.001 C 
ATOM     23  C   UNL d   1      24.083 -18.284  -0.257  0.00  0.00     0.002 C 
ATOM     24  C   UNL d   1      25.379 -18.085   0.219  0.00  0.00     0.024 C 
ATOM     25  C   UNL d   1      26.113 -16.957  -0.164  0.00  0.00     0.041 C 
ATOM     26 CL   UNL d   1      27.632 -16.677   0.606  0.00  0.00    -0.084 Cl
ENDBRANCH  19  20
BRANCH  19  27
ATOM     27  C   UNL d   1      27.675 -14.998  -2.114  0.00  0.00    -0.040 A 
ATOM     28  C   UNL d   1      28.665 -14.104  -2.238  0.00  0.00    -0.005 A 
ATOM     29  C   UNL d   1      28.784 -12.721  -1.896  0.00  0.00     0.014 A 
ATOM     30  C   UNL d   1      29.690 -14.789  -3.038  0.00  0.00     0.038 A 
ATOM     31  C   UNL d   1      29.837 -12.033  -2.354  0.00  0.00     0.001 A 
ATOM     32  C   UNL d   1      30.884 -12.689  -3.119  0.00  0.00     0.002 A 
ATOM     33  C   UNL d   1      30.858 -13.994  -3.460  0.00  0.00     0.030 A 
ATOM     34  N   UNL d   1      29.378 -16.007  -3.280  0.00  0.00    -0.385 N 
ATOM     35  C   UNL d   1      28.051 -16.320  -2.709  0.00  0.00     0.155 A 
ATOM     36  H   UNL d   1      29.965 -16.648  -3.810  0.00  0.00     0.160 HD
ENDBRANCH  19  27
ENDBRANCH   1  19
TORSDOF 7
ENDMDL
