MODEL 1
REMARK VINA RESULT:    -8.951      0.000      0.000
REMARK INTER + INTRA:         -15.664
REMARK INTER:                 -12.530
REMARK INTRA:                  -3.134
REMARK CONF_INDEPENDENT:        3.580
REMARK UNBOUND:                -3.134
REMARK  12 active torsions:
REMARK  status: ('A' for Active; 'I' for Inactive)
REMARK    1  A    between atoms: C_7  and  O_8 
REMARK    2  A    between atoms: O_8  and  C_9 
REMARK    3  A    between atoms: C_9  and  C_10 
REMARK    4  A    between atoms: C_10  and  O_11 
REMARK    5  A    between atoms: C_10  and  C_12 
REMARK    6  A    between atoms: N_13  and  C_12 
REMARK    7  A    between atoms: N_13  and  C_32 
REMARK    8  A    between atoms: N_13  and  C_14 
REMARK    9  A    between atoms: C_14  and  C_15 
REMARK   10  A    between atoms: C_19  and  C_20 
REMARK   11  A    between atoms: C_20  and  O_22 
REMARK   12  A    between atoms: O_22  and  C_23 
ROOT
ATOM      1  C   UNL d   1      29.987 -14.673   1.613  0.00  0.00     0.313 C 
ENDROOT
BRANCH   1   2
ATOM      2  C   UNL d   1      29.199 -15.537   0.550  0.00  0.00     0.134 C 
ATOM      3  N   UNL d   1      29.427 -15.319  -0.711  0.00  0.00    -0.225 NA
ATOM      4  C   UNL d   1      28.376 -15.621  -1.549  0.00  0.00     0.116 A 
ATOM      5  S   UNL d   1      28.224 -14.854  -3.073  0.00  0.00    -0.063 SA
ATOM      6  C   UNL d   1      27.223 -16.308  -1.233  0.00  0.00     0.075 A 
ATOM      7  C   UNL d   1      26.669 -15.500  -3.374  0.00  0.00     0.089 A 
ATOM      8  C   UNL d   1      26.246 -16.317  -2.323  0.00  0.00    -0.020 A 
ATOM      9  C   UNL d   1      24.873 -16.922  -2.295  0.00  0.00     0.051 C 
ATOM     10  C   UNL d   1      27.130 -16.773   0.145  0.00  0.00     0.260 C 
ATOM     11  O   UNL d   1      26.197 -17.413   0.613  0.00  0.00    -0.267 OA
ATOM     12  N   UNL d   1      28.151 -16.323   0.981  0.00  0.00    -0.309 N 
ATOM     13  H   UNL d   1      27.910 -16.442   1.959  0.00  0.00     0.170 HD
BRANCH   7  14
ATOM     14  C   UNL d   1      26.003 -15.148  -4.624  0.00  0.00     0.301 C 
ATOM     15  O   UNL d   1      26.315 -15.576  -5.746  0.00  0.00    -0.259 OA
BRANCH  14  16
ATOM     16  O   UNL d   1      24.929 -14.337  -4.403  0.00  0.00    -0.312 OA
BRANCH  16  17
ATOM     17  C   UNL d   1      25.155 -12.916  -4.330  0.00  0.00     0.124 C 
ATOM     18  C   UNL d   1      25.534 -12.535  -2.902  0.00  0.00     0.040 C 
ATOM     19  C   UNL d   1      26.319 -12.533  -5.254  0.00  0.00     0.040 C 
ENDBRANCH  16  17
ENDBRANCH  14  16
ENDBRANCH   7  14
ENDBRANCH   1   2
BRANCH   1  20
ATOM     20  N   UNL d   1      29.221 -14.461   2.932  0.00  0.00    -0.058 N 
ATOM     21  H   UNL d   1      28.947 -15.414   3.220  0.00  0.00     0.280 HD
BRANCH  20  22
ATOM     22  C   UNL d   1      27.943 -13.610   2.738  0.00  0.00     0.180 C 
ATOM     23  C   UNL d   1      27.032 -13.703   3.960  0.00  0.00     0.039 C 
ATOM     24  C   UNL d   1      28.326 -12.145   2.522  0.00  0.00     0.039 C 
ENDBRANCH  20  22
BRANCH  20  25
ATOM     25  C   UNL d   1      30.045 -13.864   4.113  0.00  0.00     0.269 C 
BRANCH  25  26
ATOM     26  C   UNL d   1      30.031 -14.562   5.497  0.00  0.00     0.168 C 
BRANCH  26  27
ATOM     27  C   UNL d   1      29.682 -13.552   6.621  0.00  0.00     0.209 C 
BRANCH  27  28
ATOM     28  O   UNL d   1      28.696 -13.817   7.611  0.00  0.00    -0.348 OA
BRANCH  28  29
ATOM     29  C   UNL d   1      29.048 -13.617   8.949  0.00  0.00     0.074 A 
ATOM     30  C   UNL d   1      28.155 -12.778   9.634  0.00  0.00     0.037 A 
ATOM     31  C   UNL d   1      28.226 -12.574  11.033  0.00  0.00     0.003 A 
ATOM     32  C   UNL d   1      29.157 -13.242  11.794  0.00  0.00     0.001 A 
ATOM     33  C   UNL d   1      30.092 -14.019  11.137  0.00  0.00     0.009 A 
ATOM     34  C   UNL d   1      30.075 -14.204   9.723  0.00  0.00    -0.029 A 
ATOM     35  C   UNL d   1      31.152 -15.112   9.222  0.00  0.00     0.051 C 
ENDBRANCH  28  29
ENDBRANCH  27  28
ENDBRANCH  26  27
BRANCH  26  36
ATOM     36  O   UNL d   1      29.027 -15.575   5.462  0.00  0.00    -0.392 OA
ATOM     37  H   UNL d   1      28.631 -15.637   6.347  0.00  0.00     0.210 HD
ENDBRANCH  26  36
ENDBRANCH  25  26
ENDBRANCH  20  25
ENDBRANCH   1  20
TORSDOF 12
ENDMDL
MODEL 2
REMARK VINA RESULT:    -8.839      5.220      6.149
REMARK INTER + INTRA:         -15.766
REMARK INTER:                 -12.419
REMARK INTRA:                  -3.348
REMARK CONF_INDEPENDENT:        3.580
REMARK UNBOUND:                -3.348
REMARK  12 active torsions:
REMARK  status: ('A' for Active; 'I' for Inactive)
REMARK    1  A    between atoms: C_7  and  O_8 
REMARK    2  A    between atoms: O_8  and  C_9 
REMARK    3  A    between atoms: C_9  and  C_10 
REMARK    4  A    between atoms: C_10  and  O_11 
REMARK    5  A    between atoms: C_10  and  C_12 
REMARK    6  A    between atoms: N_13  and  C_12 
REMARK    7  A    between atoms: N_13  and  C_32 
REMARK    8  A    between atoms: N_13  and  C_14 
REMARK    9  A    between atoms: C_14  and  C_15 
REMARK   10  A    between atoms: C_19  and  C_20 
REMARK   11  A    between atoms: C_20  and  O_22 
REMARK   12  A    between atoms: O_22  and  C_23 
ROOT
ATOM      1  C   UNL d   1      31.493 -16.963  -0.768  0.00  0.00     0.313 C 
ENDROOT
BRANCH   1   2
ATOM      2  C   UNL d   1      30.027 -17.141  -1.332  0.00  0.00     0.134 C 
ATOM      3  N   UNL d   1      29.739 -16.593  -2.476  0.00  0.00    -0.225 NA
ATOM      4  C   UNL d   1      28.411 -16.264  -2.641  0.00  0.00     0.116 A 
ATOM      5  S   UNL d   1      27.945 -15.025  -3.727  0.00  0.00    -0.063 SA
ATOM      6  C   UNL d   1      27.350 -16.635  -1.840  0.00  0.00     0.075 A 
ATOM      7  C   UNL d   1      26.313 -15.030  -3.215  0.00  0.00     0.089 A 
ATOM      8  C   UNL d   1      26.095 -15.982  -2.217  0.00  0.00    -0.020 A 
ATOM      9  C   UNL d   1      24.770 -16.115  -1.526  0.00  0.00     0.051 C 
ATOM     10  C   UNL d   1      27.690 -17.481  -0.705  0.00  0.00     0.260 C 
ATOM     11  O   UNL d   1      26.891 -17.927   0.109  0.00  0.00    -0.267 OA
ATOM     12  N   UNL d   1      29.058 -17.669  -0.506  0.00  0.00    -0.309 N 
ATOM     13  H   UNL d   1      29.253 -18.028   0.422  0.00  0.00     0.170 HD
BRANCH   7  14
ATOM     14  C   UNL d   1      25.387 -14.096  -3.848  0.00  0.00     0.301 C 
ATOM     15  O   UNL d   1      24.150 -14.138  -3.749  0.00  0.00    -0.259 OA
BRANCH  14  16
ATOM     16  O   UNL d   1      26.053 -13.107  -4.510  0.00  0.00    -0.312 OA
BRANCH  16  17
ATOM     17  C   UNL d   1      25.926 -11.758  -4.020  0.00  0.00     0.124 C 
ATOM     18  C   UNL d   1      27.130 -11.420  -3.145  0.00  0.00     0.040 C 
ATOM     19  C   UNL d   1      25.905 -10.782  -5.204  0.00  0.00     0.040 C 
ENDBRANCH  16  17
ENDBRANCH  14  16
ENDBRANCH   7  14
ENDBRANCH   1   2
BRANCH   1  20
ATOM     20  N   UNL d   1      31.839 -17.938   0.374  0.00  0.00    -0.058 N 
ATOM     21  H   UNL d   1      30.925 -18.174   0.790  0.00  0.00     0.280 HD
BRANCH  20  22
ATOM     22  C   UNL d   1      32.728 -17.280   1.458  0.00  0.00     0.180 C 
ATOM     23  C   UNL d   1      32.274 -15.850   1.745  0.00  0.00     0.039 C 
ATOM     24  C   UNL d   1      32.648 -18.090   2.753  0.00  0.00     0.039 C 
ENDBRANCH  20  22
BRANCH  20  25
ATOM     25  C   UNL d   1      32.490 -19.288  -0.054  0.00  0.00     0.269 C 
BRANCH  25  26
ATOM     26  C   UNL d   1      31.620 -20.567  -0.158  0.00  0.00     0.168 C 
BRANCH  26  27
ATOM     27  C   UNL d   1      31.876 -21.508   1.047  0.00  0.00     0.209 C 
BRANCH  27  28
ATOM     28  O   UNL d   1      30.963 -21.631   2.130  0.00  0.00    -0.348 OA
BRANCH  28  29
ATOM     29  C   UNL d   1      31.456 -21.424   3.423  0.00  0.00     0.074 A 
ATOM     30  C   UNL d   1      30.476 -21.575   4.416  0.00  0.00     0.037 A 
ATOM     31  C   UNL d   1      30.789 -21.574   5.798  0.00  0.00     0.003 A 
ATOM     32  C   UNL d   1      32.093 -21.473   6.222  0.00  0.00     0.001 A 
ATOM     33  C   UNL d   1      33.069 -21.253   5.268  0.00  0.00     0.009 A 
ATOM     34  C   UNL d   1      32.778 -21.201   3.874  0.00  0.00    -0.029 A 
ATOM     35  C   UNL d   1      33.982 -20.990   3.015  0.00  0.00     0.051 C 
ENDBRANCH  28  29
ENDBRANCH  27  28
ENDBRANCH  26  27
BRANCH  26  36
ATOM     36  O   UNL d   1      30.252 -20.164  -0.144  0.00  0.00    -0.392 OA
ATOM     37  H   UNL d   1      29.860 -20.459   0.694  0.00  0.00     0.210 HD
ENDBRANCH  26  36
ENDBRANCH  25  26
ENDBRANCH  20  25
ENDBRANCH   1  20
TORSDOF 12
ENDMDL
MODEL 3
REMARK VINA RESULT:    -7.612      3.000     10.458
REMARK INTER + INTRA:         -14.859
REMARK INTER:                 -11.192
REMARK INTRA:                  -3.668
REMARK CONF_INDEPENDENT:        3.580
REMARK UNBOUND:                -3.668
REMARK  12 active torsions:
REMARK  status: ('A' for Active; 'I' for Inactive)
REMARK    1  A    between atoms: C_7  and  O_8 
REMARK    2  A    between atoms: O_8  and  C_9 
REMARK    3  A    between atoms: C_9  and  C_10 
REMARK    4  A    between atoms: C_10  and  O_11 
REMARK    5  A    between atoms: C_10  and  C_12 
REMARK    6  A    between atoms: N_13  and  C_12 
REMARK    7  A    between atoms: N_13  and  C_32 
REMARK    8  A    between atoms: N_13  and  C_14 
REMARK    9  A    between atoms: C_14  and  C_15 
REMARK   10  A    between atoms: C_19  and  C_20 
REMARK   11  A    between atoms: C_20  and  O_22 
REMARK   12  A    between atoms: O_22  and  C_23 
ROOT
ATOM      1  C   UNL d   1      31.493 -14.399   2.384  0.00  0.00     0.313 C 
ENDROOT
BRANCH   1   2
ATOM      2  C   UNL d   1      30.576 -13.816   3.531  0.00  0.00     0.134 C 
ATOM      3  N   UNL d   1      30.954 -12.722   4.125  0.00  0.00    -0.225 NA
ATOM      4  C   UNL d   1      30.504 -12.582   5.419  0.00  0.00     0.116 A 
ATOM      5  S   UNL d   1      31.353 -11.605   6.540  0.00  0.00    -0.063 SA
ATOM      6  C   UNL d   1      29.550 -13.344   6.062  0.00  0.00     0.075 A 
ATOM      7  C   UNL d   1      30.407 -12.108   7.873  0.00  0.00     0.089 A 
ATOM      8  C   UNL d   1      29.423 -13.020   7.484  0.00  0.00    -0.020 A 
ATOM      9  C   UNL d   1      28.528 -13.692   8.483  0.00  0.00     0.051 C 
ATOM     10  C   UNL d   1      28.952 -14.403   5.261  0.00  0.00     0.260 C 
ATOM     11  O   UNL d   1      28.081 -15.172   5.644  0.00  0.00    -0.267 OA
ATOM     12  N   UNL d   1      29.539 -14.590   4.010  0.00  0.00    -0.309 N 
ATOM     13  H   UNL d   1      29.281 -15.484   3.608  0.00  0.00     0.170 HD
BRANCH   7  14
ATOM     14  C   UNL d   1      30.715 -11.555   9.188  0.00  0.00     0.301 C 
ATOM     15  O   UNL d   1      30.240 -10.506   9.652  0.00  0.00    -0.259 OA
BRANCH  14  16
ATOM     16  O   UNL d   1      31.542 -12.380   9.893  0.00  0.00    -0.312 OA
BRANCH  16  17
ATOM     17  C   UNL d   1      32.247 -13.410   9.175  0.00  0.00     0.124 C 
ATOM     18  C   UNL d   1      33.740 -13.303   9.468  0.00  0.00     0.040 C 
ATOM     19  C   UNL d   1      31.762 -14.788   9.646  0.00  0.00     0.040 C 
ENDBRANCH  16  17
ENDBRANCH  14  16
ENDBRANCH   7  14
ENDBRANCH   1   2
BRANCH   1  20
ATOM     20  N   UNL d   1      30.771 -15.400   1.461  0.00  0.00    -0.058 N 
ATOM     21  H   UNL d   1      30.174 -15.947   2.101  0.00  0.00     0.280 HD
BRANCH  20  22
ATOM     22  C   UNL d   1      31.757 -16.361   0.753  0.00  0.00     0.180 C 
ATOM     23  C   UNL d   1      32.450 -17.275   1.760  0.00  0.00     0.039 C 
ATOM     24  C   UNL d   1      30.999 -17.226  -0.256  0.00  0.00     0.039 C 
ENDBRANCH  20  22
BRANCH  20  25
ATOM     25  C   UNL d   1      29.821 -14.781   0.392  0.00  0.00     0.269 C 
BRANCH  25  26
ATOM     26  C   UNL d   1      28.288 -14.787   0.624  0.00  0.00     0.168 C 
BRANCH  26  27
ATOM     27  C   UNL d   1      27.556 -15.491  -0.548  0.00  0.00     0.209 C 
BRANCH  27  28
ATOM     28  O   UNL d   1      27.150 -16.853  -0.490  0.00  0.00    -0.348 OA
BRANCH  28  29
ATOM     29  C   UNL d   1      25.793 -17.136  -0.670  0.00  0.00     0.074 A 
ATOM     30  C   UNL d   1      25.342 -18.200   0.126  0.00  0.00     0.037 A 
ATOM     31  C   UNL d   1      23.972 -18.547   0.226  0.00  0.00     0.003 A 
ATOM     32  C   UNL d   1      23.012 -17.808  -0.424  0.00  0.00     0.001 A 
ATOM     33  C   UNL d   1      23.434 -16.798  -1.269  0.00  0.00     0.009 A 
ATOM     34  C   UNL d   1      24.809 -16.459  -1.428  0.00  0.00    -0.029 A 
ATOM     35  C   UNL d   1      25.043 -15.314  -2.359  0.00  0.00     0.051 C 
ENDBRANCH  28  29
ENDBRANCH  27  28
ENDBRANCH  26  27
BRANCH  26  36
ATOM     36  O   UNL d   1      28.034 -15.511   1.826  0.00  0.00    -0.392 OA
ATOM     37  H   UNL d   1      27.894 -16.444   1.592  0.00  0.00     0.210 HD
ENDBRANCH  26  36
ENDBRANCH  25  26
ENDBRANCH  20  25
ENDBRANCH   1  20
TORSDOF 12
ENDMDL
MODEL 4
REMARK VINA RESULT:    -7.576      2.848      3.561
REMARK INTER + INTRA:         -14.996
REMARK INTER:                 -11.155
REMARK INTRA:                  -3.841
REMARK CONF_INDEPENDENT:        3.580
REMARK UNBOUND:                -3.841
REMARK  12 active torsions:
REMARK  status: ('A' for Active; 'I' for Inactive)
REMARK    1  A    between atoms: C_7  and  O_8 
REMARK    2  A    between atoms: O_8  and  C_9 
REMARK    3  A    between atoms: C_9  and  C_10 
REMARK    4  A    between atoms: C_10  and  O_11 
REMARK    5  A    between atoms: C_10  and  C_12 
REMARK    6  A    between atoms: N_13  and  C_12 
REMARK    7  A    between atoms: N_13  and  C_32 
REMARK    8  A    between atoms: N_13  and  C_14 
REMARK    9  A    between atoms: C_14  and  C_15 
REMARK   10  A    between atoms: C_19  and  C_20 
REMARK   11  A    between atoms: C_20  and  O_22 
REMARK   12  A    between atoms: O_22  and  C_23 
ROOT
ATOM      1  C   UNL d   1      30.462 -16.722   0.086  0.00  0.00     0.313 C 
ENDROOT
BRANCH   1   2
ATOM      2  C   UNL d   1      29.109 -16.899  -0.712  0.00  0.00     0.134 C 
ATOM      3  N   UNL d   1      28.975 -16.270  -1.843  0.00  0.00    -0.225 NA
ATOM      4  C   UNL d   1      27.676 -15.970  -2.187  0.00  0.00     0.116 A 
ATOM      5  S   UNL d   1      27.328 -14.662  -3.236  0.00  0.00    -0.063 SA
ATOM      6  C   UNL d   1      26.522 -16.437  -1.592  0.00  0.00     0.075 A 
ATOM      7  C   UNL d   1      25.639 -14.760  -2.987  0.00  0.00     0.089 A 
ATOM      8  C   UNL d   1      25.312 -15.795  -2.110  0.00  0.00    -0.020 A 
ATOM      9  C   UNL d   1      23.904 -16.025  -1.645  0.00  0.00     0.051 C 
ATOM     10  C   UNL d   1      26.720 -17.361  -0.483  0.00  0.00     0.260 C 
ATOM     11  O   UNL d   1      25.826 -17.895   0.160  0.00  0.00    -0.267 OA
ATOM     12  N   UNL d   1      28.048 -17.522  -0.089  0.00  0.00    -0.309 N 
ATOM     13  H   UNL d   1      28.114 -17.948   0.828  0.00  0.00     0.170 HD
BRANCH   7  14
ATOM     14  C   UNL d   1      24.781 -13.807  -3.685  0.00  0.00     0.301 C 
ATOM     15  O   UNL d   1      23.682 -14.075  -4.197  0.00  0.00    -0.259 OA
BRANCH  14  16
ATOM     16  O   UNL d   1      25.299 -12.546  -3.641  0.00  0.00    -0.312 OA
BRANCH  16  17
ATOM     17  C   UNL d   1      25.585 -11.886  -4.889  0.00  0.00     0.124 C 
ATOM     18  C   UNL d   1      25.612 -10.376  -4.671  0.00  0.00     0.040 C 
ATOM     19  C   UNL d   1      26.966 -12.322  -5.396  0.00  0.00     0.040 C 
ENDBRANCH  16  17
ENDBRANCH  14  16
ENDBRANCH   7  14
ENDBRANCH   1   2
BRANCH   1  20
ATOM     20  N   UNL d   1      30.464 -15.516   1.044  0.00  0.00    -0.058 N 
ATOM     21  H   UNL d   1      30.458 -15.941   1.985  0.00  0.00     0.280 HD
BRANCH  20  22
ATOM     22  C   UNL d   1      29.200 -14.637   0.885  0.00  0.00     0.180 C 
ATOM     23  C   UNL d   1      28.251 -14.822   2.067  0.00  0.00     0.039 C 
ATOM     24  C   UNL d   1      29.602 -13.164   0.803  0.00  0.00     0.039 C 
ENDBRANCH  20  22
BRANCH  20  25
ATOM     25  C   UNL d   1      31.722 -14.598   0.984  0.00  0.00     0.269 C 
BRANCH  25  26
ATOM     26  C   UNL d   1      32.505 -14.273   2.282  0.00  0.00     0.168 C 
BRANCH  26  27
ATOM     27  C   UNL d   1      32.057 -12.909   2.870  0.00  0.00     0.209 C 
BRANCH  27  28
ATOM     28  O   UNL d   1      31.542 -12.776   4.189  0.00  0.00    -0.348 OA
BRANCH  28  29
ATOM     29  C   UNL d   1      30.199 -13.105   4.400  0.00  0.00     0.074 A 
ATOM     30  C   UNL d   1      30.027 -14.365   4.992  0.00  0.00     0.037 A 
ATOM     31  C   UNL d   1      28.767 -14.826   5.445  0.00  0.00     0.003 A 
ATOM     32  C   UNL d   1      27.655 -14.021   5.364  0.00  0.00     0.001 A 
ATOM     33  C   UNL d   1      27.782 -12.803   4.722  0.00  0.00     0.009 A 
ATOM     34  C   UNL d   1      29.029 -12.334   4.213  0.00  0.00    -0.029 A 
ATOM     35  C   UNL d   1      28.952 -10.978   3.589  0.00  0.00     0.051 C 
ENDBRANCH  28  29
ENDBRANCH  27  28
ENDBRANCH  26  27
BRANCH  26  36
ATOM     36  O   UNL d   1      32.219 -15.299   3.230  0.00  0.00    -0.392 OA
ATOM     37  H   UNL d   1      32.115 -14.882   4.102  0.00  0.00     0.210 HD
ENDBRANCH  26  36
ENDBRANCH  25  26
ENDBRANCH  20  25
ENDBRANCH   1  20
TORSDOF 12
ENDMDL
MODEL 5
REMARK VINA RESULT:    -7.473      2.443      9.485
REMARK INTER + INTRA:         -14.846
REMARK INTER:                 -11.053
REMARK INTRA:                  -3.793
REMARK CONF_INDEPENDENT:        3.580
REMARK UNBOUND:                -3.793
REMARK  12 active torsions:
REMARK  status: ('A' for Active; 'I' for Inactive)
REMARK    1  A    between atoms: C_7  and  O_8 
REMARK    2  A    between atoms: O_8  and  C_9 
REMARK    3  A    between atoms: C_9  and  C_10 
REMARK    4  A    between atoms: C_10  and  O_11 
REMARK    5  A    between atoms: C_10  and  C_12 
REMARK    6  A    between atoms: N_13  and  C_12 
REMARK    7  A    between atoms: N_13  and  C_32 
REMARK    8  A    between atoms: N_13  and  C_14 
REMARK    9  A    between atoms: C_14  and  C_15 
REMARK   10  A    between atoms: C_19  and  C_20 
REMARK   11  A    between atoms: C_20  and  O_22 
REMARK   12  A    between atoms: O_22  and  C_23 
ROOT
ATOM      1  C   UNL d   1      27.147 -12.268  -1.399  0.00  0.00     0.313 C 
ENDROOT
BRANCH   1   2
ATOM      2  C   UNL d   1      26.902 -12.831   0.058  0.00  0.00     0.134 C 
ATOM      3  N   UNL d   1      26.669 -11.981   1.015  0.00  0.00    -0.225 NA
ATOM      4  C   UNL d   1      27.038 -12.409   2.270  0.00  0.00     0.116 A 
ATOM      5  S   UNL d   1      27.404 -11.282   3.507  0.00  0.00    -0.063 SA
ATOM      6  C   UNL d   1      27.417 -13.682   2.644  0.00  0.00     0.075 A 
ATOM      7  C   UNL d   1      27.980 -12.477   4.587  0.00  0.00     0.089 A 
ATOM      8  C   UNL d   1      27.893 -13.754   4.027  0.00  0.00    -0.020 A 
ATOM      9  C   UNL d   1      28.431 -14.964   4.731  0.00  0.00     0.051 C 
ATOM     10  C   UNL d   1      27.405 -14.676   1.579  0.00  0.00     0.260 C 
ATOM     11  O   UNL d   1      27.691 -15.859   1.714  0.00  0.00    -0.267 OA
ATOM     12  N   UNL d   1      27.159 -14.163   0.306  0.00  0.00    -0.309 N 
ATOM     13  H   UNL d   1      27.420 -14.823  -0.417  0.00  0.00     0.170 HD
BRANCH   7  14
ATOM     14  C   UNL d   1      28.464 -12.051   5.896  0.00  0.00     0.301 C 
ATOM     15  O   UNL d   1      29.153 -11.040   6.110  0.00  0.00    -0.259 OA
BRANCH  14  16
ATOM     16  O   UNL d   1      27.999 -12.864   6.887  0.00  0.00    -0.312 OA
BRANCH  16  17
ATOM     17  C   UNL d   1      28.938 -13.737   7.545  0.00  0.00     0.124 C 
ATOM     18  C   UNL d   1      30.360 -13.288   7.224  0.00  0.00     0.040 C 
ATOM     19  C   UNL d   1      28.739 -13.652   9.065  0.00  0.00     0.040 C 
ENDBRANCH  16  17
ENDBRANCH  14  16
ENDBRANCH   7  14
ENDBRANCH   1   2
BRANCH   1  20
ATOM     20  N   UNL d   1      27.340 -13.365  -2.463  0.00  0.00    -0.058 N 
ATOM     21  H   UNL d   1      27.023 -14.229  -1.995  0.00  0.00     0.280 HD
BRANCH  20  22
ATOM     22  C   UNL d   1      28.824 -13.532  -2.870  0.00  0.00     0.180 C 
ATOM     23  C   UNL d   1      29.425 -14.790  -2.247  0.00  0.00     0.039 C 
ATOM     24  C   UNL d   1      28.933 -13.637  -4.392  0.00  0.00     0.039 C 
ENDBRANCH  20  22
BRANCH  20  25
ATOM     25  C   UNL d   1      26.480 -13.223  -3.755  0.00  0.00     0.269 C 
BRANCH  25  26
ATOM     26  C   UNL d   1      25.652 -14.429  -4.269  0.00  0.00     0.168 C 
BRANCH  26  27
ATOM     27  C   UNL d   1      25.897 -15.681  -3.388  0.00  0.00     0.209 C 
BRANCH  27  28
ATOM     28  O   UNL d   1      26.085 -15.603  -1.981  0.00  0.00    -0.348 OA
BRANCH  28  29
ATOM     29  C   UNL d   1      25.319 -16.451  -1.174  0.00  0.00     0.074 A 
ATOM     30  C   UNL d   1      23.940 -16.204  -1.270  0.00  0.00     0.037 A 
ATOM     31  C   UNL d   1      22.974 -17.049  -0.670  0.00  0.00     0.003 A 
ATOM     32  C   UNL d   1      23.356 -18.189  -0.002  0.00  0.00     0.001 A 
ATOM     33  C   UNL d   1      24.710 -18.417   0.167  0.00  0.00     0.009 A 
ATOM     34  C   UNL d   1      25.705 -17.558  -0.385  0.00  0.00    -0.029 A 
ATOM     35  C   UNL d   1      27.104 -18.008  -0.116  0.00  0.00     0.051 C 
ENDBRANCH  28  29
ENDBRANCH  27  28
ENDBRANCH  26  27
BRANCH  26  36
ATOM     36  O   UNL d   1      24.273 -14.074  -4.191  0.00  0.00    -0.392 OA
ATOM     37  H   UNL d   1      24.029 -13.630  -5.020  0.00  0.00     0.210 HD
ENDBRANCH  26  36
ENDBRANCH  25  26
ENDBRANCH  20  25
ENDBRANCH   1  20
TORSDOF 12
ENDMDL
MODEL 6
REMARK VINA RESULT:    -6.554      2.729      6.121
REMARK INTER + INTRA:         -15.209
REMARK INTER:                 -10.134
REMARK INTRA:                  -5.075
REMARK CONF_INDEPENDENT:        3.580
REMARK UNBOUND:                -5.075
REMARK  12 active torsions:
REMARK  status: ('A' for Active; 'I' for Inactive)
REMARK    1  A    between atoms: C_7  and  O_8 
REMARK    2  A    between atoms: O_8  and  C_9 
REMARK    3  A    between atoms: C_9  and  C_10 
REMARK    4  A    between atoms: C_10  and  O_11 
REMARK    5  A    between atoms: C_10  and  C_12 
REMARK    6  A    between atoms: N_13  and  C_12 
REMARK    7  A    between atoms: N_13  and  C_32 
REMARK    8  A    between atoms: N_13  and  C_14 
REMARK    9  A    between atoms: C_14  and  C_15 
REMARK   10  A    between atoms: C_19  and  C_20 
REMARK   11  A    between atoms: C_20  and  O_22 
REMARK   12  A    between atoms: O_22  and  C_23 
ROOT
ATOM      1  C   UNL d   1      28.509 -13.862   2.867  0.00  0.00     0.313 C 
ENDROOT
BRANCH   1   2
ATOM      2  C   UNL d   1      28.225 -14.653   1.528  0.00  0.00     0.134 C 
ATOM      3  N   UNL d   1      28.236 -13.990   0.409  0.00  0.00    -0.225 NA
ATOM      4  C   UNL d   1      27.449 -14.526  -0.587  0.00  0.00     0.116 A 
ATOM      5  S   UNL d   1      26.835 -13.538  -1.845  0.00  0.00    -0.063 SA
ATOM      6  C   UNL d   1      26.841 -15.764  -0.600  0.00  0.00     0.075 A 
ATOM      7  C   UNL d   1      25.829 -14.768  -2.477  0.00  0.00     0.089 A 
ATOM      8  C   UNL d   1      25.951 -15.952  -1.748  0.00  0.00    -0.020 A 
ATOM      9  C   UNL d   1      25.096 -17.151  -2.035  0.00  0.00     0.051 C 
ATOM     10  C   UNL d   1      27.081 -16.590   0.576  0.00  0.00     0.260 C 
ATOM     11  O   UNL d   1      26.644 -17.721   0.745  0.00  0.00    -0.267 OA
ATOM     12  N   UNL d   1      27.765 -15.950   1.608  0.00  0.00    -0.309 N 
ATOM     13  H   UNL d   1      27.675 -16.455   2.483  0.00  0.00     0.170 HD
BRANCH   7  14
ATOM     14  C   UNL d   1      25.007 -14.457  -3.643  0.00  0.00     0.301 C 
ATOM     15  O   UNL d   1      24.031 -13.690  -3.646  0.00  0.00    -0.259 OA
BRANCH  14  16
ATOM     16  O   UNL d   1      25.492 -15.058  -4.767  0.00  0.00    -0.312 OA
BRANCH  16  17
ATOM     17  C   UNL d   1      26.658 -14.488  -5.393  0.00  0.00     0.124 C 
ATOM     18  C   UNL d   1      26.734 -13.000  -5.065  0.00  0.00     0.040 C 
ATOM     19  C   UNL d   1      27.919 -15.167  -4.842  0.00  0.00     0.040 C 
ENDBRANCH  16  17
ENDBRANCH  14  16
ENDBRANCH   7  14
ENDBRANCH   1   2
BRANCH   1  20
ATOM     20  N   UNL d   1      29.708 -14.406   3.666  0.00  0.00    -0.058 N 
ATOM     21  H   UNL d   1      29.930 -15.304   3.208  0.00  0.00     0.280 HD
BRANCH  20  22
ATOM     22  C   UNL d   1      29.354 -14.673   5.149  0.00  0.00     0.180 C 
ATOM     23  C   UNL d   1      30.009 -13.641   6.063  0.00  0.00     0.039 C 
ATOM     24  C   UNL d   1      27.837 -14.606   5.337  0.00  0.00     0.039 C 
ENDBRANCH  20  22
BRANCH  20  25
ATOM     25  C   UNL d   1      31.011 -13.551   3.609  0.00  0.00     0.269 C 
BRANCH  25  26
ATOM     26  C   UNL d   1      31.708 -13.293   2.249  0.00  0.00     0.168 C 
BRANCH  26  27
ATOM     27  C   UNL d   1      32.004 -14.629   1.519  0.00  0.00     0.209 C 
BRANCH  27  28
ATOM     28  O   UNL d   1      30.995 -15.591   1.243  0.00  0.00    -0.348 OA
BRANCH  28  29
ATOM     29  C   UNL d   1      30.772 -15.936  -0.094  0.00  0.00     0.074 A 
ATOM     30  C   UNL d   1      30.482 -17.297  -0.270  0.00  0.00     0.037 A 
ATOM     31  C   UNL d   1      30.062 -17.830  -1.514  0.00  0.00     0.003 A 
ATOM     32  C   UNL d   1      29.872 -17.009  -2.601  0.00  0.00     0.001 A 
ATOM     33  C   UNL d   1      30.218 -15.676  -2.473  0.00  0.00     0.009 A 
ATOM     34  C   UNL d   1      30.689 -15.122  -1.247  0.00  0.00    -0.029 A 
ATOM     35  C   UNL d   1      30.969 -13.656  -1.318  0.00  0.00     0.051 C 
ENDBRANCH  28  29
ENDBRANCH  27  28
ENDBRANCH  26  27
BRANCH  26  36
ATOM     36  O   UNL d   1      30.820 -12.518   1.446  0.00  0.00    -0.392 OA
ATOM     37  H   UNL d   1      30.165 -13.120   1.054  0.00  0.00     0.210 HD
ENDBRANCH  26  36
ENDBRANCH  25  26
ENDBRANCH  20  25
ENDBRANCH   1  20
TORSDOF 12
ENDMDL
MODEL 7
REMARK VINA RESULT:    -6.495      3.612      6.707
REMARK INTER + INTRA:         -15.053
REMARK INTER:                 -10.075
REMARK INTRA:                  -4.978
REMARK CONF_INDEPENDENT:        3.580
REMARK UNBOUND:                -4.978
REMARK  12 active torsions:
REMARK  status: ('A' for Active; 'I' for Inactive)
REMARK    1  A    between atoms: C_7  and  O_8 
REMARK    2  A    between atoms: O_8  and  C_9 
REMARK    3  A    between atoms: C_9  and  C_10 
REMARK    4  A    between atoms: C_10  and  O_11 
REMARK    5  A    between atoms: C_10  and  C_12 
REMARK    6  A    between atoms: N_13  and  C_12 
REMARK    7  A    between atoms: N_13  and  C_32 
REMARK    8  A    between atoms: N_13  and  C_14 
REMARK    9  A    between atoms: C_14  and  C_15 
REMARK   10  A    between atoms: C_19  and  C_20 
REMARK   11  A    between atoms: C_20  and  O_22 
REMARK   12  A    between atoms: O_22  and  C_23 
ROOT
ATOM      1  C   UNL d   1      28.367 -12.212   1.297  0.00  0.00     0.313 C 
ENDROOT
BRANCH   1   2
ATOM      2  C   UNL d   1      27.456 -12.221   0.005  0.00  0.00     0.134 C 
ATOM      3  N   UNL d   1      26.957 -13.356  -0.387  0.00  0.00    -0.225 NA
ATOM      4  C   UNL d   1      26.700 -13.438  -1.738  0.00  0.00     0.116 A 
ATOM      5  S   UNL d   1      26.657 -14.955  -2.531  0.00  0.00    -0.063 SA
ATOM      6  C   UNL d   1      26.711 -12.409  -2.657  0.00  0.00     0.075 A 
ATOM      7  C   UNL d   1      26.557 -14.268  -4.093  0.00  0.00     0.089 A 
ATOM      8  C   UNL d   1      26.545 -12.873  -4.036  0.00  0.00    -0.020 A 
ATOM      9  C   UNL d   1      26.568 -12.029  -5.277  0.00  0.00     0.051 C 
ATOM     10  C   UNL d   1      27.018 -11.091  -2.117  0.00  0.00     0.260 C 
ATOM     11  O   UNL d   1      27.059 -10.054  -2.765  0.00  0.00    -0.267 OA
ATOM     12  N   UNL d   1      27.404 -11.086  -0.777  0.00  0.00    -0.309 N 
ATOM     13  H   UNL d   1      27.855 -10.214  -0.523  0.00  0.00     0.170 HD
BRANCH   7  14
ATOM     14  C   UNL d   1      26.495 -15.166  -5.242  0.00  0.00     0.301 C 
ATOM     15  O   UNL d   1      25.661 -16.074  -5.395  0.00  0.00    -0.259 OA
BRANCH  14  16
ATOM     16  O   UNL d   1      27.428 -14.839  -6.181  0.00  0.00    -0.312 OA
BRANCH  16  17
ATOM     17  C   UNL d   1      28.808 -15.147  -5.903  0.00  0.00     0.124 C 
ATOM     18  C   UNL d   1      29.549 -13.866  -5.531  0.00  0.00     0.040 C 
ATOM     19  C   UNL d   1      28.888 -16.111  -4.711  0.00  0.00     0.040 C 
ENDBRANCH  16  17
ENDBRANCH  14  16
ENDBRANCH   7  14
ENDBRANCH   1   2
BRANCH   1  20
ATOM     20  N   UNL d   1      28.560 -13.603   1.930  0.00  0.00    -0.058 N 
ATOM     21  H   UNL d   1      27.723 -14.131   1.637  0.00  0.00     0.280 HD
BRANCH  20  22
ATOM     22  C   UNL d   1      28.601 -13.545   3.476  0.00  0.00     0.180 C 
ATOM     23  C   UNL d   1      27.292 -14.052   4.078  0.00  0.00     0.039 C 
ATOM     24  C   UNL d   1      29.749 -14.411   3.995  0.00  0.00     0.039 C 
ENDBRANCH  20  22
BRANCH  20  25
ATOM     25  C   UNL d   1      29.792 -14.417   1.427  0.00  0.00     0.269 C 
BRANCH  25  26
ATOM     26  C   UNL d   1      29.638 -15.393   0.233  0.00  0.00     0.168 C 
BRANCH  26  27
ATOM     27  C   UNL d   1      28.393 -16.299   0.417  0.00  0.00     0.209 C 
BRANCH  27  28
ATOM     28  O   UNL d   1      27.075 -15.776   0.527  0.00  0.00    -0.348 OA
BRANCH  28  29
ATOM     29  C   UNL d   1      26.009 -16.631   0.228  0.00  0.00     0.074 A 
ATOM     30  C   UNL d   1      24.869 -15.951  -0.224  0.00  0.00     0.037 A 
ATOM     31  C   UNL d   1      23.735 -16.627  -0.738  0.00  0.00     0.003 A 
ATOM     32  C   UNL d   1      23.731 -17.997  -0.861  0.00  0.00     0.001 A 
ATOM     33  C   UNL d   1      24.813 -18.695  -0.358  0.00  0.00     0.009 A 
ATOM     34  C   UNL d   1      25.947 -18.044   0.209  0.00  0.00    -0.029 A 
ATOM     35  C   UNL d   1      27.019 -18.983   0.657  0.00  0.00     0.051 C 
ENDBRANCH  28  29
ENDBRANCH  27  28
ENDBRANCH  26  27
BRANCH  26  36
ATOM     36  O   UNL d   1      29.467 -14.611  -0.948  0.00  0.00    -0.392 OA
ATOM     37  H   UNL d   1      28.562 -14.258  -0.946  0.00  0.00     0.210 HD
ENDBRANCH  26  36
ENDBRANCH  25  26
ENDBRANCH  20  25
ENDBRANCH   1  20
TORSDOF 12
ENDMDL
MODEL 8
REMARK VINA RESULT:    -6.427      3.188      7.056
REMARK INTER + INTRA:         -14.838
REMARK INTER:                 -10.007
REMARK INTRA:                  -4.832
REMARK CONF_INDEPENDENT:        3.580
REMARK UNBOUND:                -4.832
REMARK  12 active torsions:
REMARK  status: ('A' for Active; 'I' for Inactive)
REMARK    1  A    between atoms: C_7  and  O_8 
REMARK    2  A    between atoms: O_8  and  C_9 
REMARK    3  A    between atoms: C_9  and  C_10 
REMARK    4  A    between atoms: C_10  and  O_11 
REMARK    5  A    between atoms: C_10  and  C_12 
REMARK    6  A    between atoms: N_13  and  C_12 
REMARK    7  A    between atoms: N_13  and  C_32 
REMARK    8  A    between atoms: N_13  and  C_14 
REMARK    9  A    between atoms: C_14  and  C_15 
REMARK   10  A    between atoms: C_19  and  C_20 
REMARK   11  A    between atoms: C_20  and  O_22 
REMARK   12  A    between atoms: O_22  and  C_23 
ROOT
ATOM      1  C   UNL d   1      29.797 -13.243   2.968  0.00  0.00     0.313 C 
ENDROOT
BRANCH   1   2
ATOM      2  C   UNL d   1      28.530 -13.152   2.028  0.00  0.00     0.134 C 
ATOM      3  N   UNL d   1      27.765 -14.198   1.925  0.00  0.00    -0.225 NA
ATOM      4  C   UNL d   1      27.079 -14.297   0.735  0.00  0.00     0.116 A 
ATOM      5  S   UNL d   1      26.553 -15.819   0.151  0.00  0.00    -0.063 SA
ATOM      6  C   UNL d   1      26.951 -13.331  -0.242  0.00  0.00     0.075 A 
ATOM      7  C   UNL d   1      26.063 -15.200  -1.365  0.00  0.00     0.089 A 
ATOM      8  C   UNL d   1      26.283 -13.823  -1.448  0.00  0.00    -0.020 A 
ATOM      9  C   UNL d   1      26.034 -13.057  -2.714  0.00  0.00     0.051 C 
ATOM     10  C   UNL d   1      27.612 -12.064   0.042  0.00  0.00     0.260 C 
ATOM     11  O   UNL d   1      27.600 -11.083  -0.689  0.00  0.00    -0.267 OA
ATOM     12  N   UNL d   1      28.403 -12.064   1.190  0.00  0.00    -0.309 N 
ATOM     13  H   UNL d   1      29.039 -11.275   1.202  0.00  0.00     0.170 HD
BRANCH   7  14
ATOM     14  C   UNL d   1      25.499 -16.127  -2.342  0.00  0.00     0.301 C 
ATOM     15  O   UNL d   1      25.326 -15.879  -3.546  0.00  0.00    -0.259 OA
BRANCH  14  16
ATOM     16  O   UNL d   1      25.250 -17.346  -1.784  0.00  0.00    -0.312 OA
BRANCH  16  17
ATOM     17  C   UNL d   1      23.909 -17.628  -1.340  0.00  0.00     0.124 C 
ATOM     18  C   UNL d   1      23.959 -18.573  -0.142  0.00  0.00     0.040 C 
ATOM     19  C   UNL d   1      23.231 -16.325  -0.895  0.00  0.00     0.040 C 
ENDBRANCH  16  17
ENDBRANCH  14  16
ENDBRANCH   7  14
ENDBRANCH   1   2
BRANCH   1  20
ATOM     20  N   UNL d   1      30.091 -14.667   3.478  0.00  0.00    -0.058 N 
ATOM     21  H   UNL d   1      29.461 -15.268   2.923  0.00  0.00     0.280 HD
BRANCH  20  22
ATOM     22  C   UNL d   1      29.751 -14.835   4.979  0.00  0.00     0.180 C 
ATOM     23  C   UNL d   1      30.022 -13.546   5.750  0.00  0.00     0.039 C 
ATOM     24  C   UNL d   1      28.274 -15.200   5.135  0.00  0.00     0.039 C 
ENDBRANCH  20  22
BRANCH  20  25
ATOM     25  C   UNL d   1      31.536 -15.196   3.230  0.00  0.00     0.269 C 
BRANCH  25  26
ATOM     26  C   UNL d   1      31.994 -15.552   1.792  0.00  0.00     0.168 C 
BRANCH  26  27
ATOM     27  C   UNL d   1      30.786 -15.577   0.820  0.00  0.00     0.209 C 
BRANCH  27  28
ATOM     28  O   UNL d   1      30.563 -14.563  -0.151  0.00  0.00    -0.348 OA
BRANCH  28  29
ATOM     29  C   UNL d   1      29.859 -14.913  -1.308  0.00  0.00     0.074 A 
ATOM     30  C   UNL d   1      29.729 -13.851  -2.216  0.00  0.00     0.037 A 
ATOM     31  C   UNL d   1      29.201 -14.025  -3.519  0.00  0.00     0.003 A 
ATOM     32  C   UNL d   1      28.837 -15.274  -3.967  0.00  0.00     0.001 A 
ATOM     33  C   UNL d   1      28.889 -16.325  -3.070  0.00  0.00     0.009 A 
ATOM     34  C   UNL d   1      29.371 -16.169  -1.737  0.00  0.00    -0.029 A 
ATOM     35  C   UNL d   1      29.378 -17.438  -0.948  0.00  0.00     0.051 C 
ENDBRANCH  28  29
ENDBRANCH  27  28
ENDBRANCH  26  27
BRANCH  26  36
ATOM     36  O   UNL d   1      32.906 -14.543   1.365  0.00  0.00    -0.392 OA
ATOM     37  H   UNL d   1      32.399 -13.854   0.904  0.00  0.00     0.210 HD
ENDBRANCH  26  36
ENDBRANCH  25  26
ENDBRANCH  20  25
ENDBRANCH   1  20
TORSDOF 12
ENDMDL
MODEL 9
REMARK VINA RESULT:    -5.958      3.140      4.274
REMARK INTER + INTRA:         -15.023
REMARK INTER:                  -9.538
REMARK INTRA:                  -5.485
REMARK CONF_INDEPENDENT:        3.580
REMARK UNBOUND:                -5.485
REMARK  12 active torsions:
REMARK  status: ('A' for Active; 'I' for Inactive)
REMARK    1  A    between atoms: C_7  and  O_8 
REMARK    2  A    between atoms: O_8  and  C_9 
REMARK    3  A    between atoms: C_9  and  C_10 
REMARK    4  A    between atoms: C_10  and  O_11 
REMARK    5  A    between atoms: C_10  and  C_12 
REMARK    6  A    between atoms: N_13  and  C_12 
REMARK    7  A    between atoms: N_13  and  C_32 
REMARK    8  A    between atoms: N_13  and  C_14 
REMARK    9  A    between atoms: C_14  and  C_15 
REMARK   10  A    between atoms: C_19  and  C_20 
REMARK   11  A    between atoms: C_20  and  O_22 
REMARK   12  A    between atoms: O_22  and  C_23 
ROOT
ATOM      1  C   UNL d   1      31.302 -13.903   0.813  0.00  0.00     0.313 C 
ENDROOT
BRANCH   1   2
ATOM      2  C   UNL d   1      30.319 -14.892   0.070  0.00  0.00     0.134 C 
ATOM      3  N   UNL d   1      30.287 -14.867  -1.230  0.00  0.00    -0.225 NA
ATOM      4  C   UNL d   1      29.090 -15.261  -1.787  0.00  0.00     0.116 A 
ATOM      5  S   UNL d   1      28.630 -14.722  -3.346  0.00  0.00    -0.063 SA
ATOM      6  C   UNL d   1      28.027 -15.865  -1.148  0.00  0.00     0.075 A 
ATOM      7  C   UNL d   1      27.050 -15.365  -3.230  0.00  0.00     0.089 A 
ATOM      8  C   UNL d   1      26.850 -16.009  -2.007  0.00  0.00    -0.020 A 
ATOM      9  C   UNL d   1      25.514 -16.567  -1.615  0.00  0.00     0.051 C 
ATOM     10  C   UNL d   1      28.216 -16.121   0.274  0.00  0.00     0.260 C 
ATOM     11  O   UNL d   1      27.400 -16.661   1.009  0.00  0.00    -0.267 OA
ATOM     12  N   UNL d   1      29.383 -15.580   0.814  0.00  0.00    -0.309 N 
ATOM     13  H   UNL d   1      29.344 -15.548   1.826  0.00  0.00     0.170 HD
BRANCH   7  14
ATOM     14  C   UNL d   1      26.144 -15.182  -4.360  0.00  0.00     0.301 C 
ATOM     15  O   UNL d   1      26.297 -15.680  -5.487  0.00  0.00    -0.259 OA
BRANCH  14  16
ATOM     16  O   UNL d   1      25.049 -14.450  -4.006  0.00  0.00    -0.312 OA
BRANCH  16  17
ATOM     17  C   UNL d   1      25.162 -13.014  -4.009  0.00  0.00     0.124 C 
ATOM     18  C   UNL d   1      25.790 -12.551  -2.698  0.00  0.00     0.040 C 
ATOM     19  C   UNL d   1      26.076 -12.574  -5.161  0.00  0.00     0.040 C 
ENDBRANCH  16  17
ENDBRANCH  14  16
ENDBRANCH   7  14
ENDBRANCH   1   2
BRANCH   1  20
ATOM     20  N   UNL d   1      30.589 -12.901   1.741  0.00  0.00    -0.058 N 
ATOM     21  H   UNL d   1      29.596 -13.181   1.699  0.00  0.00     0.280 HD
BRANCH  20  22
ATOM     22  C   UNL d   1      30.720 -11.442   1.242  0.00  0.00     0.180 C 
ATOM     23  C   UNL d   1      29.748 -11.165   0.097  0.00  0.00     0.039 C 
ATOM     24  C   UNL d   1      30.418 -10.475   2.388  0.00  0.00     0.039 C 
ENDBRANCH  20  22
BRANCH  20  25
ATOM     25  C   UNL d   1      30.997 -12.954   3.245  0.00  0.00     0.269 C 
BRANCH  25  26
ATOM     26  C   UNL d   1      30.622 -14.188   4.105  0.00  0.00     0.168 C 
BRANCH  26  27
ATOM     27  C   UNL d   1      29.082 -14.340   4.210  0.00  0.00     0.209 C 
BRANCH  27  28
ATOM     28  O   UNL d   1      28.219 -14.185   3.090  0.00  0.00    -0.348 OA
BRANCH  28  29
ATOM     29  C   UNL d   1      27.617 -12.937   2.900  0.00  0.00     0.074 A 
ATOM     30  C   UNL d   1      27.788 -12.071   3.991  0.00  0.00     0.037 A 
ATOM     31  C   UNL d   1      27.405 -10.709   3.947  0.00  0.00     0.003 A 
ATOM     32  C   UNL d   1      26.888 -10.162   2.796  0.00  0.00     0.001 A 
ATOM     33  C   UNL d   1      26.644 -11.008   1.730  0.00  0.00     0.009 A 
ATOM     34  C   UNL d   1      26.974 -12.395   1.763  0.00  0.00    -0.029 A 
ATOM     35  C   UNL d   1      26.661 -13.118   0.494  0.00  0.00     0.051 C 
ENDBRANCH  28  29
ENDBRANCH  27  28
ENDBRANCH  26  27
BRANCH  26  36
ATOM     36  O   UNL d   1      31.155 -15.344   3.462  0.00  0.00    -0.392 OA
ATOM     37  H   UNL d   1      30.419 -15.948   3.271  0.00  0.00     0.210 HD
ENDBRANCH  26  36
ENDBRANCH  25  26
ENDBRANCH  20  25
ENDBRANCH   1  20
TORSDOF 12
ENDMDL
