MODEL 1
REMARK VINA RESULT:    -6.769      0.000      0.000
REMARK INTER + INTRA:         -13.499
REMARK INTER:                  -9.454
REMARK INTRA:                  -4.045
REMARK CONF_INDEPENDENT:        2.685
REMARK UNBOUND:                -4.045
REMARK  9 active torsions:
REMARK  status: ('A' for Active; 'I' for Inactive)
REMARK    1  A    between atoms: C_2  and  C_3 
REMARK       I    between atoms: C_2  and  N_23 
REMARK    2  A    between atoms: C_3  and  O_4 
REMARK    3  A    between atoms: O_4  and  C_5 
REMARK    4  A    between atoms: C_5  and  C_7 
REMARK    5  A    between atoms: C_7  and  C_8 
REMARK    6  A    between atoms: C_8  and  N_9 
REMARK       I    between atoms: N_9  and  C_10 
REMARK       I    between atoms: C_10  and  N_12 
REMARK    7  A    between atoms: N_12  and  C_13 
REMARK    8  A    between atoms: N_23  and  C_24 
REMARK    9  A    between atoms: C_30  and  N_31 
ROOT
ATOM      1  C   UNL d   1      27.904 -14.816  -5.850  0.00  0.00     0.260 C 
ATOM      2  O   UNL d   1      28.849 -15.556  -5.698  0.00  0.00    -0.265 OA
ENDROOT
BRANCH   1   3
ATOM      3  O   UNL d   1      26.600 -15.185  -5.607  0.00  0.00    -0.312 OA
BRANCH   3   4
ATOM      4  C   UNL d   1      26.347 -15.575  -4.243  0.00  0.00     0.281 C 
BRANCH   4   5
ATOM      5  C   UNL d   1      25.155 -14.852  -3.574  0.00  0.00     0.246 C 
ATOM      6  O   UNL d   1      24.508 -13.985  -4.167  0.00  0.00    -0.271 OA
ATOM      7  N   UNL d   1      24.735 -15.229  -2.310  0.00  0.00    -0.323 N 
ATOM      8  H   UNL d   1      23.786 -14.898  -2.112  0.00  0.00     0.169 HD
BRANCH   7   9
ATOM      9  C   UNL d   1      25.266 -16.230  -1.465  0.00  0.00     0.069 A 
ATOM     10  C   UNL d   1      26.658 -16.330  -1.337  0.00  0.00     0.056 A 
ATOM     11  C   UNL d   1      27.248 -17.329  -0.568  0.00  0.00     0.036 A 
ATOM     12 CL   UNL d   1      28.961 -17.448  -0.518  0.00  0.00    -0.084 Cl
ATOM     13  C   UNL d   1      26.461 -18.218   0.150  0.00  0.00     0.026 A 
ATOM     14  C   UNL d   1      25.068 -18.102   0.098  0.00  0.00     0.040 A 
ATOM     15  C   UNL d   1      24.465 -17.103  -0.696  0.00  0.00     0.129 A 
BRANCH  15  16
ATOM     16  N   UNL d   1      22.992 -17.060  -0.741  0.00  0.00    -0.113 N 
ATOM     17  O   UNL d   1      22.450 -15.946  -0.800  0.00  0.00    -0.532 OA
ATOM     18  O   UNL d   1      22.373 -18.133  -0.728  0.00  0.00    -0.532 OA
ENDBRANCH  15  16
ENDBRANCH   7   9
ENDBRANCH   4   5
ENDBRANCH   3   4
ENDBRANCH   1   3
BRANCH   1  19
ATOM     19  C   UNL d   1      27.988 -13.353  -6.322  0.00  0.00     0.131 C 
BRANCH  19  20
ATOM     20  C   UNL d   1      28.028 -12.367  -5.133  0.00  0.00     0.134 C 
BRANCH  20  21
ATOM     21  N   UNL d   1      27.133 -12.641  -3.959  0.00  0.00    -0.343 N 
ATOM     22  C   UNL d   1      27.726 -12.830  -2.705  0.00  0.00     0.316 C 
ATOM     23  O   UNL d   1      28.939 -12.683  -2.608  0.00  0.00    -0.247 OA
ATOM     24  N   UNL d   1      26.888 -13.186  -1.628  0.00  0.00    -0.334 N 
ATOM     25  H   UNL d   1      25.922 -12.939  -1.797  0.00  0.00     0.165 HD
ATOM     26  H   UNL d   1      26.133 -12.602  -4.086  0.00  0.00     0.164 HD
BRANCH  24  27
ATOM     27  C   UNL d   1      27.300 -13.097  -0.107  0.00  0.00     0.035 C 
ATOM     28  C   UNL d   1      26.275 -13.491   1.134  0.00  0.00     0.035 C 
ATOM     29  C   UNL d   1      27.032 -13.330   2.515  0.00  0.00    -0.012 C 
ATOM     30  C   UNL d   1      28.206 -14.319   2.459  0.00  0.00     0.009 C 
ATOM     31  C   UNL d   1      27.410 -11.844   2.636  0.00  0.00     0.009 C 
ATOM     32  C   UNL d   1      29.220 -13.860   1.419  0.00  0.00    -0.012 C 
ATOM     33  C   UNL d   1      29.637 -12.416   1.680  0.00  0.00     0.009 C 
ATOM     34  C   UNL d   1      28.566 -13.967   0.056  0.00  0.00     0.035 C 
ATOM     35  C   UNL d   1      28.427 -11.477   1.562  0.00  0.00    -0.012 C 
ATOM     36  C   UNL d   1      27.752 -11.619   0.178  0.00  0.00     0.035 C 
ENDBRANCH  24  27
ENDBRANCH  20  21
ENDBRANCH  19  20
ENDBRANCH   1  19
TORSDOF 9
ENDMDL
MODEL 2
REMARK VINA RESULT:    -6.272      3.804      7.542
REMARK INTER + INTRA:         -13.599
REMARK INTER:                  -8.957
REMARK INTRA:                  -4.643
REMARK CONF_INDEPENDENT:        2.685
REMARK UNBOUND:                -4.643
REMARK  9 active torsions:
REMARK  status: ('A' for Active; 'I' for Inactive)
REMARK    1  A    between atoms: C_2  and  C_3 
REMARK       I    between atoms: C_2  and  N_23 
REMARK    2  A    between atoms: C_3  and  O_4 
REMARK    3  A    between atoms: O_4  and  C_5 
REMARK    4  A    between atoms: C_5  and  C_7 
REMARK    5  A    between atoms: C_7  and  C_8 
REMARK    6  A    between atoms: C_8  and  N_9 
REMARK       I    between atoms: N_9  and  C_10 
REMARK       I    between atoms: C_10  and  N_12 
REMARK    7  A    between atoms: N_12  and  C_13 
REMARK    8  A    between atoms: N_23  and  C_24 
REMARK    9  A    between atoms: C_30  and  N_31 
ROOT
ATOM      1  C   UNL d   1      25.728 -16.614  -1.410  0.00  0.00     0.260 C 
ATOM      2  O   UNL d   1      24.974 -17.511  -1.106  0.00  0.00    -0.265 OA
ENDROOT
BRANCH   1   3
ATOM      3  O   UNL d   1      25.691 -15.966  -2.625  0.00  0.00    -0.312 OA
BRANCH   3   4
ATOM      4  C   UNL d   1      25.447 -14.549  -2.524  0.00  0.00     0.281 C 
BRANCH   4   5
ATOM      5  C   UNL d   1      24.724 -13.929  -3.742  0.00  0.00     0.246 C 
ATOM      6  O   UNL d   1      23.512 -14.074  -3.919  0.00  0.00    -0.271 OA
ATOM      7  N   UNL d   1      25.419 -13.117  -4.623  0.00  0.00    -0.323 N 
ATOM      8  H   UNL d   1      24.787 -12.545  -5.189  0.00  0.00     0.169 HD
BRANCH   7   9
ATOM      9  C   UNL d   1      26.783 -12.749  -4.594  0.00  0.00     0.069 A 
ATOM     10  C   UNL d   1      27.133 -11.515  -4.029  0.00  0.00     0.056 A 
ATOM     11  C   UNL d   1      28.451 -11.066  -4.020  0.00  0.00     0.036 A 
ATOM     12 CL   UNL d   1      28.802  -9.508  -3.385  0.00  0.00    -0.084 Cl
ATOM     13  C   UNL d   1      29.468 -11.867  -4.519  0.00  0.00     0.026 A 
ATOM     14  C   UNL d   1      29.161 -13.133  -5.028  0.00  0.00     0.040 A 
ATOM     15  C   UNL d   1      27.824 -13.585  -5.057  0.00  0.00     0.129 A 
BRANCH  15  16
ATOM     16  N   UNL d   1      27.561 -14.911  -5.645  0.00  0.00    -0.113 N 
ATOM     17  O   UNL d   1      28.141 -15.197  -6.703  0.00  0.00    -0.532 OA
ATOM     18  O   UNL d   1      26.784 -15.672  -5.051  0.00  0.00    -0.532 OA
ENDBRANCH  15  16
ENDBRANCH   7   9
ENDBRANCH   4   5
ENDBRANCH   3   4
ENDBRANCH   1   3
BRANCH   1  19
ATOM     19  C   UNL d   1      26.835 -16.039  -0.508  0.00  0.00     0.131 C 
BRANCH  19  20
ATOM     20  C   UNL d   1      28.242 -16.285  -1.097  0.00  0.00     0.134 C 
BRANCH  20  21
ATOM     21  N   UNL d   1      28.412 -16.178  -2.585  0.00  0.00    -0.343 N 
ATOM     22  C   UNL d   1      29.544 -16.763  -3.165  0.00  0.00     0.316 C 
ATOM     23  O   UNL d   1      30.301 -17.403  -2.444  0.00  0.00    -0.247 OA
ATOM     24  N   UNL d   1      29.748 -16.571  -4.547  0.00  0.00    -0.334 N 
ATOM     25  H   UNL d   1      28.894 -16.324  -5.029  0.00  0.00     0.165 HD
ATOM     26  H   UNL d   1      27.675 -15.762  -3.134  0.00  0.00     0.164 HD
BRANCH  24  27
ATOM     27  C   UNL d   1      30.742 -17.422  -5.431  0.00  0.00     0.035 C 
ATOM     28  C   UNL d   1      32.391 -17.302  -5.310  0.00  0.00     0.035 C 
ATOM     29  C   UNL d   1      33.068 -18.330  -6.306  0.00  0.00    -0.012 C 
ATOM     30  C   UNL d   1      32.601 -19.718  -5.844  0.00  0.00     0.009 C 
ATOM     31  C   UNL d   1      32.642 -17.913  -7.723  0.00  0.00     0.009 C 
ATOM     32  C   UNL d   1      31.108 -19.874  -6.103  0.00  0.00    -0.012 C 
ATOM     33  C   UNL d   1      30.783 -19.561  -7.561  0.00  0.00     0.009 C 
ATOM     34  C   UNL d   1      30.377 -18.905  -5.196  0.00  0.00     0.035 C 
ATOM     35  C   UNL d   1      31.138 -18.104  -7.891  0.00  0.00    -0.012 C 
ATOM     36  C   UNL d   1      30.410 -17.129  -6.938  0.00  0.00     0.035 C 
ENDBRANCH  24  27
ENDBRANCH  20  21
ENDBRANCH  19  20
ENDBRANCH   1  19
TORSDOF 9
ENDMDL
MODEL 3
REMARK VINA RESULT:    -6.010      2.445      3.921
REMARK INTER + INTRA:         -13.679
REMARK INTER:                  -8.695
REMARK INTRA:                  -4.984
REMARK CONF_INDEPENDENT:        2.685
REMARK UNBOUND:                -4.984
REMARK  9 active torsions:
REMARK  status: ('A' for Active; 'I' for Inactive)
REMARK    1  A    between atoms: C_2  and  C_3 
REMARK       I    between atoms: C_2  and  N_23 
REMARK    2  A    between atoms: C_3  and  O_4 
REMARK    3  A    between atoms: O_4  and  C_5 
REMARK    4  A    between atoms: C_5  and  C_7 
REMARK    5  A    between atoms: C_7  and  C_8 
REMARK    6  A    between atoms: C_8  and  N_9 
REMARK       I    between atoms: N_9  and  C_10 
REMARK       I    between atoms: C_10  and  N_12 
REMARK    7  A    between atoms: N_12  and  C_13 
REMARK    8  A    between atoms: N_23  and  C_24 
REMARK    9  A    between atoms: C_30  and  N_31 
ROOT
ATOM      1  C   UNL d   1      25.944 -12.622  -4.013  0.00  0.00     0.260 C 
ATOM      2  O   UNL d   1      25.532 -11.800  -4.801  0.00  0.00    -0.265 OA
ENDROOT
BRANCH   1   3
ATOM      3  O   UNL d   1      25.267 -13.778  -3.694  0.00  0.00    -0.312 OA
BRANCH   3   4
ATOM      4  C   UNL d   1      25.526 -14.874  -4.594  0.00  0.00     0.281 C 
BRANCH   4   5
ATOM      5  C   UNL d   1      27.021 -15.235  -4.759  0.00  0.00     0.246 C 
ATOM      6  O   UNL d   1      27.620 -15.043  -5.820  0.00  0.00    -0.271 OA
ATOM      7  N   UNL d   1      27.745 -15.708  -3.678  0.00  0.00    -0.323 N 
ATOM      8  H   UNL d   1      28.753 -15.622  -3.831  0.00  0.00     0.169 HD
BRANCH   7   9
ATOM      9  C   UNL d   1      27.304 -15.945  -2.356  0.00  0.00     0.069 A 
ATOM     10  C   UNL d   1      26.099 -16.634  -2.165  0.00  0.00     0.056 A 
ATOM     11  C   UNL d   1      25.578 -16.851  -0.892  0.00  0.00     0.036 A 
ATOM     12 CL   UNL d   1      24.055 -17.630  -0.731  0.00  0.00    -0.084 Cl
ATOM     13  C   UNL d   1      26.281 -16.442   0.232  0.00  0.00     0.026 A 
ATOM     14  C   UNL d   1      27.520 -15.813   0.077  0.00  0.00     0.040 A 
ATOM     15  C   UNL d   1      28.043 -15.573  -1.211  0.00  0.00     0.129 A 
BRANCH  15  16
ATOM     16  N   UNL d   1      29.335 -14.868  -1.307  0.00  0.00    -0.113 N 
ATOM     17  O   UNL d   1      29.696 -14.478  -2.428  0.00  0.00    -0.532 OA
ATOM     18  O   UNL d   1      29.985 -14.692  -0.268  0.00  0.00    -0.532 OA
ENDBRANCH  15  16
ENDBRANCH   7   9
ENDBRANCH   4   5
ENDBRANCH   3   4
ENDBRANCH   1   3
BRANCH   1  19
ATOM     19  C   UNL d   1      27.277 -12.530  -3.249  0.00  0.00     0.131 C 
BRANCH  19  20
ATOM     20  C   UNL d   1      27.062 -12.170  -1.761  0.00  0.00     0.134 C 
BRANCH  20  21
ATOM     21  N   UNL d   1      28.127 -12.565  -0.779  0.00  0.00    -0.343 N 
ATOM     22  C   UNL d   1      27.805 -12.558   0.583  0.00  0.00     0.316 C 
ATOM     23  O   UNL d   1      26.650 -12.310   0.906  0.00  0.00    -0.247 OA
ATOM     24  N   UNL d   1      28.838 -12.832   1.504  0.00  0.00    -0.334 N 
ATOM     25  H   UNL d   1      29.608 -13.330   1.078  0.00  0.00     0.165 HD
ATOM     26  H   UNL d   1      29.013 -12.899  -1.126  0.00  0.00     0.164 HD
BRANCH  24  27
ATOM     27  C   UNL d   1      28.608 -13.214   3.019  0.00  0.00     0.035 C 
ATOM     28  C   UNL d   1      27.141 -13.702   3.616  0.00  0.00     0.035 C 
ATOM     29  C   UNL d   1      27.287 -14.047   5.154  0.00  0.00    -0.012 C 
ATOM     30  C   UNL d   1      28.299 -15.200   5.222  0.00  0.00     0.009 C 
ATOM     31  C   UNL d   1      27.702 -12.745   5.858  0.00  0.00     0.009 C 
ATOM     32  C   UNL d   1      29.680 -14.700   4.817  0.00  0.00    -0.012 C 
ATOM     33  C   UNL d   1      30.071 -13.480   5.645  0.00  0.00     0.009 C 
ATOM     34  C   UNL d   1      29.626 -14.327   3.349  0.00  0.00     0.035 C 
ATOM     35  C   UNL d   1      29.092 -12.323   5.395  0.00  0.00    -0.012 C 
ATOM     36  C   UNL d   1      29.024 -11.975   3.891  0.00  0.00     0.035 C 
ENDBRANCH  24  27
ENDBRANCH  20  21
ENDBRANCH  19  20
ENDBRANCH   1  19
TORSDOF 9
ENDMDL
MODEL 4
REMARK VINA RESULT:    -6.009      2.153      2.741
REMARK INTER + INTRA:         -14.174
REMARK INTER:                  -8.694
REMARK INTRA:                  -5.480
REMARK CONF_INDEPENDENT:        2.685
REMARK UNBOUND:                -5.480
REMARK  9 active torsions:
REMARK  status: ('A' for Active; 'I' for Inactive)
REMARK    1  A    between atoms: C_2  and  C_3 
REMARK       I    between atoms: C_2  and  N_23 
REMARK    2  A    between atoms: C_3  and  O_4 
REMARK    3  A    between atoms: O_4  and  C_5 
REMARK    4  A    between atoms: C_5  and  C_7 
REMARK    5  A    between atoms: C_7  and  C_8 
REMARK    6  A    between atoms: C_8  and  N_9 
REMARK       I    between atoms: N_9  and  C_10 
REMARK       I    between atoms: C_10  and  N_12 
REMARK    7  A    between atoms: N_12  and  C_13 
REMARK    8  A    between atoms: N_23  and  C_24 
REMARK    9  A    between atoms: C_30  and  N_31 
ROOT
ATOM      1  C   UNL d   1      27.717 -14.822  -5.680  0.00  0.00     0.260 C 
ATOM      2  O   UNL d   1      28.622 -15.574  -5.395  0.00  0.00    -0.265 OA
ENDROOT
BRANCH   1   3
ATOM      3  O   UNL d   1      26.400 -15.213  -5.769  0.00  0.00    -0.312 OA
BRANCH   3   4
ATOM      4  C   UNL d   1      25.811 -15.575  -4.504  0.00  0.00     0.281 C 
BRANCH   4   5
ATOM      5  C   UNL d   1      25.605 -14.395  -3.526  0.00  0.00     0.246 C 
ATOM      6  O   UNL d   1      25.563 -13.227  -3.920  0.00  0.00    -0.271 OA
ATOM      7  N   UNL d   1      25.375 -14.639  -2.183  0.00  0.00    -0.323 N 
ATOM      8  H   UNL d   1      24.966 -13.825  -1.715  0.00  0.00     0.169 HD
BRANCH   7   9
ATOM      9  C   UNL d   1      25.308 -15.879  -1.510  0.00  0.00     0.069 A 
ATOM     10  C   UNL d   1      24.047 -16.425  -1.233  0.00  0.00     0.056 A 
ATOM     11  C   UNL d   1      23.909 -17.615  -0.523  0.00  0.00     0.036 A 
ATOM     12 CL   UNL d   1      22.333 -18.188  -0.145  0.00  0.00    -0.084 Cl
ATOM     13  C   UNL d   1      25.030 -18.328  -0.125  0.00  0.00     0.026 A 
ATOM     14  C   UNL d   1      26.303 -17.846  -0.446  0.00  0.00     0.040 A 
ATOM     15  C   UNL d   1      26.449 -16.630  -1.148  0.00  0.00     0.129 A 
BRANCH  15  16
ATOM     16  N   UNL d   1      27.818 -16.154  -1.419  0.00  0.00    -0.113 N 
ATOM     17  O   UNL d   1      28.614 -16.121  -0.469  0.00  0.00    -0.532 OA
ATOM     18  O   UNL d   1      28.105 -15.823  -2.578  0.00  0.00    -0.532 OA
ENDBRANCH  15  16
ENDBRANCH   7   9
ENDBRANCH   4   5
ENDBRANCH   3   4
ENDBRANCH   1   3
BRANCH   1  19
ATOM     19  C   UNL d   1      27.871 -13.319  -5.979  0.00  0.00     0.131 C 
BRANCH  19  20
ATOM     20  C   UNL d   1      28.399 -12.541  -4.753  0.00  0.00     0.134 C 
BRANCH  20  21
ATOM     21  N   UNL d   1      28.798 -13.327  -3.537  0.00  0.00    -0.343 N 
ATOM     22  C   UNL d   1      28.565 -12.761  -2.278  0.00  0.00     0.316 C 
ATOM     23  O   UNL d   1      27.975 -11.689  -2.224  0.00  0.00    -0.247 OA
ATOM     24  N   UNL d   1      29.034 -13.460  -1.146  0.00  0.00    -0.334 N 
ATOM     25  H   UNL d   1      29.183 -14.441  -1.337  0.00  0.00     0.165 HD
ATOM     26  H   UNL d   1      29.146 -14.267  -3.653  0.00  0.00     0.164 HD
BRANCH  24  27
ATOM     27  C   UNL d   1      28.570 -13.175   0.336  0.00  0.00     0.035 C 
ATOM     28  C   UNL d   1      29.192 -13.972   1.649  0.00  0.00     0.035 C 
ATOM     29  C   UNL d   1      28.536 -13.402   2.972  0.00  0.00    -0.012 C 
ATOM     30  C   UNL d   1      28.925 -11.917   3.017  0.00  0.00     0.009 C 
ATOM     31  C   UNL d   1      27.030 -13.700   2.877  0.00  0.00     0.009 C 
ATOM     32  C   UNL d   1      28.223 -11.163   1.895  0.00  0.00    -0.012 C 
ATOM     33  C   UNL d   1      26.719 -11.413   1.943  0.00  0.00     0.009 C 
ATOM     34  C   UNL d   1      28.784 -11.664   0.579  0.00  0.00     0.035 C 
ATOM     35  C   UNL d   1      26.413 -12.903   1.733  0.00  0.00    -0.012 C 
ATOM     36  C   UNL d   1      27.017 -13.407   0.402  0.00  0.00     0.035 C 
ENDBRANCH  24  27
ENDBRANCH  20  21
ENDBRANCH  19  20
ENDBRANCH   1  19
TORSDOF 9
ENDMDL
MODEL 5
REMARK VINA RESULT:    -6.008      2.309      3.052
REMARK INTER + INTRA:         -13.732
REMARK INTER:                  -8.693
REMARK INTRA:                  -5.039
REMARK CONF_INDEPENDENT:        2.685
REMARK UNBOUND:                -5.039
REMARK  9 active torsions:
REMARK  status: ('A' for Active; 'I' for Inactive)
REMARK    1  A    between atoms: C_2  and  C_3 
REMARK       I    between atoms: C_2  and  N_23 
REMARK    2  A    between atoms: C_3  and  O_4 
REMARK    3  A    between atoms: O_4  and  C_5 
REMARK    4  A    between atoms: C_5  and  C_7 
REMARK    5  A    between atoms: C_7  and  C_8 
REMARK    6  A    between atoms: C_8  and  N_9 
REMARK       I    between atoms: N_9  and  C_10 
REMARK       I    between atoms: C_10  and  N_12 
REMARK    7  A    between atoms: N_12  and  C_13 
REMARK    8  A    between atoms: N_23  and  C_24 
REMARK    9  A    between atoms: C_30  and  N_31 
ROOT
ATOM      1  C   UNL d   1      27.719 -14.719  -4.803  0.00  0.00     0.260 C 
ATOM      2  O   UNL d   1      27.833 -15.221  -5.899  0.00  0.00    -0.265 OA
ENDROOT
BRANCH   1   3
ATOM      3  O   UNL d   1      27.208 -15.383  -3.711  0.00  0.00    -0.312 OA
BRANCH   3   4
ATOM      4  C   UNL d   1      25.832 -15.786  -3.863  0.00  0.00     0.281 C 
BRANCH   4   5
ATOM      5  C   UNL d   1      24.799 -14.790  -3.285  0.00  0.00     0.246 C 
ATOM      6  O   UNL d   1      24.513 -13.742  -3.870  0.00  0.00    -0.271 OA
ATOM      7  N   UNL d   1      24.106 -15.102  -2.128  0.00  0.00    -0.323 N 
ATOM      8  H   UNL d   1      23.267 -14.525  -2.023  0.00  0.00     0.169 HD
BRANCH   7   9
ATOM      9  C   UNL d   1      24.207 -16.259  -1.324  0.00  0.00     0.069 A 
ATOM     10  C   UNL d   1      23.076 -17.073  -1.175  0.00  0.00     0.056 A 
ATOM     11  C   UNL d   1      23.091 -18.196  -0.352  0.00  0.00     0.036 A 
ATOM     12 CL   UNL d   1      21.647 -19.106  -0.148  0.00  0.00    -0.084 Cl
ATOM     13  C   UNL d   1      24.257 -18.575   0.297  0.00  0.00     0.026 A 
ATOM     14  C   UNL d   1      25.422 -17.823   0.114  0.00  0.00     0.040 A 
ATOM     15  C   UNL d   1      25.407 -16.672  -0.703  0.00  0.00     0.129 A 
BRANCH  15  16
ATOM     16  N   UNL d   1      26.657 -15.898  -0.821  0.00  0.00    -0.113 N 
ATOM     17  O   UNL d   1      27.726 -16.527  -0.820  0.00  0.00    -0.532 OA
ATOM     18  O   UNL d   1      26.576 -14.666  -0.923  0.00  0.00    -0.532 OA
ENDBRANCH  15  16
ENDBRANCH   7   9
ENDBRANCH   4   5
ENDBRANCH   3   4
ENDBRANCH   1   3
BRANCH   1  19
ATOM     19  C   UNL d   1      28.128 -13.281  -4.438  0.00  0.00     0.131 C 
BRANCH  19  20
ATOM     20  C   UNL d   1      29.147 -13.251  -3.277  0.00  0.00     0.134 C 
BRANCH  20  21
ATOM     21  N   UNL d   1      28.852 -14.075  -2.057  0.00  0.00    -0.343 N 
ATOM     22  C   UNL d   1      29.145 -13.528  -0.802  0.00  0.00     0.316 C 
ATOM     23  O   UNL d   1      29.552 -12.373  -0.753  0.00  0.00    -0.247 OA
ATOM     24  N   UNL d   1      28.959 -14.346   0.331  0.00  0.00    -0.334 N 
ATOM     25  H   UNL d   1      28.323 -15.111   0.151  0.00  0.00     0.165 HD
ATOM     26  H   UNL d   1      28.381 -14.960  -2.167  0.00  0.00     0.164 HD
BRANCH  24  27
ATOM     27  C   UNL d   1      28.893 -13.814   1.817  0.00  0.00     0.035 C 
ATOM     28  C   UNL d   1      28.355 -12.297   2.212  0.00  0.00     0.035 C 
ATOM     29  C   UNL d   1      28.380 -12.123   3.785  0.00  0.00    -0.012 C 
ATOM     30  C   UNL d   1      27.418 -13.188   4.332  0.00  0.00     0.009 C 
ATOM     31  C   UNL d   1      29.849 -12.258   4.218  0.00  0.00     0.009 C 
ATOM     32  C   UNL d   1      27.998 -14.578   4.099  0.00  0.00    -0.012 C 
ATOM     33  C   UNL d   1      29.412 -14.668   4.665  0.00  0.00     0.009 C 
ATOM     34  C   UNL d   1      28.027 -14.823   2.604  0.00  0.00     0.035 C 
ATOM     35  C   UNL d   1      30.342 -13.676   3.951  0.00  0.00    -0.012 C 
ATOM     36  C   UNL d   1      30.338 -13.918   2.424  0.00  0.00     0.035 C 
ENDBRANCH  24  27
ENDBRANCH  20  21
ENDBRANCH  19  20
ENDBRANCH   1  19
TORSDOF 9
ENDMDL
MODEL 6
REMARK VINA RESULT:    -5.717      3.155      5.118
REMARK INTER + INTRA:         -13.163
REMARK INTER:                  -8.402
REMARK INTRA:                  -4.761
REMARK CONF_INDEPENDENT:        2.685
REMARK UNBOUND:                -4.761
REMARK  9 active torsions:
REMARK  status: ('A' for Active; 'I' for Inactive)
REMARK    1  A    between atoms: C_2  and  C_3 
REMARK       I    between atoms: C_2  and  N_23 
REMARK    2  A    between atoms: C_3  and  O_4 
REMARK    3  A    between atoms: O_4  and  C_5 
REMARK    4  A    between atoms: C_5  and  C_7 
REMARK    5  A    between atoms: C_7  and  C_8 
REMARK    6  A    between atoms: C_8  and  N_9 
REMARK       I    between atoms: N_9  and  C_10 
REMARK       I    between atoms: C_10  and  N_12 
REMARK    7  A    between atoms: N_12  and  C_13 
REMARK    8  A    between atoms: N_23  and  C_24 
REMARK    9  A    between atoms: C_30  and  N_31 
ROOT
ATOM      1  C   UNL d   1      28.224 -15.225  -5.501  0.00  0.00     0.260 C 
ATOM      2  O   UNL d   1      27.797 -15.200  -6.634  0.00  0.00    -0.265 OA
ENDROOT
BRANCH   1   3
ATOM      3  O   UNL d   1      27.431 -15.421  -4.392  0.00  0.00    -0.312 OA
BRANCH   3   4
ATOM      4  C   UNL d   1      26.023 -15.506  -4.689  0.00  0.00     0.281 C 
BRANCH   4   5
ATOM      5  C   UNL d   1      25.153 -14.421  -4.011  0.00  0.00     0.246 C 
ATOM      6  O   UNL d   1      24.710 -13.459  -4.643  0.00  0.00    -0.271 OA
ATOM      7  N   UNL d   1      24.782 -14.558  -2.684  0.00  0.00    -0.323 N 
ATOM      8  H   UNL d   1      23.987 -13.956  -2.450  0.00  0.00     0.169 HD
BRANCH   7   9
ATOM      9  C   UNL d   1      25.104 -15.595  -1.780  0.00  0.00     0.069 A 
ATOM     10  C   UNL d   1      24.211 -16.666  -1.643  0.00  0.00     0.056 A 
ATOM     11  C   UNL d   1      24.439 -17.691  -0.728  0.00  0.00     0.036 A 
ATOM     12 CL   UNL d   1      23.264 -18.933  -0.550  0.00  0.00    -0.084 Cl
ATOM     13  C   UNL d   1      25.601 -17.709   0.030  0.00  0.00     0.026 A 
ATOM     14  C   UNL d   1      26.545 -16.690  -0.133  0.00  0.00     0.040 A 
ATOM     15  C   UNL d   1      26.309 -15.638  -1.045  0.00  0.00     0.129 A 
BRANCH  15  16
ATOM     16  N   UNL d   1      27.324 -14.573  -1.139  0.00  0.00    -0.113 N 
ATOM     17  O   UNL d   1      26.925 -13.412  -1.315  0.00  0.00    -0.532 OA
ATOM     18  O   UNL d   1      28.517 -14.888  -1.029  0.00  0.00    -0.532 OA
ENDBRANCH  15  16
ENDBRANCH   7   9
ENDBRANCH   4   5
ENDBRANCH   3   4
ENDBRANCH   1   3
BRANCH   1  19
ATOM     19  C   UNL d   1      29.702 -15.056  -5.104  0.00  0.00     0.131 C 
BRANCH  19  20
ATOM     20  C   UNL d   1      29.881 -13.996  -3.994  0.00  0.00     0.134 C 
BRANCH  20  21
ATOM     21  N   UNL d   1      28.653 -13.312  -3.467  0.00  0.00    -0.343 N 
ATOM     22  C   UNL d   1      28.320 -12.056  -3.987  0.00  0.00     0.316 C 
ATOM     23  O   UNL d   1      28.998 -11.609  -4.904  0.00  0.00    -0.247 OA
ATOM     24  N   UNL d   1      27.224 -11.377  -3.415  0.00  0.00    -0.334 N 
ATOM     25  H   UNL d   1      26.597 -12.004  -2.930  0.00  0.00     0.165 HD
ATOM     26  H   UNL d   1      28.060 -13.804  -2.816  0.00  0.00     0.164 HD
BRANCH  24  27
ATOM     27  C   UNL d   1      26.490 -10.146  -4.078  0.00  0.00     0.035 C 
ATOM     28  C   UNL d   1      25.244  -9.333  -3.347  0.00  0.00     0.035 C 
ATOM     29  C   UNL d   1      24.783  -8.134  -4.271  0.00  0.00    -0.012 C 
ATOM     30  C   UNL d   1      26.011  -7.220  -4.402  0.00  0.00     0.009 C 
ATOM     31  C   UNL d   1      24.269  -8.760  -5.578  0.00  0.00     0.009 C 
ATOM     32  C   UNL d   1      27.094  -7.922  -5.211  0.00  0.00    -0.012 C 
ATOM     33  C   UNL d   1      26.536  -8.407  -6.545  0.00  0.00     0.009 C 
ATOM     34  C   UNL d   1      27.584  -9.105  -4.400  0.00  0.00     0.035 C 
ATOM     35  C   UNL d   1      25.418  -9.435  -6.319  0.00  0.00    -0.012 C 
ATOM     36  C   UNL d   1      25.923 -10.620  -5.465  0.00  0.00     0.035 C 
ENDBRANCH  24  27
ENDBRANCH  20  21
ENDBRANCH  19  20
ENDBRANCH   1  19
TORSDOF 9
ENDMDL
MODEL 7
REMARK VINA RESULT:    -5.534      3.768      6.156
REMARK INTER + INTRA:         -13.573
REMARK INTER:                  -8.218
REMARK INTRA:                  -5.354
REMARK CONF_INDEPENDENT:        2.685
REMARK UNBOUND:                -5.354
REMARK  9 active torsions:
REMARK  status: ('A' for Active; 'I' for Inactive)
REMARK    1  A    between atoms: C_2  and  C_3 
REMARK       I    between atoms: C_2  and  N_23 
REMARK    2  A    between atoms: C_3  and  O_4 
REMARK    3  A    between atoms: O_4  and  C_5 
REMARK    4  A    between atoms: C_5  and  C_7 
REMARK    5  A    between atoms: C_7  and  C_8 
REMARK    6  A    between atoms: C_8  and  N_9 
REMARK       I    between atoms: N_9  and  C_10 
REMARK       I    between atoms: C_10  and  N_12 
REMARK    7  A    between atoms: N_12  and  C_13 
REMARK    8  A    between atoms: N_23  and  C_24 
REMARK    9  A    between atoms: C_30  and  N_31 
ROOT
ATOM      1  C   UNL d   1      28.141 -15.211  -5.562  0.00  0.00     0.260 C 
ATOM      2  O   UNL d   1      26.933 -15.200  -5.476  0.00  0.00    -0.265 OA
ENDROOT
BRANCH   1   3
ATOM      3  O   UNL d   1      28.932 -16.216  -5.052  0.00  0.00    -0.312 OA
BRANCH   3   4
ATOM      4  C   UNL d   1      29.221 -16.076  -3.647  0.00  0.00     0.281 C 
BRANCH   4   5
ATOM      5  C   UNL d   1      29.189 -14.622  -3.122  0.00  0.00     0.246 C 
ATOM      6  O   UNL d   1      30.121 -13.839  -3.326  0.00  0.00    -0.271 OA
ATOM      7  N   UNL d   1      28.062 -14.140  -2.479  0.00  0.00    -0.323 N 
ATOM      8  H   UNL d   1      28.049 -13.117  -2.454  0.00  0.00     0.169 HD
BRANCH   7   9
ATOM      9  C   UNL d   1      26.854 -14.815  -2.190  0.00  0.00     0.069 A 
ATOM     10  C   UNL d   1      26.889 -15.903  -1.308  0.00  0.00     0.056 A 
ATOM     11  C   UNL d   1      25.747 -16.647  -1.025  0.00  0.00     0.036 A 
ATOM     12 CL   UNL d   1      25.873 -18.021   0.001  0.00  0.00    -0.084 Cl
ATOM     13  C   UNL d   1      24.522 -16.284  -1.566  0.00  0.00     0.026 A 
ATOM     14  C   UNL d   1      24.441 -15.162  -2.395  0.00  0.00     0.040 A 
ATOM     15  C   UNL d   1      25.599 -14.416  -2.701  0.00  0.00     0.129 A 
BRANCH  15  16
ATOM     16  N   UNL d   1      25.454 -13.268  -3.616  0.00  0.00    -0.113 N 
ATOM     17  O   UNL d   1      26.245 -12.322  -3.483  0.00  0.00    -0.532 OA
ATOM     18  O   UNL d   1      24.560 -13.311  -4.473  0.00  0.00    -0.532 OA
ENDBRANCH  15  16
ENDBRANCH   7   9
ENDBRANCH   4   5
ENDBRANCH   3   4
ENDBRANCH   1   3
BRANCH   1  19
ATOM     19  C   UNL d   1      28.993 -14.131  -6.254  0.00  0.00     0.131 C 
BRANCH  19  20
ATOM     20  C   UNL d   1      28.116 -13.036  -6.901  0.00  0.00     0.134 C 
BRANCH  20  21
ATOM     21  N   UNL d   1      27.013 -12.437  -6.078  0.00  0.00    -0.343 N 
ATOM     22  C   UNL d   1      26.785 -11.059  -6.178  0.00  0.00     0.316 C 
ATOM     23  O   UNL d   1      27.443 -10.420  -6.991  0.00  0.00    -0.247 OA
ATOM     24  N   UNL d   1      25.815 -10.490  -5.328  0.00  0.00    -0.334 N 
ATOM     25  H   UNL d   1      25.158 -11.176  -4.983  0.00  0.00     0.165 HD
ATOM     26  H   UNL d   1      26.416 -13.048  -5.541  0.00  0.00     0.164 HD
BRANCH  24  27
ATOM     27  C   UNL d   1      25.178  -9.059  -5.531  0.00  0.00     0.035 C 
ATOM     28  C   UNL d   1      23.655  -8.826  -6.142  0.00  0.00     0.035 C 
ATOM     29  C   UNL d   1      23.327  -7.277  -6.162  0.00  0.00    -0.012 C 
ATOM     30  C   UNL d   1      23.387  -6.826  -4.695  0.00  0.00     0.009 C 
ATOM     31  C   UNL d   1      24.348  -6.625  -7.109  0.00  0.00     0.009 C 
ATOM     32  C   UNL d   1      24.822  -6.899  -4.190  0.00  0.00    -0.012 C 
ATOM     33  C   UNL d   1      25.755  -6.126  -5.116  0.00  0.00     0.009 C 
ATOM     34  C   UNL d   1      25.227  -8.359  -4.155  0.00  0.00     0.035 C 
ATOM     35  C   UNL d   1      25.751  -6.743  -6.522  0.00  0.00    -0.012 C 
ATOM     36  C   UNL d   1      26.135  -8.240  -6.468  0.00  0.00     0.035 C 
ENDBRANCH  24  27
ENDBRANCH  20  21
ENDBRANCH  19  20
ENDBRANCH   1  19
TORSDOF 9
ENDMDL
MODEL 8
REMARK VINA RESULT:    -5.350      4.455      8.506
REMARK INTER + INTRA:         -13.184
REMARK INTER:                  -8.035
REMARK INTRA:                  -5.149
REMARK CONF_INDEPENDENT:        2.685
REMARK UNBOUND:                -5.149
REMARK  9 active torsions:
REMARK  status: ('A' for Active; 'I' for Inactive)
REMARK    1  A    between atoms: C_2  and  C_3 
REMARK       I    between atoms: C_2  and  N_23 
REMARK    2  A    between atoms: C_3  and  O_4 
REMARK    3  A    between atoms: O_4  and  C_5 
REMARK    4  A    between atoms: C_5  and  C_7 
REMARK    5  A    between atoms: C_7  and  C_8 
REMARK    6  A    between atoms: C_8  and  N_9 
REMARK       I    between atoms: N_9  and  C_10 
REMARK       I    between atoms: C_10  and  N_12 
REMARK    7  A    between atoms: N_12  and  C_13 
REMARK    8  A    between atoms: N_23  and  C_24 
REMARK    9  A    between atoms: C_30  and  N_31 
ROOT
ATOM      1  C   UNL d   1      25.858 -15.263  -4.131  0.00  0.00     0.260 C 
ATOM      2  O   UNL d   1      26.227 -15.744  -5.179  0.00  0.00    -0.265 OA
ENDROOT
BRANCH   1   3
ATOM      3  O   UNL d   1      24.933 -14.247  -4.044  0.00  0.00    -0.312 OA
BRANCH   3   4
ATOM      4  C   UNL d   1      25.364 -13.010  -4.644  0.00  0.00     0.281 C 
BRANCH   4   5
ATOM      5  C   UNL d   1      26.610 -12.372  -3.986  0.00  0.00     0.246 C 
ATOM      6  O   UNL d   1      26.758 -12.353  -2.762  0.00  0.00    -0.271 OA
ATOM      7  N   UNL d   1      27.637 -11.880  -4.774  0.00  0.00    -0.323 N 
ATOM      8  H   UNL d   1      28.503 -11.768  -4.241  0.00  0.00     0.169 HD
BRANCH   7   9
ATOM      9  C   UNL d   1      27.730 -11.850  -6.184  0.00  0.00     0.069 A 
ATOM     10  C   UNL d   1      27.283 -10.708  -6.862  0.00  0.00     0.056 A 
ATOM     11  C   UNL d   1      27.293 -10.636  -8.252  0.00  0.00     0.036 A 
ATOM     12 CL   UNL d   1      26.654  -9.240  -9.025  0.00  0.00    -0.084 Cl
ATOM     13  C   UNL d   1      27.813 -11.680  -9.004  0.00  0.00     0.026 A 
ATOM     14  C   UNL d   1      28.331 -12.805  -8.356  0.00  0.00     0.040 A 
ATOM     15  C   UNL d   1      28.304 -12.891  -6.947  0.00  0.00     0.129 A 
BRANCH  15  16
ATOM     16  N   UNL d   1      28.827 -14.122  -6.325  0.00  0.00    -0.113 N 
ATOM     17  O   UNL d   1      29.763 -14.008  -5.520  0.00  0.00    -0.532 OA
ATOM     18  O   UNL d   1      28.301 -15.202  -6.630  0.00  0.00    -0.532 OA
ENDBRANCH  15  16
ENDBRANCH   7   9
ENDBRANCH   4   5
ENDBRANCH   3   4
ENDBRANCH   1   3
BRANCH   1  19
ATOM     19  C   UNL d   1      26.339 -15.698  -2.735  0.00  0.00     0.131 C 
BRANCH  19  20
ATOM     20  C   UNL d   1      27.863 -15.952  -2.706  0.00  0.00     0.134 C 
BRANCH  20  21
ATOM     21  N   UNL d   1      28.620 -15.853  -3.998  0.00  0.00    -0.343 N 
ATOM     22  C   UNL d   1      29.587 -16.827  -4.275  0.00  0.00     0.316 C 
ATOM     23  O   UNL d   1      29.714 -17.758  -3.489  0.00  0.00    -0.247 OA
ATOM     24  N   UNL d   1      30.363 -16.669  -5.442  0.00  0.00    -0.334 N 
ATOM     25  H   UNL d   1      29.917 -16.066  -6.120  0.00  0.00     0.165 HD
ATOM     26  H   UNL d   1      28.360 -15.141  -4.665  0.00  0.00     0.164 HD
BRANCH  24  27
ATOM     27  C   UNL d   1      31.232 -17.813  -6.098  0.00  0.00     0.035 C 
ATOM     28  C   UNL d   1      32.774 -18.172  -5.608  0.00  0.00     0.035 C 
ATOM     29  C   UNL d   1      33.322 -19.397  -6.448  0.00  0.00    -0.012 C 
ATOM     30  C   UNL d   1      32.377 -20.566  -6.133  0.00  0.00     0.009 C 
ATOM     31  C   UNL d   1      33.361 -18.940  -7.916  0.00  0.00     0.009 C 
ATOM     32  C   UNL d   1      31.000 -20.292  -6.725  0.00  0.00    -0.012 C 
ATOM     33  C   UNL d   1      31.111 -19.966  -8.211  0.00  0.00     0.009 C 
ATOM     34  C   UNL d   1      30.405 -19.112  -5.983  0.00  0.00     0.035 C 
ATOM     35  C   UNL d   1      31.943 -18.693  -8.421  0.00  0.00    -0.012 C 
ATOM     36  C   UNL d   1      31.342 -17.505  -7.635  0.00  0.00     0.035 C 
ENDBRANCH  24  27
ENDBRANCH  20  21
ENDBRANCH  19  20
ENDBRANCH   1  19
TORSDOF 9
ENDMDL
MODEL 9
REMARK VINA RESULT:    -4.929      3.172      5.246
REMARK INTER + INTRA:         -13.311
REMARK INTER:                  -7.614
REMARK INTRA:                  -5.697
REMARK CONF_INDEPENDENT:        2.685
REMARK UNBOUND:                -5.697
REMARK  9 active torsions:
REMARK  status: ('A' for Active; 'I' for Inactive)
REMARK    1  A    between atoms: C_2  and  C_3 
REMARK       I    between atoms: C_2  and  N_23 
REMARK    2  A    between atoms: C_3  and  O_4 
REMARK    3  A    between atoms: O_4  and  C_5 
REMARK    4  A    between atoms: C_5  and  C_7 
REMARK    5  A    between atoms: C_7  and  C_8 
REMARK    6  A    between atoms: C_8  and  N_9 
REMARK       I    between atoms: N_9  and  C_10 
REMARK       I    between atoms: C_10  and  N_12 
REMARK    7  A    between atoms: N_12  and  C_13 
REMARK    8  A    between atoms: N_23  and  C_24 
REMARK    9  A    between atoms: C_30  and  N_31 
ROOT
ATOM      1  C   UNL d   1      30.621 -12.502  -4.750  0.00  0.00     0.260 C 
ATOM      2  O   UNL d   1      29.685 -12.571  -3.986  0.00  0.00    -0.265 OA
ENDROOT
BRANCH   1   3
ATOM      3  O   UNL d   1      30.799 -11.472  -5.647  0.00  0.00    -0.312 OA
BRANCH   3   4
ATOM      4  C   UNL d   1      29.575 -11.004  -6.248  0.00  0.00     0.281 C 
BRANCH   4   5
ATOM      5  C   UNL d   1      28.888 -12.020  -7.192  0.00  0.00     0.246 C 
ATOM      6  O   UNL d   1      29.407 -12.369  -8.255  0.00  0.00    -0.271 OA
ATOM      7  N   UNL d   1      27.703 -12.626  -6.814  0.00  0.00    -0.323 N 
ATOM      8  H   UNL d   1      27.518 -13.470  -7.364  0.00  0.00     0.169 HD
BRANCH   7   9
ATOM      9  C   UNL d   1      26.957 -12.444  -5.628  0.00  0.00     0.069 A 
ATOM     10  C   UNL d   1      26.789 -11.144  -5.134  0.00  0.00     0.056 A 
ATOM     11  C   UNL d   1      26.115 -10.899  -3.940  0.00  0.00     0.036 A 
ATOM     12 CL   UNL d   1      26.016  -9.289  -3.347  0.00  0.00    -0.084 Cl
ATOM     13  C   UNL d   1      25.532 -11.944  -3.238  0.00  0.00     0.026 A 
ATOM     14  C   UNL d   1      25.621 -13.246  -3.740  0.00  0.00     0.040 A 
ATOM     15  C   UNL d   1      26.321 -13.501  -4.940  0.00  0.00     0.129 A 
BRANCH  15  16
ATOM     16  N   UNL d   1      26.415 -14.901  -5.394  0.00  0.00    -0.113 N 
ATOM     17  O   UNL d   1      27.354 -15.201  -6.146  0.00  0.00    -0.532 OA
ATOM     18  O   UNL d   1      25.562 -15.706  -4.994  0.00  0.00    -0.532 OA
ENDBRANCH  15  16
ENDBRANCH   7   9
ENDBRANCH   4   5
ENDBRANCH   3   4
ENDBRANCH   1   3
BRANCH   1  19
ATOM     19  C   UNL d   1      31.767 -13.525  -4.847  0.00  0.00     0.131 C 
BRANCH  19  20
ATOM     20  C   UNL d   1      31.307 -14.841  -5.514  0.00  0.00     0.134 C 
BRANCH  20  21
ATOM     21  N   UNL d   1      29.919 -15.333  -5.221  0.00  0.00    -0.343 N 
ATOM     22  C   UNL d   1      29.555 -15.530  -3.883  0.00  0.00     0.316 C 
ATOM     23  O   UNL d   1      30.357 -15.217  -3.011  0.00  0.00    -0.247 OA
ATOM     24  N   UNL d   1      28.286 -16.088  -3.623  0.00  0.00    -0.334 N 
ATOM     25  H   UNL d   1      27.650 -15.971  -4.400  0.00  0.00     0.165 HD
ATOM     26  H   UNL d   1      29.263 -15.431  -5.981  0.00  0.00     0.164 HD
BRANCH  24  27
ATOM     27  C   UNL d   1      27.568 -16.057  -2.216  0.00  0.00     0.035 C 
ATOM     28  C   UNL d   1      25.945 -16.330  -2.022  0.00  0.00     0.035 C 
ATOM     29  C   UNL d   1      25.581 -16.270  -0.483  0.00  0.00    -0.012 C 
ATOM     30  C   UNL d   1      26.393 -17.395   0.176  0.00  0.00     0.009 C 
ATOM     31  C   UNL d   1      25.905 -14.842  -0.012  0.00  0.00     0.009 C 
ATOM     32  C   UNL d   1      27.878 -17.057   0.129  0.00  0.00    -0.012 C 
ATOM     33  C   UNL d   1      28.132 -15.677   0.725  0.00  0.00     0.009 C 
ATOM     34  C   UNL d   1      28.311 -17.076  -1.324  0.00  0.00     0.035 C 
ATOM     35  C   UNL d   1      27.407 -14.596  -0.091  0.00  0.00    -0.012 C 
ATOM     36  C   UNL d   1      27.835 -14.647  -1.576  0.00  0.00     0.035 C 
ENDBRANCH  24  27
ENDBRANCH  20  21
ENDBRANCH  19  20
ENDBRANCH   1  19
TORSDOF 9
ENDMDL
