MODEL 1
REMARK VINA RESULT:   -30.643      0.000      0.000
REMARK INTER + INTRA:         -33.062
REMARK INTER:                 -32.433
REMARK INTRA:                  -0.629
REMARK CONF_INDEPENDENT:        1.790
REMARK UNBOUND:                -0.629
REMARK  6 active torsions:
REMARK  status: ('A' for Active; 'I' for Inactive)
REMARK    1  A    between atoms: C_2  and  C_3 
REMARK       I    between atoms: C_2  and  N_16 
REMARK    2  A    between atoms: C_3  and  C_4 
REMARK    3  A    between atoms: C_4  and  N_5 
REMARK       I    between atoms: N_5  and  C_6 
REMARK       I    between atoms: C_6  and  N_8 
REMARK    4  A    between atoms: N_8  and  N_9 
REMARK    5  A    between atoms: N_9  and  C_10 
REMARK    6  A    between atoms: N_16  and  C_17 
ROOT
ATOM      1  N   UNL d   1      23.512 -18.859  -1.118  0.00  0.00    -0.342 N 
ATOM      2  C   UNL d   1      22.278 -18.467  -0.642  0.00  0.00     0.330 C 
ATOM      3  O   UNL d   1      22.153 -17.864   0.428  0.00  0.00    -0.246 OA
ATOM      4  N   UNL d   1      21.196 -18.819  -1.434  0.00  0.00    -0.267 N 
ATOM      5  H   UNL d   1      23.583 -19.318  -2.015  0.00  0.00     0.164 HD
ATOM      6  H   UNL d   1      21.271 -19.228  -2.356  0.00  0.00     0.186 HD
ENDROOT
BRANCH   1   7
ATOM      7  C   UNL d   1      24.731 -18.583  -0.330  0.00  0.00     0.133 C 
BRANCH   7   8
ATOM      8  C   UNL d   1      25.097 -17.112  -0.296  0.00  0.00     0.122 C 
BRANCH   8   9
ATOM      9  C   UNL d   1      26.534 -16.757  -0.661  0.00  0.00     0.219 C 
ATOM     10  O   UNL d   1      27.503 -17.306  -0.133  0.00  0.00    -0.274 OA
ATOM     11  N   UNL d   1      26.759 -15.771  -1.599  0.00  0.00    -0.356 N 
ATOM     12  H   UNL d   1      27.744 -15.678  -1.834  0.00  0.00     0.162 HD
BRANCH  11  13
ATOM     13  C   UNL d   1      25.797 -15.045  -2.432  0.00  0.00     0.084 C 
ATOM     14  C   UNL d   1      26.031 -13.545  -2.444  0.00  0.00     0.025 C 
ATOM     15  C   UNL d   1      25.343 -12.998  -3.657  0.00  0.00     0.002 C 
ATOM     16  C   UNL d   1      25.387 -14.130  -4.665  0.00  0.00     0.002 C 
ATOM     17  C   UNL d   1      25.929 -15.365  -3.928  0.00  0.00     0.025 C 
ENDBRANCH  11  13
ENDBRANCH   8   9
ENDBRANCH   7   8
ENDBRANCH   1   7
BRANCH   4  18
ATOM     18  N   UNL d   1      19.884 -18.578  -0.900  0.00  0.00    -0.185 NA
ATOM     19  H   UNL d   1      19.230 -18.264  -1.620  0.00  0.00     0.154 HD
BRANCH  18  20
ATOM     20  C   UNL d   1      19.308 -19.588  -0.085  0.00  0.00     0.120 A 
ATOM     21  C   UNL d   1      19.644 -19.641   1.266  0.00  0.00     0.046 A 
ATOM     22  C   UNL d   1      18.986 -20.525   2.125  0.00  0.00     0.005 A 
ATOM     23  C   UNL d   1      18.011 -21.368   1.620  0.00  0.00     0.019 A 
ATOM     24  C   UNL d   1      17.728 -21.270   0.268  0.00  0.00     0.118 A 
ATOM     25  N   UNL d   1      18.342 -20.398  -0.585  0.00  0.00    -0.247 NA
ENDBRANCH  18  20
ENDBRANCH   4  18
TORSDOF 6
ENDMDL
MODEL 2
REMARK VINA RESULT:   -30.237      1.590      2.064
REMARK INTER + INTRA:         -33.150
REMARK INTER:                 -32.027
REMARK INTRA:                  -1.123
REMARK CONF_INDEPENDENT:        1.790
REMARK UNBOUND:                -1.123
REMARK  6 active torsions:
REMARK  status: ('A' for Active; 'I' for Inactive)
REMARK    1  A    between atoms: C_2  and  C_3 
REMARK       I    between atoms: C_2  and  N_16 
REMARK    2  A    between atoms: C_3  and  C_4 
REMARK    3  A    between atoms: C_4  and  N_5 
REMARK       I    between atoms: N_5  and  C_6 
REMARK       I    between atoms: C_6  and  N_8 
REMARK    4  A    between atoms: N_8  and  N_9 
REMARK    5  A    between atoms: N_9  and  C_10 
REMARK    6  A    between atoms: N_16  and  C_17 
ROOT
ATOM      1  N   UNL d   1      25.471 -18.093   0.129  0.00  0.00    -0.342 N 
ATOM      2  C   UNL d   1      24.280 -17.990  -0.558  0.00  0.00     0.330 C 
ATOM      3  O   UNL d   1      24.229 -17.564  -1.715  0.00  0.00    -0.246 OA
ATOM      4  N   UNL d   1      23.150 -18.377   0.148  0.00  0.00    -0.267 N 
ATOM      5  H   UNL d   1      25.484 -18.481   1.062  0.00  0.00     0.164 HD
ATOM      6  H   UNL d   1      23.168 -18.816   1.059  0.00  0.00     0.186 HD
ENDROOT
BRANCH   1   7
ATOM      7  C   UNL d   1      26.733 -17.661  -0.507  0.00  0.00     0.133 C 
BRANCH   7   8
ATOM      8  C   UNL d   1      27.436 -16.556   0.258  0.00  0.00     0.122 C 
BRANCH   8   9
ATOM      9  C   UNL d   1      26.831 -15.160   0.152  0.00  0.00     0.219 C 
ATOM     10  O   UNL d   1      26.727 -14.412   1.125  0.00  0.00    -0.274 OA
ATOM     11  N   UNL d   1      26.363 -14.728  -1.072  0.00  0.00    -0.356 N 
ATOM     12  H   UNL d   1      26.067 -13.756  -1.050  0.00  0.00     0.162 HD
BRANCH  11  13
ATOM     13  C   UNL d   1      26.456 -15.375  -2.383  0.00  0.00     0.084 C 
ATOM     14  C   UNL d   1      25.416 -14.876  -3.369  0.00  0.00     0.025 C 
ATOM     15  C   UNL d   1      25.904 -15.222  -4.743  0.00  0.00     0.002 C 
ATOM     16  C   UNL d   1      27.416 -15.200  -4.628  0.00  0.00     0.002 C 
ATOM     17  C   UNL d   1      27.749 -15.034  -3.137  0.00  0.00     0.025 C 
ENDBRANCH  11  13
ENDBRANCH   8   9
ENDBRANCH   7   8
ENDBRANCH   1   7
BRANCH   4  18
ATOM     18  N   UNL d   1      21.876 -18.134  -0.467  0.00  0.00    -0.185 NA
ATOM     19  H   UNL d   1      21.957 -18.004  -1.478  0.00  0.00     0.154 HD
BRANCH  18  20
ATOM     20  C   UNL d   1      20.809 -19.014  -0.145  0.00  0.00     0.120 A 
ATOM     21  C   UNL d   1      20.656 -19.438   1.174  0.00  0.00     0.046 A 
ATOM     22  C   UNL d   1      19.536 -20.183   1.553  0.00  0.00     0.005 A 
ATOM     23  C   UNL d   1      18.588 -20.519   0.603  0.00  0.00     0.019 A 
ATOM     24  C   UNL d   1      18.801 -20.073  -0.691  0.00  0.00     0.118 A 
ATOM     25  N   UNL d   1      19.876 -19.325  -1.078  0.00  0.00    -0.247 NA
ENDBRANCH  18  20
ENDBRANCH   4  18
TORSDOF 6
ENDMDL
MODEL 3
REMARK VINA RESULT:   -30.195      0.989      1.363
REMARK INTER + INTRA:         -32.821
REMARK INTER:                 -31.985
REMARK INTRA:                  -0.836
REMARK CONF_INDEPENDENT:        1.790
REMARK UNBOUND:                -0.836
REMARK  6 active torsions:
REMARK  status: ('A' for Active; 'I' for Inactive)
REMARK    1  A    between atoms: C_2  and  C_3 
REMARK       I    between atoms: C_2  and  N_16 
REMARK    2  A    between atoms: C_3  and  C_4 
REMARK    3  A    between atoms: C_4  and  N_5 
REMARK       I    between atoms: N_5  and  C_6 
REMARK       I    between atoms: C_6  and  N_8 
REMARK    4  A    between atoms: N_8  and  N_9 
REMARK    5  A    between atoms: N_9  and  C_10 
REMARK    6  A    between atoms: N_16  and  C_17 
ROOT
ATOM      1  N   UNL d   1      23.092 -17.543  -1.245  0.00  0.00    -0.342 N 
ATOM      2  C   UNL d   1      22.151 -18.529  -1.033  0.00  0.00     0.330 C 
ATOM      3  O   UNL d   1      22.467 -19.665  -0.669  0.00  0.00    -0.246 OA
ATOM      4  N   UNL d   1      20.837 -18.161  -1.280  0.00  0.00    -0.267 N 
ATOM      5  H   UNL d   1      22.797 -16.613  -1.507  0.00  0.00     0.164 HD
ATOM      6  H   UNL d   1      20.537 -17.217  -1.488  0.00  0.00     0.186 HD
ENDROOT
BRANCH   1   7
ATOM      7  C   UNL d   1      24.528 -17.839  -1.063  0.00  0.00     0.133 C 
BRANCH   7   8
ATOM      8  C   UNL d   1      25.217 -16.881  -0.111  0.00  0.00     0.122 C 
BRANCH   8   9
ATOM      9  C   UNL d   1      26.671 -16.540  -0.417  0.00  0.00     0.219 C 
ATOM     10  O   UNL d   1      27.585 -16.787   0.371  0.00  0.00    -0.274 OA
ATOM     11  N   UNL d   1      26.971 -15.912  -1.608  0.00  0.00    -0.356 N 
ATOM     12  H   UNL d   1      27.973 -15.815  -1.752  0.00  0.00     0.162 HD
BRANCH  11  13
ATOM     13  C   UNL d   1      26.095 -15.602  -2.741  0.00  0.00     0.084 C 
ATOM     14  C   UNL d   1      25.244 -14.365  -2.515  0.00  0.00     0.025 C 
ATOM     15  C   UNL d   1      24.790 -13.886  -3.860  0.00  0.00     0.002 C 
ATOM     16  C   UNL d   1      25.896 -14.308  -4.809  0.00  0.00     0.002 C 
ATOM     17  C   UNL d   1      26.863 -15.191  -4.005  0.00  0.00     0.025 C 
ENDBRANCH  11  13
ENDBRANCH   8   9
ENDBRANCH   7   8
ENDBRANCH   1   7
BRANCH   4  18
ATOM     18  N   UNL d   1      19.843 -19.196  -1.231  0.00  0.00    -0.185 NA
ATOM     19  H   UNL d   1      20.067 -19.971  -1.860  0.00  0.00     0.154 HD
BRANCH  18  20
ATOM     20  C   UNL d   1      19.444 -19.669   0.047  0.00  0.00     0.120 A 
ATOM     21  C   UNL d   1      18.406 -20.595   0.132  0.00  0.00     0.046 A 
ATOM     22  C   UNL d   1      18.087 -21.190   1.356  0.00  0.00     0.005 A 
ATOM     23  C   UNL d   1      18.795 -20.835   2.492  0.00  0.00     0.019 A 
ATOM     24  C   UNL d   1      19.809 -19.904   2.341  0.00  0.00     0.118 A 
ATOM     25  N   UNL d   1      20.153 -19.328   1.151  0.00  0.00    -0.247 NA
ENDBRANCH  18  20
ENDBRANCH   4  18
TORSDOF 6
ENDMDL
MODEL 4
REMARK VINA RESULT:   -30.072      2.122      3.056
REMARK INTER + INTRA:         -32.692
REMARK INTER:                 -31.861
REMARK INTRA:                  -0.830
REMARK CONF_INDEPENDENT:        1.790
REMARK UNBOUND:                -0.830
REMARK  6 active torsions:
REMARK  status: ('A' for Active; 'I' for Inactive)
REMARK    1  A    between atoms: C_2  and  C_3 
REMARK       I    between atoms: C_2  and  N_16 
REMARK    2  A    between atoms: C_3  and  C_4 
REMARK    3  A    between atoms: C_4  and  N_5 
REMARK       I    between atoms: N_5  and  C_6 
REMARK       I    between atoms: C_6  and  N_8 
REMARK    4  A    between atoms: N_8  and  N_9 
REMARK    5  A    between atoms: N_9  and  C_10 
REMARK    6  A    between atoms: N_16  and  C_17 
ROOT
ATOM      1  N   UNL d   1      22.887 -17.112  -1.101  0.00  0.00    -0.342 N 
ATOM      2  C   UNL d   1      22.077 -18.216  -0.940  0.00  0.00     0.330 C 
ATOM      3  O   UNL d   1      22.521 -19.300  -0.551  0.00  0.00    -0.246 OA
ATOM      4  N   UNL d   1      20.742 -18.028  -1.266  0.00  0.00    -0.267 N 
ATOM      5  H   UNL d   1      22.485 -16.229  -1.385  0.00  0.00     0.164 HD
ATOM      6  H   UNL d   1      20.331 -17.133  -1.496  0.00  0.00     0.186 HD
ENDROOT
BRANCH   1   7
ATOM      7  C   UNL d   1      24.337 -17.211  -0.833  0.00  0.00     0.133 C 
BRANCH   7   8
ATOM      8  C   UNL d   1      25.189 -16.843  -2.032  0.00  0.00     0.122 C 
BRANCH   8   9
ATOM      9  C   UNL d   1      25.295 -15.359  -2.365  0.00  0.00     0.219 C 
ATOM     10  O   UNL d   1      24.793 -14.874  -3.380  0.00  0.00    -0.274 OA
ATOM     11  N   UNL d   1      25.998 -14.534  -1.512  0.00  0.00    -0.356 N 
ATOM     12  H   UNL d   1      25.929 -13.554  -1.778  0.00  0.00     0.162 HD
BRANCH  11  13
ATOM     13  C   UNL d   1      26.598 -14.837  -0.210  0.00  0.00     0.084 C 
ATOM     14  C   UNL d   1      28.116 -14.809  -0.231  0.00  0.00     0.025 C 
ATOM     15  C   UNL d   1      28.577 -14.645   1.185  0.00  0.00     0.002 C 
ATOM     16  C   UNL d   1      27.467 -13.862   1.860  0.00  0.00     0.002 C 
ATOM     17  C   UNL d   1      26.309 -13.770   0.854  0.00  0.00     0.025 C 
ENDBRANCH  11  13
ENDBRANCH   8   9
ENDBRANCH   7   8
ENDBRANCH   1   7
BRANCH   4  18
ATOM     18  N   UNL d   1      19.896 -19.189  -1.270  0.00  0.00    -0.185 NA
ATOM     19  H   UNL d   1      20.269 -19.932  -1.865  0.00  0.00     0.154 HD
BRANCH  18  20
ATOM     20  C   UNL d   1      19.470 -19.699  -0.016  0.00  0.00     0.120 A 
ATOM     21  C   UNL d   1      18.482 -20.682   0.015  0.00  0.00     0.046 A 
ATOM     22  C   UNL d   1      18.144 -21.310   1.217  0.00  0.00     0.005 A 
ATOM     23  C   UNL d   1      18.782 -20.931   2.386  0.00  0.00     0.019 A 
ATOM     24  C   UNL d   1      19.748 -19.944   2.289  0.00  0.00     0.118 A 
ATOM     25  N   UNL d   1      20.110 -19.334   1.122  0.00  0.00    -0.247 NA
ENDBRANCH  18  20
ENDBRANCH   4  18
TORSDOF 6
ENDMDL
MODEL 5
REMARK VINA RESULT:   -29.860      2.242      2.782
REMARK INTER + INTRA:         -32.674
REMARK INTER:                 -31.650
REMARK INTRA:                  -1.025
REMARK CONF_INDEPENDENT:        1.790
REMARK UNBOUND:                -1.025
REMARK  6 active torsions:
REMARK  status: ('A' for Active; 'I' for Inactive)
REMARK    1  A    between atoms: C_2  and  C_3 
REMARK       I    between atoms: C_2  and  N_16 
REMARK    2  A    between atoms: C_3  and  C_4 
REMARK    3  A    between atoms: C_4  and  N_5 
REMARK       I    between atoms: N_5  and  C_6 
REMARK       I    between atoms: C_6  and  N_8 
REMARK    4  A    between atoms: N_8  and  N_9 
REMARK    5  A    between atoms: N_9  and  C_10 
REMARK    6  A    between atoms: N_16  and  C_17 
ROOT
ATOM      1  N   UNL d   1      24.972 -16.920  -0.202  0.00  0.00    -0.342 N 
ATOM      2  C   UNL d   1      23.964 -17.486  -0.954  0.00  0.00     0.330 C 
ATOM      3  O   UNL d   1      24.136 -17.821  -2.129  0.00  0.00    -0.246 OA
ATOM      4  N   UNL d   1      22.746 -17.629  -0.306  0.00  0.00    -0.267 N 
ATOM      5  H   UNL d   1      24.809 -16.691   0.769  0.00  0.00     0.164 HD
ATOM      6  H   UNL d   1      22.599 -17.452   0.679  0.00  0.00     0.186 HD
ENDROOT
BRANCH   1   7
ATOM      7  C   UNL d   1      26.297 -16.672  -0.807  0.00  0.00     0.133 C 
BRANCH   7   8
ATOM      8  C   UNL d   1      26.430 -15.283  -1.400  0.00  0.00     0.122 C 
BRANCH   8   9
ATOM      9  C   UNL d   1      25.547 -14.968  -2.603  0.00  0.00     0.219 C 
ATOM     10  O   UNL d   1      24.319 -14.913  -2.523  0.00  0.00    -0.274 OA
ATOM     11  N   UNL d   1      26.143 -14.759  -3.830  0.00  0.00    -0.356 N 
ATOM     12  H   UNL d   1      25.475 -14.468  -4.539  0.00  0.00     0.162 HD
BRANCH  11  13
ATOM     13  C   UNL d   1      27.566 -14.673  -4.169  0.00  0.00     0.084 C 
ATOM     14  C   UNL d   1      28.384 -15.821  -3.606  0.00  0.00     0.025 C 
ATOM     15  C   UNL d   1      29.655 -15.890  -4.397  0.00  0.00     0.002 C 
ATOM     16  C   UNL d   1      29.278 -15.372  -5.771  0.00  0.00     0.002 C 
ATOM     17  C   UNL d   1      27.842 -14.836  -5.670  0.00  0.00     0.025 C 
ENDBRANCH  11  13
ENDBRANCH   8   9
ENDBRANCH   7   8
ENDBRANCH   1   7
BRANCH   4  18
ATOM     18  N   UNL d   1      21.627 -18.060  -1.096  0.00  0.00    -0.185 NA
ATOM     19  H   UNL d   1      21.916 -18.389  -2.020  0.00  0.00     0.154 HD
BRANCH  18  20
ATOM     20  C   UNL d   1      20.702 -18.955  -0.496  0.00  0.00     0.120 A 
ATOM     21  C   UNL d   1      20.888 -19.331   0.833  0.00  0.00     0.046 A 
ATOM     22  C   UNL d   1      19.920 -20.090   1.497  0.00  0.00     0.005 A 
ATOM     23  C   UNL d   1      18.781 -20.486   0.817  0.00  0.00     0.019 A 
ATOM     24  C   UNL d   1      18.659 -20.085  -0.503  0.00  0.00     0.118 A 
ATOM     25  N   UNL d   1      19.581 -19.325  -1.164  0.00  0.00    -0.247 NA
ENDBRANCH  18  20
ENDBRANCH   4  18
TORSDOF 6
ENDMDL
MODEL 6
REMARK VINA RESULT:   -29.759      1.863      2.480
REMARK INTER + INTRA:         -32.938
REMARK INTER:                 -31.548
REMARK INTRA:                  -1.390
REMARK CONF_INDEPENDENT:        1.790
REMARK UNBOUND:                -1.390
REMARK  6 active torsions:
REMARK  status: ('A' for Active; 'I' for Inactive)
REMARK    1  A    between atoms: C_2  and  C_3 
REMARK       I    between atoms: C_2  and  N_16 
REMARK    2  A    between atoms: C_3  and  C_4 
REMARK    3  A    between atoms: C_4  and  N_5 
REMARK       I    between atoms: N_5  and  C_6 
REMARK       I    between atoms: C_6  and  N_8 
REMARK    4  A    between atoms: N_8  and  N_9 
REMARK    5  A    between atoms: N_9  and  C_10 
REMARK    6  A    between atoms: N_16  and  C_17 
ROOT
ATOM      1  N   UNL d   1      23.003 -17.289  -1.235  0.00  0.00    -0.342 N 
ATOM      2  C   UNL d   1      22.149 -18.351  -1.028  0.00  0.00     0.330 C 
ATOM      3  O   UNL d   1      22.559 -19.459  -0.673  0.00  0.00    -0.246 OA
ATOM      4  N   UNL d   1      20.808 -18.092  -1.271  0.00  0.00    -0.267 N 
ATOM      5  H   UNL d   1      22.631 -16.385  -1.490  0.00  0.00     0.164 HD
ATOM      6  H   UNL d   1      20.430 -17.176  -1.471  0.00  0.00     0.186 HD
ENDROOT
BRANCH   1   7
ATOM      7  C   UNL d   1      24.459 -17.464  -1.058  0.00  0.00     0.133 C 
BRANCH   7   8
ATOM      8  C   UNL d   1      25.257 -16.231  -1.436  0.00  0.00     0.122 C 
BRANCH   8   9
ATOM      9  C   UNL d   1      24.607 -15.276  -2.430  0.00  0.00     0.219 C 
ATOM     10  O   UNL d   1      23.464 -14.842  -2.277  0.00  0.00    -0.274 OA
ATOM     11  N   UNL d   1      25.315 -14.902  -3.554  0.00  0.00    -0.356 N 
ATOM     12  H   UNL d   1      24.828 -14.195  -4.100  0.00  0.00     0.162 HD
BRANCH  11  13
ATOM     13  C   UNL d   1      26.704 -15.194  -3.917  0.00  0.00     0.084 C 
ATOM     14  C   UNL d   1      26.991 -14.983  -5.393  0.00  0.00     0.025 C 
ATOM     15  C   UNL d   1      28.475 -14.833  -5.540  0.00  0.00     0.002 C 
ATOM     16  C   UNL d   1      28.928 -14.222  -4.228  0.00  0.00     0.002 C 
ATOM     17  C   UNL d   1      27.712 -14.221  -3.290  0.00  0.00     0.025 C 
ENDBRANCH  11  13
ENDBRANCH   8   9
ENDBRANCH   7   8
ENDBRANCH   1   7
BRANCH   4  18
ATOM     18  N   UNL d   1      19.904 -19.208  -1.228  0.00  0.00    -0.185 NA
ATOM     19  H   UNL d   1      20.222 -19.980  -1.817  0.00  0.00     0.154 HD
BRANCH  18  20
ATOM     20  C   UNL d   1      19.488 -19.671   0.048  0.00  0.00     0.120 A 
ATOM     21  C   UNL d   1      18.425 -20.569   0.129  0.00  0.00     0.046 A 
ATOM     22  C   UNL d   1      18.085 -21.157   1.350  0.00  0.00     0.005 A 
ATOM     23  C   UNL d   1      18.799 -20.824   2.489  0.00  0.00     0.019 A 
ATOM     24  C   UNL d   1      19.839 -19.922   2.343  0.00  0.00     0.118 A 
ATOM     25  N   UNL d   1      20.203 -19.353   1.156  0.00  0.00    -0.247 NA
ENDBRANCH  18  20
ENDBRANCH   4  18
TORSDOF 6
ENDMDL
MODEL 7
REMARK VINA RESULT:   -29.474      2.614      3.462
REMARK INTER + INTRA:         -32.177
REMARK INTER:                 -31.264
REMARK INTRA:                  -0.913
REMARK CONF_INDEPENDENT:        1.790
REMARK UNBOUND:                -0.913
REMARK  6 active torsions:
REMARK  status: ('A' for Active; 'I' for Inactive)
REMARK    1  A    between atoms: C_2  and  C_3 
REMARK       I    between atoms: C_2  and  N_16 
REMARK    2  A    between atoms: C_3  and  C_4 
REMARK    3  A    between atoms: C_4  and  N_5 
REMARK       I    between atoms: N_5  and  C_6 
REMARK       I    between atoms: C_6  and  N_8 
REMARK    4  A    between atoms: N_8  and  N_9 
REMARK    5  A    between atoms: N_9  and  C_10 
REMARK    6  A    between atoms: N_16  and  C_17 
ROOT
ATOM      1  N   UNL d   1      25.423 -18.131   0.464  0.00  0.00    -0.342 N 
ATOM      2  C   UNL d   1      24.292 -17.989  -0.313  0.00  0.00     0.330 C 
ATOM      3  O   UNL d   1      24.316 -17.405  -1.400  0.00  0.00    -0.246 OA
ATOM      4  N   UNL d   1      23.130 -18.523   0.224  0.00  0.00    -0.267 N 
ATOM      5  H   UNL d   1      25.376 -18.646   1.332  0.00  0.00     0.164 HD
ATOM      6  H   UNL d   1      23.095 -19.086   1.064  0.00  0.00     0.186 HD
ENDROOT
BRANCH   1   7
ATOM      7  C   UNL d   1      26.707 -17.554   0.015  0.00  0.00     0.133 C 
BRANCH   7   8
ATOM      8  C   UNL d   1      26.808 -16.062   0.266  0.00  0.00     0.122 C 
BRANCH   8   9
ATOM      9  C   UNL d   1      27.183 -15.193  -0.929  0.00  0.00     0.219 C 
ATOM     10  O   UNL d   1      27.009 -15.561  -2.092  0.00  0.00    -0.274 OA
ATOM     11  N   UNL d   1      27.760 -13.961  -0.702  0.00  0.00    -0.356 N 
ATOM     12  H   UNL d   1      27.885 -13.429  -1.560  0.00  0.00     0.162 HD
BRANCH  11  13
ATOM     13  C   UNL d   1      27.982 -13.259   0.564  0.00  0.00     0.084 C 
ATOM     14  C   UNL d   1      26.693 -12.909   1.286  0.00  0.00     0.025 C 
ATOM     15  C   UNL d   1      27.041 -12.660   2.722  0.00  0.00     0.002 C 
ATOM     16  C   UNL d   1      28.247 -13.543   2.981  0.00  0.00     0.002 C 
ATOM     17  C   UNL d   1      28.675 -14.126   1.625  0.00  0.00     0.025 C 
ENDBRANCH  11  13
ENDBRANCH   8   9
ENDBRANCH   7   8
ENDBRANCH   1   7
BRANCH   4  18
ATOM     18  N   UNL d   1      21.902 -18.256  -0.470  0.00  0.00    -0.185 NA
ATOM     19  H   UNL d   1      22.052 -18.104  -1.470  0.00  0.00     0.154 HD
BRANCH  18  20
ATOM     20  C   UNL d   1      20.810 -19.135  -0.241  0.00  0.00     0.120 A 
ATOM     21  C   UNL d   1      20.640 -19.688   1.027  0.00  0.00     0.046 A 
ATOM     22  C   UNL d   1      19.499 -20.436   1.326  0.00  0.00     0.005 A 
ATOM     23  C   UNL d   1      18.544 -20.646   0.346  0.00  0.00     0.019 A 
ATOM     24  C   UNL d   1      18.775 -20.075  -0.895  0.00  0.00     0.118 A 
ATOM     25  N   UNL d   1      19.872 -19.321  -1.202  0.00  0.00    -0.247 NA
ENDBRANCH  18  20
ENDBRANCH   4  18
TORSDOF 6
ENDMDL
MODEL 8
REMARK VINA RESULT:   -29.118      2.167      2.749
REMARK INTER + INTRA:         -31.897
REMARK INTER:                 -30.908
REMARK INTRA:                  -0.989
REMARK CONF_INDEPENDENT:        1.790
REMARK UNBOUND:                -0.989
REMARK  6 active torsions:
REMARK  status: ('A' for Active; 'I' for Inactive)
REMARK    1  A    between atoms: C_2  and  C_3 
REMARK       I    between atoms: C_2  and  N_16 
REMARK    2  A    between atoms: C_3  and  C_4 
REMARK    3  A    between atoms: C_4  and  N_5 
REMARK       I    between atoms: N_5  and  C_6 
REMARK       I    between atoms: C_6  and  N_8 
REMARK    4  A    between atoms: N_8  and  N_9 
REMARK    5  A    between atoms: N_9  and  C_10 
REMARK    6  A    between atoms: N_16  and  C_17 
ROOT
ATOM      1  N   UNL d   1      23.141 -17.654  -1.015  0.00  0.00    -0.342 N 
ATOM      2  C   UNL d   1      21.775 -17.796  -1.135  0.00  0.00     0.330 C 
ATOM      3  O   UNL d   1      21.010 -16.829  -1.075  0.00  0.00    -0.246 OA
ATOM      4  N   UNL d   1      21.324 -19.097  -1.304  0.00  0.00    -0.267 N 
ATOM      5  H   UNL d   1      23.742 -18.462  -1.107  0.00  0.00     0.164 HD
ATOM      6  H   UNL d   1      21.926 -19.896  -1.451  0.00  0.00     0.186 HD
ENDROOT
BRANCH   1   7
ATOM      7  C   UNL d   1      23.729 -16.319  -0.780  0.00  0.00     0.133 C 
BRANCH   7   8
ATOM      8  C   UNL d   1      25.214 -16.369  -0.476  0.00  0.00     0.122 C 
BRANCH   8   9
ATOM      9  C   UNL d   1      25.758 -17.689   0.060  0.00  0.00     0.219 C 
ATOM     10  O   UNL d   1      25.022 -18.578   0.491  0.00  0.00    -0.274 OA
ATOM     11  N   UNL d   1      27.122 -17.886   0.085  0.00  0.00    -0.356 N 
ATOM     12  H   UNL d   1      27.372 -18.829   0.373  0.00  0.00     0.162 HD
BRANCH  11  13
ATOM     13  C   UNL d   1      28.193 -17.041  -0.450  0.00  0.00     0.084 C 
ATOM     14  C   UNL d   1      29.485 -17.799  -0.698  0.00  0.00     0.025 C 
ATOM     15  C   UNL d   1      30.298 -16.990  -1.661  0.00  0.00     0.002 C 
ATOM     16  C   UNL d   1      29.273 -16.251  -2.500  0.00  0.00     0.002 C 
ATOM     17  C   UNL d   1      27.900 -16.511  -1.861  0.00  0.00     0.025 C 
ENDBRANCH  11  13
ENDBRANCH   8   9
ENDBRANCH   7   8
ENDBRANCH   1   7
BRANCH   4  18
ATOM     18  N   UNL d   1      19.904 -19.311  -1.269  0.00  0.00    -0.185 NA
ATOM     19  H   UNL d   1      19.554 -19.698  -2.149  0.00  0.00     0.154 HD
BRANCH  18  20
ATOM     20  C   UNL d   1      19.369 -20.004  -0.152  0.00  0.00     0.120 A 
ATOM     21  C   UNL d   1      19.874 -19.733   1.118  0.00  0.00     0.046 A 
ATOM     22  C   UNL d   1      19.273 -20.286   2.253  0.00  0.00     0.005 A 
ATOM     23  C   UNL d   1      18.182 -21.126   2.105  0.00  0.00     0.019 A 
ATOM     24  C   UNL d   1      17.733 -21.360   0.816  0.00  0.00     0.118 A 
ATOM     25  N   UNL d   1      18.291 -20.813  -0.304  0.00  0.00    -0.247 NA
ENDBRANCH  18  20
ENDBRANCH   4  18
TORSDOF 6
ENDMDL
MODEL 9
REMARK VINA RESULT:   -28.572      2.878      3.973
REMARK INTER + INTRA:         -31.235
REMARK INTER:                 -30.362
REMARK INTRA:                  -0.873
REMARK CONF_INDEPENDENT:        1.790
REMARK UNBOUND:                -0.873
REMARK  6 active torsions:
REMARK  status: ('A' for Active; 'I' for Inactive)
REMARK    1  A    between atoms: C_2  and  C_3 
REMARK       I    between atoms: C_2  and  N_16 
REMARK    2  A    between atoms: C_3  and  C_4 
REMARK    3  A    between atoms: C_4  and  N_5 
REMARK       I    between atoms: N_5  and  C_6 
REMARK       I    between atoms: C_6  and  N_8 
REMARK    4  A    between atoms: N_8  and  N_9 
REMARK    5  A    between atoms: N_9  and  C_10 
REMARK    6  A    between atoms: N_16  and  C_17 
ROOT
ATOM      1  N   UNL d   1      25.399 -18.284  -0.241  0.00  0.00    -0.342 N 
ATOM      2  C   UNL d   1      24.119 -17.877  -0.556  0.00  0.00     0.330 C 
ATOM      3  O   UNL d   1      23.905 -16.923  -1.309  0.00  0.00    -0.246 OA
ATOM      4  N   UNL d   1      23.100 -18.598   0.048  0.00  0.00    -0.267 N 
ATOM      5  H   UNL d   1      25.541 -19.092   0.349  0.00  0.00     0.164 HD
ATOM      6  H   UNL d   1      23.240 -19.439   0.593  0.00  0.00     0.186 HD
ENDROOT
BRANCH   1   7
ATOM      7  C   UNL d   1      26.563 -17.555  -0.787  0.00  0.00     0.133 C 
BRANCH   7   8
ATOM      8  C   UNL d   1      27.565 -17.153   0.278  0.00  0.00     0.122 C 
BRANCH   8   9
ATOM      9  C   UNL d   1      28.050 -15.708   0.247  0.00  0.00     0.219 C 
ATOM     10  O   UNL d   1      27.279 -14.751   0.336  0.00  0.00    -0.274 OA
ATOM     11  N   UNL d   1      29.398 -15.461   0.091  0.00  0.00    -0.356 N 
ATOM     12  H   UNL d   1      29.623 -14.473   0.176  0.00  0.00     0.162 HD
BRANCH  11  13
ATOM     13  C   UNL d   1      30.518 -16.406   0.061  0.00  0.00     0.084 C 
ATOM     14  C   UNL d   1      30.354 -17.493  -0.986  0.00  0.00     0.025 C 
ATOM     15  C   UNL d   1      31.713 -18.065  -1.250  0.00  0.00     0.002 C 
ATOM     16  C   UNL d   1      32.668 -16.915  -0.993  0.00  0.00     0.002 C 
ATOM     17  C   UNL d   1      31.837 -15.768  -0.397  0.00  0.00     0.025 C 
ENDBRANCH  11  13
ENDBRANCH   8   9
ENDBRANCH   7   8
ENDBRANCH   1   7
BRANCH   4  18
ATOM     18  N   UNL d   1      21.760 -18.110  -0.120  0.00  0.00    -0.185 NA
ATOM     19  H   UNL d   1      21.662 -17.545  -0.966  0.00  0.00     0.154 HD
BRANCH  18  20
ATOM     20  C   UNL d   1      20.698 -19.044   0.002  0.00  0.00     0.120 A 
ATOM     21  C   UNL d   1      20.443 -19.621   1.245  0.00  0.00     0.046 A 
ATOM     22  C   UNL d   1      19.317 -20.428   1.434  0.00  0.00     0.005 A 
ATOM     23  C   UNL d   1      18.467 -20.671   0.369  0.00  0.00     0.019 A 
ATOM     24  C   UNL d   1      18.780 -20.074  -0.841  0.00  0.00     0.118 A 
ATOM     25  N   UNL d   1      19.861 -19.264  -1.042  0.00  0.00    -0.247 NA
ENDBRANCH  18  20
ENDBRANCH   4  18
TORSDOF 6
ENDMDL
