MODEL 1
REMARK VINA RESULT:    -8.226      0.000      0.000
REMARK INTER + INTRA:         -12.662
REMARK INTER:                 -10.314
REMARK INTRA:                  -2.348
REMARK CONF_INDEPENDENT:        2.088
REMARK UNBOUND:                -2.348
REMARK  7 active torsions:
REMARK  status: ('A' for Active; 'I' for Inactive)
REMARK    1  A    between atoms: O_2  and  C_3 
REMARK    2  A    between atoms: C_6  and  O_7 
REMARK    3  A    between atoms: C_9  and  N_10 
REMARK       I    between atoms: N_10  and  C_11 
REMARK    4  A    between atoms: C_11  and  C_13 
REMARK    5  A    between atoms: C_13  and  S_14 
REMARK    6  A    between atoms: S_14  and  C_15 
REMARK    7  A    between atoms: C_18  and  C_19 
ROOT
ATOM      1  C   UNL d   1      26.690 -13.928  -1.737  0.00  0.00     0.172 A 
ATOM      2  N   UNL d   1      25.808 -14.823  -1.402  0.00  0.00    -0.221 NA
ATOM      3  C   UNL d   1      26.346 -15.921  -0.732  0.00  0.00     0.104 A 
ATOM      4  C   UNL d   1      25.682 -17.051  -0.210  0.00  0.00     0.021 A 
ATOM      5  C   UNL d   1      26.669 -17.828   0.383  0.00  0.00     0.103 A 
ATOM      6  N   UNL d   1      27.876 -17.190   0.235  0.00  0.00    -0.359 N 
ATOM      7  C   UNL d   1      27.678 -16.026  -0.453  0.00  0.00     0.131 A 
ATOM      8  C   UNL d   1      28.639 -15.052  -0.830  0.00  0.00     0.278 A 
ATOM      9  O   UNL d   1      29.835 -15.165  -0.550  0.00  0.00    -0.265 OA
ATOM     10  N   UNL d   1      28.078 -13.980  -1.516  0.00  0.00    -0.296 N 
ATOM     11  C   UNL d   1      29.000 -12.938  -1.969  0.00  0.00     0.162 C 
ATOM     12  H   UNL d   1      28.772 -17.523   0.574  0.00  0.00     0.165 HD
ENDROOT
BRANCH   1  13
ATOM     13  S   UNL d   1      26.118 -12.536  -2.612  0.00  0.00    -0.082 SA
BRANCH  13  14
ATOM     14  C   UNL d   1      25.227 -13.204  -4.068  0.00  0.00     0.185 C 
BRANCH  14  15
ATOM     15  C   UNL d   1      26.061 -14.391  -4.595  0.00  0.00     0.232 C 
ATOM     16  N   UNL d   1      27.420 -14.139  -4.757  0.00  0.00    -0.324 N 
ATOM     17  H   UNL d   1      27.712 -13.230  -4.460  0.00  0.00     0.169 HD
ATOM     18  O   UNL d   1      25.524 -15.470  -4.833  0.00  0.00    -0.272 OA
BRANCH  16  19
ATOM     19  C   UNL d   1      28.416 -15.060  -5.230  0.00  0.00     0.071 A 
ATOM     20  C   UNL d   1      28.988 -15.033  -6.522  0.00  0.00     0.095 A 
ATOM     21  C   UNL d   1      30.036 -15.940  -6.827  0.00  0.00     0.042 A 
ATOM     22  C   UNL d   1      30.462 -16.916  -5.918  0.00  0.00     0.039 A 
ATOM     23  C   UNL d   1      29.889 -16.966  -4.663  0.00  0.00     0.070 A 
ATOM     24  C   UNL d   1      28.897 -16.045  -4.347  0.00  0.00     0.069 A 
BRANCH  20  25
ATOM     25  O   UNL d   1      28.684 -14.241  -7.603  0.00  0.00    -0.354 OA
ATOM     26  C   UNL d   1      28.734 -12.835  -7.466  0.00  0.00     0.210 C 
ENDBRANCH  20  25
BRANCH  23  27
ATOM     27  O   UNL d   1      30.412 -17.850  -3.757  0.00  0.00    -0.356 OA
ATOM     28  C   UNL d   1      30.434 -17.408  -2.398  0.00  0.00     0.210 C 
ENDBRANCH  23  27
ENDBRANCH  16  19
ENDBRANCH  14  15
ENDBRANCH  13  14
ENDBRANCH   1  13
BRANCH   4  29
ATOM     29  C   UNL d   1      24.310 -17.511  -0.294  0.00  0.00    -0.022 A 
ATOM     30  C   UNL d   1      24.007 -18.876  -0.199  0.00  0.00     0.012 A 
ATOM     31  C   UNL d   1      22.728 -19.335  -0.517  0.00  0.00     0.001 A 
ATOM     32  C   UNL d   1      21.722 -18.426  -0.843  0.00  0.00     0.000 A 
ATOM     33  C   UNL d   1      22.005 -17.061  -0.890  0.00  0.00     0.001 A 
ATOM     34  C   UNL d   1      23.297 -16.605  -0.619  0.00  0.00     0.012 A 
ENDBRANCH   4  29
TORSDOF 7
ENDMDL
MODEL 2
REMARK VINA RESULT:    -8.091      1.149      2.554
REMARK INTER + INTRA:         -12.322
REMARK INTER:                 -10.180
REMARK INTRA:                  -2.142
REMARK CONF_INDEPENDENT:        2.088
REMARK UNBOUND:                -2.142
REMARK  7 active torsions:
REMARK  status: ('A' for Active; 'I' for Inactive)
REMARK    1  A    between atoms: O_2  and  C_3 
REMARK    2  A    between atoms: C_6  and  O_7 
REMARK    3  A    between atoms: C_9  and  N_10 
REMARK       I    between atoms: N_10  and  C_11 
REMARK    4  A    between atoms: C_11  and  C_13 
REMARK    5  A    between atoms: C_13  and  S_14 
REMARK    6  A    between atoms: S_14  and  C_15 
REMARK    7  A    between atoms: C_18  and  C_19 
ROOT
ATOM      1  C   UNL d   1      26.979 -14.279  -2.134  0.00  0.00     0.172 A 
ATOM      2  N   UNL d   1      26.053 -15.089  -1.714  0.00  0.00    -0.221 NA
ATOM      3  C   UNL d   1      26.545 -16.196  -1.023  0.00  0.00     0.104 A 
ATOM      4  C   UNL d   1      25.831 -17.251  -0.417  0.00  0.00     0.021 A 
ATOM      5  C   UNL d   1      26.789 -18.074   0.160  0.00  0.00     0.103 A 
ATOM      6  N   UNL d   1      28.029 -17.536  -0.079  0.00  0.00    -0.359 N 
ATOM      7  C   UNL d   1      27.880 -16.390  -0.808  0.00  0.00     0.131 A 
ATOM      8  C   UNL d   1      28.888 -15.507  -1.277  0.00  0.00     0.278 A 
ATOM      9  O   UNL d   1      30.085 -15.698  -1.054  0.00  0.00    -0.265 OA
ATOM     10  N   UNL d   1      28.370 -14.426  -1.981  0.00  0.00    -0.296 N 
ATOM     11  C   UNL d   1      29.339 -13.475  -2.528  0.00  0.00     0.162 C 
ATOM     12  H   UNL d   1      28.916 -17.921   0.229  0.00  0.00     0.165 HD
ENDROOT
BRANCH   1  13
ATOM     13  S   UNL d   1      26.464 -12.885  -3.041  0.00  0.00    -0.082 SA
BRANCH  13  14
ATOM     14  C   UNL d   1      25.704 -13.549  -4.571  0.00  0.00     0.185 C 
BRANCH  14  15
ATOM     15  C   UNL d   1      26.761 -14.454  -5.237  0.00  0.00     0.232 C 
ATOM     16  N   UNL d   1      28.039 -13.911  -5.327  0.00  0.00    -0.324 N 
ATOM     17  H   UNL d   1      28.140 -13.013  -4.897  0.00  0.00     0.169 HD
ATOM     18  O   UNL d   1      26.457 -15.575  -5.638  0.00  0.00    -0.272 OA
BRANCH  16  19
ATOM     19  C   UNL d   1      29.202 -14.532  -5.899  0.00  0.00     0.071 A 
ATOM     20  C   UNL d   1      29.670 -15.823  -5.569  0.00  0.00     0.095 A 
ATOM     21  C   UNL d   1      30.774 -16.356  -6.283  0.00  0.00     0.042 A 
ATOM     22  C   UNL d   1      31.467 -15.610  -7.243  0.00  0.00     0.039 A 
ATOM     23  C   UNL d   1      31.033 -14.336  -7.552  0.00  0.00     0.070 A 
ATOM     24  C   UNL d   1      29.920 -13.833  -6.888  0.00  0.00     0.069 A 
BRANCH  20  25
ATOM     25  O   UNL d   1      29.221 -16.705  -4.614  0.00  0.00    -0.354 OA
ATOM     26  C   UNL d   1      30.162 -17.456  -3.872  0.00  0.00     0.210 C 
ENDBRANCH  20  25
BRANCH  23  27
ATOM     27  O   UNL d   1      31.656 -13.681  -8.580  0.00  0.00    -0.356 OA
ATOM     28  C   UNL d   1      30.945 -12.569  -9.131  0.00  0.00     0.210 C 
ENDBRANCH  23  27
ENDBRANCH  16  19
ENDBRANCH  14  15
ENDBRANCH  13  14
ENDBRANCH   1  13
BRANCH   4  29
ATOM     29  C   UNL d   1      24.426 -17.609  -0.410  0.00  0.00    -0.022 A 
ATOM     30  C   UNL d   1      24.032 -18.949  -0.288  0.00  0.00     0.012 A 
ATOM     31  C   UNL d   1      22.704 -19.314  -0.521  0.00  0.00     0.001 A 
ATOM     32  C   UNL d   1      21.748 -18.334  -0.787  0.00  0.00     0.000 A 
ATOM     33  C   UNL d   1      22.126 -16.994  -0.860  0.00  0.00     0.001 A 
ATOM     34  C   UNL d   1      23.462 -16.632  -0.675  0.00  0.00     0.012 A 
ENDBRANCH   4  29
TORSDOF 7
ENDMDL
MODEL 3
REMARK VINA RESULT:    -7.806      1.060      2.469
REMARK INTER + INTRA:         -12.260
REMARK INTER:                  -9.894
REMARK INTRA:                  -2.366
REMARK CONF_INDEPENDENT:        2.088
REMARK UNBOUND:                -2.366
REMARK  7 active torsions:
REMARK  status: ('A' for Active; 'I' for Inactive)
REMARK    1  A    between atoms: O_2  and  C_3 
REMARK    2  A    between atoms: C_6  and  O_7 
REMARK    3  A    between atoms: C_9  and  N_10 
REMARK       I    between atoms: N_10  and  C_11 
REMARK    4  A    between atoms: C_11  and  C_13 
REMARK    5  A    between atoms: C_13  and  S_14 
REMARK    6  A    between atoms: S_14  and  C_15 
REMARK    7  A    between atoms: C_18  and  C_19 
ROOT
ATOM      1  C   UNL d   1      26.966 -13.840  -2.130  0.00  0.00     0.172 A 
ATOM      2  N   UNL d   1      26.087 -14.750  -1.829  0.00  0.00    -0.221 NA
ATOM      3  C   UNL d   1      26.531 -15.667  -0.877  0.00  0.00     0.104 A 
ATOM      4  C   UNL d   1      25.839 -16.757  -0.308  0.00  0.00     0.021 A 
ATOM      5  C   UNL d   1      26.716 -17.326   0.605  0.00  0.00     0.103 A 
ATOM      6  N   UNL d   1      27.885 -16.606   0.597  0.00  0.00    -0.359 N 
ATOM      7  C   UNL d   1      27.773 -15.594  -0.315  0.00  0.00     0.131 A 
ATOM      8  C   UNL d   1      28.733 -14.605  -0.655  0.00  0.00     0.278 A 
ATOM      9  O   UNL d   1      29.842 -14.554  -0.120  0.00  0.00    -0.265 OA
ATOM     10  N   UNL d   1      28.272 -13.719  -1.622  0.00  0.00    -0.296 N 
ATOM     11  C   UNL d   1      29.206 -12.679  -2.056  0.00  0.00     0.162 C 
ATOM     12  H   UNL d   1      28.704 -16.791   1.167  0.00  0.00     0.165 HD
ENDROOT
BRANCH   1  13
ATOM     13  S   UNL d   1      26.517 -12.670  -3.340  0.00  0.00    -0.082 SA
BRANCH  13  14
ATOM     14  C   UNL d   1      25.664 -13.625  -4.652  0.00  0.00     0.185 C 
BRANCH  14  15
ATOM     15  C   UNL d   1      26.571 -14.827  -4.989  0.00  0.00     0.232 C 
ATOM     16  N   UNL d   1      27.932 -14.619  -4.795  0.00  0.00    -0.324 N 
ATOM     17  H   UNL d   1      28.165 -13.729  -4.403  0.00  0.00     0.169 HD
ATOM     18  O   UNL d   1      26.082 -15.881  -5.391  0.00  0.00    -0.272 OA
BRANCH  16  19
ATOM     19  C   UNL d   1      28.991 -15.562  -5.031  0.00  0.00     0.071 A 
ATOM     20  C   UNL d   1      29.433 -16.527  -4.099  0.00  0.00     0.095 A 
ATOM     21  C   UNL d   1      30.422 -17.464  -4.498  0.00  0.00     0.042 A 
ATOM     22  C   UNL d   1      31.033 -17.407  -5.756  0.00  0.00     0.039 A 
ATOM     23  C   UNL d   1      30.626 -16.450  -6.664  0.00  0.00     0.070 A 
ATOM     24  C   UNL d   1      29.622 -15.564  -6.291  0.00  0.00     0.069 A 
BRANCH  20  25
ATOM     25  O   UNL d   1      29.058 -16.725  -2.792  0.00  0.00    -0.354 OA
ATOM     26  C   UNL d   1      29.922 -17.433  -1.925  0.00  0.00     0.210 C 
ENDBRANCH  20  25
BRANCH  23  27
ATOM     27  O   UNL d   1      31.155 -16.499  -7.925  0.00  0.00    -0.356 OA
ATOM     28  C   UNL d   1      32.262 -17.387  -8.101  0.00  0.00     0.210 C 
ENDBRANCH  23  27
ENDBRANCH  16  19
ENDBRANCH  14  15
ENDBRANCH  13  14
ENDBRANCH   1  13
BRANCH   4  29
ATOM     29  C   UNL d   1      24.549 -17.356  -0.589  0.00  0.00    -0.022 A 
ATOM     30  C   UNL d   1      23.434 -16.552  -0.863  0.00  0.00     0.012 A 
ATOM     31  C   UNL d   1      22.155 -17.112  -0.895  0.00  0.00     0.001 A 
ATOM     32  C   UNL d   1      21.993 -18.489  -0.743  0.00  0.00     0.000 A 
ATOM     33  C   UNL d   1      23.105 -19.300  -0.520  0.00  0.00     0.001 A 
ATOM     34  C   UNL d   1      24.380 -18.735  -0.440  0.00  0.00     0.012 A 
ENDBRANCH   4  29
TORSDOF 7
ENDMDL
MODEL 4
REMARK VINA RESULT:    -7.668      2.655      4.872
REMARK INTER + INTRA:         -11.831
REMARK INTER:                  -9.756
REMARK INTRA:                  -2.076
REMARK CONF_INDEPENDENT:        2.088
REMARK UNBOUND:                -2.076
REMARK  7 active torsions:
REMARK  status: ('A' for Active; 'I' for Inactive)
REMARK    1  A    between atoms: O_2  and  C_3 
REMARK    2  A    between atoms: C_6  and  O_7 
REMARK    3  A    between atoms: C_9  and  N_10 
REMARK       I    between atoms: N_10  and  C_11 
REMARK    4  A    between atoms: C_11  and  C_13 
REMARK    5  A    between atoms: C_13  and  S_14 
REMARK    6  A    between atoms: S_14  and  C_15 
REMARK    7  A    between atoms: C_18  and  C_19 
ROOT
ATOM      1  C   UNL d   1      27.951 -15.724  -3.331  0.00  0.00     0.172 A 
ATOM      2  N   UNL d   1      26.914 -16.128  -2.658  0.00  0.00    -0.221 NA
ATOM      3  C   UNL d   1      27.186 -16.409  -1.320  0.00  0.00     0.104 A 
ATOM      4  C   UNL d   1      26.302 -16.841  -0.309  0.00  0.00     0.021 A 
ATOM      5  C   UNL d   1      27.069 -16.943   0.845  0.00  0.00     0.103 A 
ATOM      6  N   UNL d   1      28.359 -16.579   0.546  0.00  0.00    -0.359 N 
ATOM      7  C   UNL d   1      28.431 -16.259  -0.780  0.00  0.00     0.131 A 
ATOM      8  C   UNL d   1      29.563 -15.828  -1.521  0.00  0.00     0.278 A 
ATOM      9  O   UNL d   1      30.672 -15.685  -1.004  0.00  0.00    -0.265 OA
ATOM     10  N   UNL d   1      29.267 -15.577  -2.856  0.00  0.00    -0.296 N 
ATOM     11  C   UNL d   1      30.381 -15.153  -3.706  0.00  0.00     0.162 C 
ATOM     12  H   UNL d   1      29.137 -16.554   1.197  0.00  0.00     0.165 HD
ENDROOT
BRANCH   1  13
ATOM     13  S   UNL d   1      27.718 -15.384  -5.023  0.00  0.00    -0.082 SA
BRANCH  13  14
ATOM     14  C   UNL d   1      25.904 -15.261  -5.254  0.00  0.00     0.185 C 
BRANCH  14  15
ATOM     15  C   UNL d   1      25.453 -13.963  -4.551  0.00  0.00     0.232 C 
ATOM     16  N   UNL d   1      26.304 -12.874  -4.708  0.00  0.00    -0.324 N 
ATOM     17  H   UNL d   1      27.086 -13.041  -5.308  0.00  0.00     0.169 HD
ATOM     18  O   UNL d   1      24.402 -13.935  -3.914  0.00  0.00    -0.272 OA
BRANCH  16  19
ATOM     19  C   UNL d   1      26.127 -11.557  -4.162  0.00  0.00     0.071 A 
ATOM     20  C   UNL d   1      26.537 -11.159  -2.871  0.00  0.00     0.095 A 
ATOM     21  C   UNL d   1      26.393  -9.798  -2.493  0.00  0.00     0.042 A 
ATOM     22  C   UNL d   1      25.778  -8.858  -3.328  0.00  0.00     0.039 A 
ATOM     23  C   UNL d   1      25.349  -9.245  -4.582  0.00  0.00     0.070 A 
ATOM     24  C   UNL d   1      25.537 -10.566  -4.971  0.00  0.00     0.069 A 
BRANCH  20  25
ATOM     25  O   UNL d   1      27.077 -11.904  -1.850  0.00  0.00    -0.354 OA
ATOM     26  C   UNL d   1      26.393 -13.057  -1.399  0.00  0.00     0.210 C 
ENDBRANCH  20  25
BRANCH  23  27
ATOM     27  O   UNL d   1      24.865  -8.275  -5.419  0.00  0.00    -0.356 OA
ATOM     28  C   UNL d   1      23.448  -8.084  -5.395  0.00  0.00     0.210 C 
ENDBRANCH  23  27
ENDBRANCH  16  19
ENDBRANCH  14  15
ENDBRANCH  13  14
ENDBRANCH   1  13
BRANCH   4  29
ATOM     29  C   UNL d   1      24.911 -17.248  -0.328  0.00  0.00    -0.022 A 
ATOM     30  C   UNL d   1      24.558 -18.591  -0.138  0.00  0.00     0.012 A 
ATOM     31  C   UNL d   1      23.253 -19.017  -0.393  0.00  0.00     0.001 A 
ATOM     32  C   UNL d   1      22.275 -18.090  -0.752  0.00  0.00     0.000 A 
ATOM     33  C   UNL d   1      22.610 -16.744  -0.895  0.00  0.00     0.001 A 
ATOM     34  C   UNL d   1      23.926 -16.324  -0.686  0.00  0.00     0.012 A 
ENDBRANCH   4  29
TORSDOF 7
ENDMDL
MODEL 5
REMARK VINA RESULT:    -7.049      2.394      4.449
REMARK INTER + INTRA:         -12.072
REMARK INTER:                  -9.137
REMARK INTRA:                  -2.936
REMARK CONF_INDEPENDENT:        2.088
REMARK UNBOUND:                -2.936
REMARK  7 active torsions:
REMARK  status: ('A' for Active; 'I' for Inactive)
REMARK    1  A    between atoms: O_2  and  C_3 
REMARK    2  A    between atoms: C_6  and  O_7 
REMARK    3  A    between atoms: C_9  and  N_10 
REMARK       I    between atoms: N_10  and  C_11 
REMARK    4  A    between atoms: C_11  and  C_13 
REMARK    5  A    between atoms: C_13  and  S_14 
REMARK    6  A    between atoms: S_14  and  C_15 
REMARK    7  A    between atoms: C_18  and  C_19 
ROOT
ATOM      1  C   UNL d   1      27.185 -15.574  -3.370  0.00  0.00     0.172 A 
ATOM      2  N   UNL d   1      26.218 -16.073  -2.658  0.00  0.00    -0.221 NA
ATOM      3  C   UNL d   1      26.645 -16.686  -1.480  0.00  0.00     0.104 A 
ATOM      4  C   UNL d   1      25.873 -17.302  -0.473  0.00  0.00     0.021 A 
ATOM      5  C   UNL d   1      26.778 -17.723   0.492  0.00  0.00     0.103 A 
ATOM      6  N   UNL d   1      28.042 -17.368   0.091  0.00  0.00    -0.359 N 
ATOM      7  C   UNL d   1      27.960 -16.739  -1.120  0.00  0.00     0.131 A 
ATOM      8  C   UNL d   1      29.014 -16.203  -1.906  0.00  0.00     0.278 A 
ATOM      9  O   UNL d   1      30.192 -16.251  -1.547  0.00  0.00    -0.265 OA
ATOM     10  N   UNL d   1      28.561 -15.619  -3.084  0.00  0.00    -0.296 N 
ATOM     11  C   UNL d   1      29.582 -15.062  -3.973  0.00  0.00     0.162 C 
ATOM     12  H   UNL d   1      28.901 -17.545   0.601  0.00  0.00     0.165 HD
ENDROOT
BRANCH   1  13
ATOM     13  S   UNL d   1      26.754 -14.821  -4.880  0.00  0.00    -0.082 SA
BRANCH  13  14
ATOM     14  C   UNL d   1      25.904 -13.262  -4.425  0.00  0.00     0.185 C 
BRANCH  14  15
ATOM     15  C   UNL d   1      26.649 -12.690  -3.200  0.00  0.00     0.232 C 
ATOM     16  N   UNL d   1      26.329 -13.277  -1.981  0.00  0.00    -0.324 N 
ATOM     17  H   UNL d   1      25.691 -14.045  -2.044  0.00  0.00     0.169 HD
ATOM     18  O   UNL d   1      27.468 -11.784  -3.338  0.00  0.00    -0.272 OA
BRANCH  16  19
ATOM     19  C   UNL d   1      26.868 -12.938  -0.692  0.00  0.00     0.071 A 
ATOM     20  C   UNL d   1      27.288 -11.645  -0.311  0.00  0.00     0.095 A 
ATOM     21  C   UNL d   1      27.709 -11.426   1.027  0.00  0.00     0.042 A 
ATOM     22  C   UNL d   1      27.801 -12.470   1.955  0.00  0.00     0.039 A 
ATOM     23  C   UNL d   1      27.419 -13.743   1.583  0.00  0.00     0.070 A 
ATOM     24  C   UNL d   1      26.959 -13.946   0.286  0.00  0.00     0.069 A 
BRANCH  20  25
ATOM     25  O   UNL d   1      27.374 -10.492  -1.054  0.00  0.00    -0.354 OA
ATOM     26  C   UNL d   1      28.646  -9.928  -1.310  0.00  0.00     0.210 C 
ENDBRANCH  20  25
BRANCH  23  27
ATOM     27  O   UNL d   1      27.405 -14.714   2.547  0.00  0.00    -0.356 OA
ATOM     28  C   UNL d   1      28.199 -14.451   3.707  0.00  0.00     0.210 C 
ENDBRANCH  23  27
ENDBRANCH  16  19
ENDBRANCH  14  15
ENDBRANCH  13  14
ENDBRANCH   1  13
BRANCH   4  29
ATOM     29  C   UNL d   1      24.461 -17.616  -0.371  0.00  0.00    -0.022 A 
ATOM     30  C   UNL d   1      24.031 -18.946  -0.279  0.00  0.00     0.012 A 
ATOM     31  C   UNL d   1      22.678 -19.259  -0.422  0.00  0.00     0.001 A 
ATOM     32  C   UNL d   1      21.739 -18.238  -0.568  0.00  0.00     0.000 A 
ATOM     33  C   UNL d   1      22.156 -16.908  -0.610  0.00  0.00     0.001 A 
ATOM     34  C   UNL d   1      23.515 -16.597  -0.515  0.00  0.00     0.012 A 
ENDBRANCH   4  29
TORSDOF 7
ENDMDL
MODEL 6
REMARK VINA RESULT:    -7.031      2.240      6.400
REMARK INTER + INTRA:         -11.801
REMARK INTER:                  -9.119
REMARK INTRA:                  -2.682
REMARK CONF_INDEPENDENT:        2.088
REMARK UNBOUND:                -2.682
REMARK  7 active torsions:
REMARK  status: ('A' for Active; 'I' for Inactive)
REMARK    1  A    between atoms: O_2  and  C_3 
REMARK    2  A    between atoms: C_6  and  O_7 
REMARK    3  A    between atoms: C_9  and  N_10 
REMARK       I    between atoms: N_10  and  C_11 
REMARK    4  A    between atoms: C_11  and  C_13 
REMARK    5  A    between atoms: C_13  and  S_14 
REMARK    6  A    between atoms: S_14  and  C_15 
REMARK    7  A    between atoms: C_18  and  C_19 
ROOT
ATOM      1  C   UNL d   1      27.605 -13.733  -0.939  0.00  0.00     0.172 A 
ATOM      2  N   UNL d   1      28.211 -14.557  -1.741  0.00  0.00    -0.221 NA
ATOM      3  C   UNL d   1      29.085 -15.431  -1.095  0.00  0.00     0.104 A 
ATOM      4  C   UNL d   1      29.879 -16.458  -1.647  0.00  0.00     0.021 A 
ATOM      5  C   UNL d   1      30.537 -17.045  -0.575  0.00  0.00     0.103 A 
ATOM      6  N   UNL d   1      30.151 -16.407   0.578  0.00  0.00    -0.359 N 
ATOM      7  C   UNL d   1      29.267 -15.415   0.258  0.00  0.00     0.131 A 
ATOM      8  C   UNL d   1      28.611 -14.506   1.129  0.00  0.00     0.278 A 
ATOM      9  O   UNL d   1      28.782 -14.525   2.350  0.00  0.00    -0.265 OA
ATOM     10  N   UNL d   1      27.764 -13.633   0.455  0.00  0.00    -0.296 N 
ATOM     11  C   UNL d   1      27.064 -12.640   1.271  0.00  0.00     0.162 C 
ATOM     12  H   UNL d   1      30.468 -16.627   1.516  0.00  0.00     0.165 HD
ENDROOT
BRANCH   1  13
ATOM     13  S   UNL d   1      26.520 -12.576  -1.658  0.00  0.00    -0.082 SA
BRANCH  13  14
ATOM     14  C   UNL d   1      25.891 -13.376  -3.183  0.00  0.00     0.185 C 
BRANCH  14  15
ATOM     15  C   UNL d   1      24.889 -14.460  -2.737  0.00  0.00     0.232 C 
ATOM     16  N   UNL d   1      25.388 -15.402  -1.843  0.00  0.00    -0.324 N 
ATOM     17  H   UNL d   1      26.329 -15.236  -1.547  0.00  0.00     0.169 HD
ATOM     18  O   UNL d   1      23.734 -14.450  -3.158  0.00  0.00    -0.272 OA
BRANCH  16  19
ATOM     19  C   UNL d   1      24.676 -16.512  -1.273  0.00  0.00     0.071 A 
ATOM     20  C   UNL d   1      25.277 -17.573  -0.559  0.00  0.00     0.095 A 
ATOM     21  C   UNL d   1      24.445 -18.556   0.038  0.00  0.00     0.042 A 
ATOM     22  C   UNL d   1      23.056 -18.555  -0.132  0.00  0.00     0.039 A 
ATOM     23  C   UNL d   1      22.463 -17.537  -0.851  0.00  0.00     0.070 A 
ATOM     24  C   UNL d   1      23.273 -16.546  -1.394  0.00  0.00     0.069 A 
BRANCH  20  25
ATOM     25  O   UNL d   1      26.606 -17.841  -0.334  0.00  0.00    -0.354 OA
ATOM     26  C   UNL d   1      27.030 -18.181   0.972  0.00  0.00     0.210 C 
ENDBRANCH  20  25
BRANCH  23  27
ATOM     27  O   UNL d   1      21.095 -17.497  -0.895  0.00  0.00    -0.356 OA
ATOM     28  C   UNL d   1      20.442 -18.756  -1.080  0.00  0.00     0.210 C 
ENDBRANCH  23  27
ENDBRANCH  16  19
ENDBRANCH  14  15
ENDBRANCH  13  14
ENDBRANCH   1  13
BRANCH   4  29
ATOM     29  C   UNL d   1      30.153 -16.861  -3.013  0.00  0.00    -0.022 A 
ATOM     30  C   UNL d   1      31.336 -17.543  -3.331  0.00  0.00     0.012 A 
ATOM     31  C   UNL d   1      31.709 -17.716  -4.666  0.00  0.00     0.001 A 
ATOM     32  C   UNL d   1      30.861 -17.289  -5.687  0.00  0.00     0.000 A 
ATOM     33  C   UNL d   1      29.659 -16.654  -5.376  0.00  0.00     0.001 A 
ATOM     34  C   UNL d   1      29.307 -16.438  -4.042  0.00  0.00     0.012 A 
ENDBRANCH   4  29
TORSDOF 7
ENDMDL
MODEL 7
REMARK VINA RESULT:    -6.928      2.429      4.926
REMARK INTER + INTRA:         -11.936
REMARK INTER:                  -9.016
REMARK INTRA:                  -2.919
REMARK CONF_INDEPENDENT:        2.088
REMARK UNBOUND:                -2.919
REMARK  7 active torsions:
REMARK  status: ('A' for Active; 'I' for Inactive)
REMARK    1  A    between atoms: O_2  and  C_3 
REMARK    2  A    between atoms: C_6  and  O_7 
REMARK    3  A    between atoms: C_9  and  N_10 
REMARK       I    between atoms: N_10  and  C_11 
REMARK    4  A    between atoms: C_11  and  C_13 
REMARK    5  A    between atoms: C_13  and  S_14 
REMARK    6  A    between atoms: S_14  and  C_15 
REMARK    7  A    between atoms: C_18  and  C_19 
ROOT
ATOM      1  C   UNL d   1      27.187 -15.566  -3.469  0.00  0.00     0.172 A 
ATOM      2  N   UNL d   1      26.235 -16.057  -2.732  0.00  0.00    -0.221 NA
ATOM      3  C   UNL d   1      26.691 -16.752  -1.613  0.00  0.00     0.104 A 
ATOM      4  C   UNL d   1      25.942 -17.385  -0.598  0.00  0.00     0.021 A 
ATOM      5  C   UNL d   1      26.873 -17.899   0.294  0.00  0.00     0.103 A 
ATOM      6  N   UNL d   1      28.131 -17.582  -0.155  0.00  0.00    -0.359 N 
ATOM      7  C   UNL d   1      28.019 -16.885  -1.326  0.00  0.00     0.131 A 
ATOM      8  C   UNL d   1      29.056 -16.356  -2.138  0.00  0.00     0.278 A 
ATOM      9  O   UNL d   1      30.247 -16.478  -1.847  0.00  0.00    -0.265 OA
ATOM     10  N   UNL d   1      28.573 -15.689  -3.259  0.00  0.00    -0.296 N 
ATOM     11  C   UNL d   1      29.573 -15.134  -4.172  0.00  0.00     0.162 C 
ATOM     12  H   UNL d   1      29.005 -17.825   0.298  0.00  0.00     0.165 HD
ENDROOT
BRANCH   1  13
ATOM     13  S   UNL d   1      26.717 -14.713  -4.913  0.00  0.00    -0.082 SA
BRANCH  13  14
ATOM     14  C   UNL d   1      25.417 -13.534  -4.384  0.00  0.00     0.185 C 
BRANCH  14  15
ATOM     15  C   UNL d   1      26.068 -12.585  -3.356  0.00  0.00     0.232 C 
ATOM     16  N   UNL d   1      26.412 -13.168  -2.141  0.00  0.00    -0.324 N 
ATOM     17  H   UNL d   1      26.249 -14.154  -2.092  0.00  0.00     0.169 HD
ATOM     18  O   UNL d   1      26.259 -11.404  -3.635  0.00  0.00    -0.272 OA
BRANCH  16  19
ATOM     19  C   UNL d   1      27.024 -12.518  -1.015  0.00  0.00     0.071 A 
ATOM     20  C   UNL d   1      27.312 -13.144   0.218  0.00  0.00     0.095 A 
ATOM     21  C   UNL d   1      28.010 -12.412   1.213  0.00  0.00     0.042 A 
ATOM     22  C   UNL d   1      28.346 -11.064   1.043  0.00  0.00     0.039 A 
ATOM     23  C   UNL d   1      28.045 -10.437  -0.148  0.00  0.00     0.070 A 
ATOM     24  C   UNL d   1      27.405 -11.168  -1.142  0.00  0.00     0.069 A 
BRANCH  20  25
ATOM     25  O   UNL d   1      27.008 -14.412   0.653  0.00  0.00    -0.354 OA
ATOM     26  C   UNL d   1      27.780 -14.990   1.688  0.00  0.00     0.210 C 
ENDBRANCH  20  25
BRANCH  23  27
ATOM     27  O   UNL d   1      28.495  -9.156  -0.329  0.00  0.00    -0.356 OA
ATOM     28  C   UNL d   1      27.510  -8.201  -0.730  0.00  0.00     0.210 C 
ENDBRANCH  23  27
ENDBRANCH  16  19
ENDBRANCH  14  15
ENDBRANCH  13  14
ENDBRANCH   1  13
BRANCH   4  29
ATOM     29  C   UNL d   1      24.524 -17.638  -0.437  0.00  0.00    -0.022 A 
ATOM     30  C   UNL d   1      24.039 -18.950  -0.349  0.00  0.00     0.012 A 
ATOM     31  C   UNL d   1      22.667 -19.199  -0.435  0.00  0.00     0.001 A 
ATOM     32  C   UNL d   1      21.770 -18.136  -0.520  0.00  0.00     0.000 A 
ATOM     33  C   UNL d   1      22.244 -16.825  -0.558  0.00  0.00     0.001 A 
ATOM     34  C   UNL d   1      23.618 -16.576  -0.520  0.00  0.00     0.012 A 
ENDBRANCH   4  29
TORSDOF 7
ENDMDL
MODEL 8
REMARK VINA RESULT:    -6.748      2.314      5.970
REMARK INTER + INTRA:         -12.029
REMARK INTER:                  -8.836
REMARK INTRA:                  -3.192
REMARK CONF_INDEPENDENT:        2.088
REMARK UNBOUND:                -3.192
REMARK  7 active torsions:
REMARK  status: ('A' for Active; 'I' for Inactive)
REMARK    1  A    between atoms: O_2  and  C_3 
REMARK    2  A    between atoms: C_6  and  O_7 
REMARK    3  A    between atoms: C_9  and  N_10 
REMARK       I    between atoms: N_10  and  C_11 
REMARK    4  A    between atoms: C_11  and  C_13 
REMARK    5  A    between atoms: C_13  and  S_14 
REMARK    6  A    between atoms: S_14  and  C_15 
REMARK    7  A    between atoms: C_18  and  C_19 
ROOT
ATOM      1  C   UNL d   1      28.518 -15.073  -3.748  0.00  0.00     0.172 A 
ATOM      2  N   UNL d   1      28.394 -14.719  -2.503  0.00  0.00    -0.221 NA
ATOM      3  C   UNL d   1      29.372 -15.254  -1.666  0.00  0.00     0.104 A 
ATOM      4  C   UNL d   1      29.552 -15.063  -0.279  0.00  0.00     0.021 A 
ATOM      5  C   UNL d   1      30.685 -15.790   0.059  0.00  0.00     0.103 A 
ATOM      6  N   UNL d   1      31.176 -16.388  -1.076  0.00  0.00    -0.359 N 
ATOM      7  C   UNL d   1      30.368 -16.065  -2.130  0.00  0.00     0.131 A 
ATOM      8  C   UNL d   1      30.494 -16.457  -3.488  0.00  0.00     0.278 A 
ATOM      9  O   UNL d   1      31.414 -17.177  -3.883  0.00  0.00    -0.265 OA
ATOM     10  N   UNL d   1      29.493 -15.928  -4.295  0.00  0.00    -0.296 N 
ATOM     11  C   UNL d   1      29.526 -16.302  -5.710  0.00  0.00     0.162 C 
ATOM     12  H   UNL d   1      32.000 -16.978  -1.131  0.00  0.00     0.165 HD
ENDROOT
BRANCH   1  13
ATOM     13  S   UNL d   1      27.319 -14.486  -4.866  0.00  0.00    -0.082 SA
BRANCH  13  14
ATOM     14  C   UNL d   1      26.176 -13.460  -3.864  0.00  0.00     0.185 C 
BRANCH  14  15
ATOM     15  C   UNL d   1      25.234 -14.434  -3.127  0.00  0.00     0.232 C 
ATOM     16  N   UNL d   1      25.843 -15.249  -2.179  0.00  0.00    -0.324 N 
ATOM     17  H   UNL d   1      26.818 -15.072  -2.042  0.00  0.00     0.169 HD
ATOM     18  O   UNL d   1      24.032 -14.450  -3.384  0.00  0.00    -0.272 OA
BRANCH  16  19
ATOM     19  C   UNL d   1      25.205 -16.241  -1.357  0.00  0.00     0.071 A 
ATOM     20  C   UNL d   1      25.848 -16.976  -0.336  0.00  0.00     0.095 A 
ATOM     21  C   UNL d   1      25.076 -17.854   0.469  0.00  0.00     0.042 A 
ATOM     22  C   UNL d   1      23.715 -18.078   0.227  0.00  0.00     0.039 A 
ATOM     23  C   UNL d   1      23.085 -17.384  -0.786  0.00  0.00     0.070 A 
ATOM     24  C   UNL d   1      23.831 -16.487  -1.542  0.00  0.00     0.069 A 
BRANCH  20  25
ATOM     25  O   UNL d   1      27.172 -16.998   0.032  0.00  0.00    -0.354 OA
ATOM     26  C   UNL d   1      27.918 -18.186  -0.145  0.00  0.00     0.210 C 
ENDBRANCH  20  25
BRANCH  23  27
ATOM     27  O   UNL d   1      21.731 -17.534  -0.917  0.00  0.00    -0.356 OA
ATOM     28  C   UNL d   1      21.202 -18.798  -0.507  0.00  0.00     0.210 C 
ENDBRANCH  23  27
ENDBRANCH  16  19
ENDBRANCH  14  15
ENDBRANCH  13  14
ENDBRANCH   1  13
BRANCH   4  29
ATOM     29  C   UNL d   1      28.758 -14.392   0.730  0.00  0.00    -0.022 A 
ATOM     30  C   UNL d   1      29.124 -14.450   2.082  0.00  0.00     0.012 A 
ATOM     31  C   UNL d   1      28.239 -14.013   3.070  0.00  0.00     0.001 A 
ATOM     32  C   UNL d   1      27.023 -13.434   2.709  0.00  0.00     0.000 A 
ATOM     33  C   UNL d   1      26.675 -13.327   1.362  0.00  0.00     0.001 A 
ATOM     34  C   UNL d   1      27.538 -13.808   0.376  0.00  0.00     0.012 A 
ENDBRANCH   4  29
TORSDOF 7
ENDMDL
MODEL 9
REMARK VINA RESULT:    -6.510      2.376      5.354
REMARK INTER + INTRA:         -12.009
REMARK INTER:                  -8.598
REMARK INTRA:                  -3.411
REMARK CONF_INDEPENDENT:        2.088
REMARK UNBOUND:                -3.411
REMARK  7 active torsions:
REMARK  status: ('A' for Active; 'I' for Inactive)
REMARK    1  A    between atoms: O_2  and  C_3 
REMARK    2  A    between atoms: C_6  and  O_7 
REMARK    3  A    between atoms: C_9  and  N_10 
REMARK       I    between atoms: N_10  and  C_11 
REMARK    4  A    between atoms: C_11  and  C_13 
REMARK    5  A    between atoms: C_13  and  S_14 
REMARK    6  A    between atoms: S_14  and  C_15 
REMARK    7  A    between atoms: C_18  and  C_19 
ROOT
ATOM      1  C   UNL d   1      28.431 -15.548  -4.223  0.00  0.00     0.172 A 
ATOM      2  N   UNL d   1      27.514 -15.947  -3.392  0.00  0.00    -0.221 NA
ATOM      3  C   UNL d   1      26.346 -15.187  -3.433  0.00  0.00     0.104 A 
ATOM      4  C   UNL d   1      25.155 -15.352  -2.695  0.00  0.00     0.021 A 
ATOM      5  C   UNL d   1      24.296 -14.354  -3.135  0.00  0.00     0.103 A 
ATOM      6  N   UNL d   1      24.936 -13.623  -4.105  0.00  0.00    -0.359 N 
ATOM      7  C   UNL d   1      26.193 -14.129  -4.283  0.00  0.00     0.131 A 
ATOM      8  C   UNL d   1      27.200 -13.690  -5.182  0.00  0.00     0.278 A 
ATOM      9  O   UNL d   1      27.028 -12.741  -5.950  0.00  0.00    -0.265 OA
ATOM     10  N   UNL d   1      28.361 -14.451  -5.102  0.00  0.00    -0.296 N 
ATOM     11  C   UNL d   1      29.466 -14.053  -5.974  0.00  0.00     0.162 C 
ATOM     12  H   UNL d   1      24.548 -12.832  -4.609  0.00  0.00     0.165 HD
ENDROOT
BRANCH   1  13
ATOM     13  S   UNL d   1      29.942 -16.413  -4.216  0.00  0.00    -0.082 SA
BRANCH  13  14
ATOM     14  C   UNL d   1      30.158 -17.010  -2.497  0.00  0.00     0.185 C 
BRANCH  14  15
ATOM     15  C   UNL d   1      29.899 -15.803  -1.571  0.00  0.00     0.232 C 
ATOM     16  N   UNL d   1      28.610 -15.715  -1.054  0.00  0.00    -0.324 N 
ATOM     17  H   UNL d   1      28.011 -16.478  -1.298  0.00  0.00     0.169 HD
ATOM     18  O   UNL d   1      30.799 -15.003  -1.325  0.00  0.00    -0.272 OA
BRANCH  16  19
ATOM     19  C   UNL d   1      28.101 -14.699  -0.175  0.00  0.00     0.071 A 
ATOM     20  C   UNL d   1      27.609 -13.443  -0.595  0.00  0.00     0.095 A 
ATOM     21  C   UNL d   1      27.042 -12.570   0.369  0.00  0.00     0.042 A 
ATOM     22  C   UNL d   1      27.035 -12.878   1.735  0.00  0.00     0.039 A 
ATOM     23  C   UNL d   1      27.539 -14.091   2.158  0.00  0.00     0.070 A 
ATOM     24  C   UNL d   1      28.048 -14.968   1.207  0.00  0.00     0.069 A 
BRANCH  20  25
ATOM     25  O   UNL d   1      27.588 -12.881  -1.849  0.00  0.00    -0.354 OA
ATOM     26  C   UNL d   1      28.805 -12.480  -2.447  0.00  0.00     0.210 C 
ENDBRANCH  20  25
BRANCH  23  27
ATOM     27  O   UNL d   1      27.405 -14.413   3.482  0.00  0.00    -0.356 OA
ATOM     28  C   UNL d   1      28.617 -14.444   4.240  0.00  0.00     0.210 C 
ENDBRANCH  23  27
ENDBRANCH  16  19
ENDBRANCH  14  15
ENDBRANCH  13  14
ENDBRANCH   1  13
BRANCH   4  29
ATOM     29  C   UNL d   1      24.792 -16.232  -1.602  0.00  0.00    -0.022 A 
ATOM     30  C   UNL d   1      25.753 -17.052  -0.995  0.00  0.00     0.012 A 
ATOM     31  C   UNL d   1      25.361 -18.063  -0.116  0.00  0.00     0.001 A 
ATOM     32  C   UNL d   1      24.017 -18.203   0.230  0.00  0.00     0.000 A 
ATOM     33  C   UNL d   1      23.061 -17.357  -0.333  0.00  0.00     0.001 A 
ATOM     34  C   UNL d   1      23.447 -16.376  -1.249  0.00  0.00     0.012 A 
ENDBRANCH   4  29
TORSDOF 7
ENDMDL
