MODEL 1
REMARK VINA RESULT:   -31.264      0.000      0.000
REMARK INTER + INTRA:         -34.238
REMARK INTER:                 -32.457
REMARK INTRA:                  -1.780
REMARK CONF_INDEPENDENT:        1.193
REMARK UNBOUND:                -1.780
REMARK  4 active torsions:
REMARK  status: ('A' for Active; 'I' for Inactive)
REMARK    1  A    between atoms: C_9  and  N_10 
REMARK       I    between atoms: N_10  and  C_11 
REMARK    2  A    between atoms: C_11  and  C_13 
REMARK       I    between atoms: C_13  and  N_15 
REMARK    3  A    between atoms: N_15  and  C_16 
REMARK    4  A    between atoms: C_16  and  C_18 
ROOT
ATOM      1  C   UNL d   1      26.672 -17.797  -0.574  0.00  0.00     0.050 C 
ATOM      2  C   UNL d   1      25.185 -17.744  -0.571  0.00  0.00    -0.035 C 
ATOM      3  C   UNL d   1      24.577 -18.940  -0.151  0.00  0.00     0.010 C 
ATOM      4  C   UNL d   1      23.218 -19.129  -0.285  0.00  0.00     0.023 C 
ATOM      5  C   UNL d   1      22.428 -18.062  -0.702  0.00  0.00     0.046 C 
ATOM      6  C   UNL d   1      21.019 -18.312  -0.877  0.00  0.00     0.099 C 
ATOM      7  N   UNL d   1      19.905 -18.583  -1.032  0.00  0.00    -0.191 NA
ATOM      8  C   UNL d   1      23.019 -16.798  -0.980  0.00  0.00     0.052 C 
ATOM      9  C   UNL d   1      24.429 -16.632  -1.000  0.00  0.00     0.042 C 
ENDROOT
BRANCH   9  10
ATOM     10  N   UNL d   1      25.002 -15.387  -1.481  0.00  0.00    -0.318 N 
ATOM     11  C   UNL d   1      25.276 -14.997  -2.805  0.00  0.00     0.314 C 
ATOM     12  O   UNL d   1      25.158 -15.602  -3.867  0.00  0.00    -0.262 OA
ATOM     13  H   UNL d   1      25.190 -14.669  -0.784  0.00  0.00     0.169 HD
BRANCH  11  14
ATOM     14  C   UNL d   1      25.819 -13.605  -3.099  0.00  0.00     0.310 C 
ATOM     15  O   UNL d   1      25.651 -12.688  -2.318  0.00  0.00    -0.262 OA
ATOM     16  N   UNL d   1      26.503 -13.593  -4.319  0.00  0.00    -0.345 N 
ATOM     17  H   UNL d   1      26.518 -14.497  -4.788  0.00  0.00     0.163 HD
BRANCH  16  18
ATOM     18  C   UNL d   1      27.219 -12.460  -4.866  0.00  0.00     0.114 C 
ATOM     19  C   UNL d   1      27.854 -12.885  -6.187  0.00  0.00     0.037 C 
BRANCH  18  20
ATOM     20  C   UNL d   1      26.399 -11.173  -5.065  0.00  0.00    -0.036 A 
ATOM     21  C   UNL d   1      26.055 -10.398  -3.932  0.00  0.00     0.011 A 
ATOM     22  C   UNL d   1      25.175  -9.313  -4.021  0.00  0.00     0.024 A 
ATOM     23  C   UNL d   1      24.714  -8.906  -5.264  0.00  0.00     0.034 A 
ATOM     24 CL   UNL d   1      23.577  -7.622  -5.384  0.00  0.00    -0.084 Cl
ATOM     25  C   UNL d   1      25.146  -9.561  -6.412  0.00  0.00     0.024 A 
ATOM     26  C   UNL d   1      25.929 -10.721  -6.308  0.00  0.00     0.011 A 
ENDBRANCH  18  20
ENDBRANCH  16  18
ENDBRANCH  11  14
ENDBRANCH   9  10
TORSDOF 4
ENDMDL
MODEL 2
REMARK VINA RESULT:   -31.060      1.900      2.676
REMARK INTER + INTRA:         -33.755
REMARK INTER:                 -32.253
REMARK INTRA:                  -1.502
REMARK CONF_INDEPENDENT:        1.193
REMARK UNBOUND:                -1.502
REMARK  4 active torsions:
REMARK  status: ('A' for Active; 'I' for Inactive)
REMARK    1  A    between atoms: C_9  and  N_10 
REMARK       I    between atoms: N_10  and  C_11 
REMARK    2  A    between atoms: C_11  and  C_13 
REMARK       I    between atoms: C_13  and  N_15 
REMARK    3  A    between atoms: N_15  and  C_16 
REMARK    4  A    between atoms: C_16  and  C_18 
ROOT
ATOM      1  C   UNL d   1      26.664 -17.786  -0.512  0.00  0.00     0.050 C 
ATOM      2  C   UNL d   1      25.177 -17.739  -0.508  0.00  0.00    -0.035 C 
ATOM      3  C   UNL d   1      24.573 -18.952  -0.135  0.00  0.00     0.010 C 
ATOM      4  C   UNL d   1      23.214 -19.140  -0.277  0.00  0.00     0.023 C 
ATOM      5  C   UNL d   1      22.421 -18.061  -0.652  0.00  0.00     0.046 C 
ATOM      6  C   UNL d   1      21.013 -18.309  -0.838  0.00  0.00     0.099 C 
ATOM      7  N   UNL d   1      19.900 -18.578  -1.004  0.00  0.00    -0.191 NA
ATOM      8  C   UNL d   1      23.007 -16.785  -0.881  0.00  0.00     0.052 C 
ATOM      9  C   UNL d   1      24.417 -16.614  -0.894  0.00  0.00     0.042 C 
ENDROOT
BRANCH   9  10
ATOM     10  N   UNL d   1      24.986 -15.349  -1.327  0.00  0.00    -0.318 N 
ATOM     11  C   UNL d   1      25.294 -14.922  -2.632  0.00  0.00     0.314 C 
ATOM     12  O   UNL d   1      25.217 -15.502  -3.712  0.00  0.00    -0.262 OA
ATOM     13  H   UNL d   1      25.142 -14.646  -0.607  0.00  0.00     0.169 HD
BRANCH  11  14
ATOM     14  C   UNL d   1      25.825 -13.516  -2.874  0.00  0.00     0.310 C 
ATOM     15  O   UNL d   1      26.667 -13.028  -2.144  0.00  0.00    -0.262 OA
ATOM     16  N   UNL d   1      25.226 -12.954  -4.007  0.00  0.00    -0.345 N 
ATOM     17  H   UNL d   1      24.554 -13.570  -4.462  0.00  0.00     0.163 HD
BRANCH  16  18
ATOM     18  C   UNL d   1      25.559 -11.666  -4.577  0.00  0.00     0.114 C 
ATOM     19  C   UNL d   1      26.189 -10.805  -3.487  0.00  0.00     0.037 C 
BRANCH  18  20
ATOM     20  C   UNL d   1      26.465 -11.690  -5.821  0.00  0.00    -0.036 A 
ATOM     21  C   UNL d   1      26.129 -10.879  -6.930  0.00  0.00     0.011 A 
ATOM     22  C   UNL d   1      26.811 -10.977  -8.149  0.00  0.00     0.024 A 
ATOM     23  C   UNL d   1      27.921 -11.803  -8.247  0.00  0.00     0.034 A 
ATOM     24 CL   UNL d   1      28.726 -11.990  -9.755  0.00  0.00    -0.084 Cl
ATOM     25  C   UNL d   1      28.362 -12.507  -7.132  0.00  0.00     0.024 A 
ATOM     26  C   UNL d   1      27.604 -12.501  -5.951  0.00  0.00     0.011 A 
ENDBRANCH  18  20
ENDBRANCH  16  18
ENDBRANCH  11  14
ENDBRANCH   9  10
TORSDOF 4
ENDMDL
MODEL 3
REMARK VINA RESULT:   -30.821      2.155      3.037
REMARK INTER + INTRA:         -33.700
REMARK INTER:                 -32.014
REMARK INTRA:                  -1.686
REMARK CONF_INDEPENDENT:        1.193
REMARK UNBOUND:                -1.686
REMARK  4 active torsions:
REMARK  status: ('A' for Active; 'I' for Inactive)
REMARK    1  A    between atoms: C_9  and  N_10 
REMARK       I    between atoms: N_10  and  C_11 
REMARK    2  A    between atoms: C_11  and  C_13 
REMARK       I    between atoms: C_13  and  N_15 
REMARK    3  A    between atoms: N_15  and  C_16 
REMARK    4  A    between atoms: C_16  and  C_18 
ROOT
ATOM      1  C   UNL d   1      26.656 -17.593  -0.665  0.00  0.00     0.050 C 
ATOM      2  C   UNL d   1      25.168 -17.581  -0.622  0.00  0.00    -0.035 C 
ATOM      3  C   UNL d   1      24.606 -18.777  -0.147  0.00  0.00     0.010 C 
ATOM      4  C   UNL d   1      23.249 -19.007  -0.237  0.00  0.00     0.023 C 
ATOM      5  C   UNL d   1      22.419 -17.976  -0.666  0.00  0.00     0.046 C 
ATOM      6  C   UNL d   1      21.013 -18.270  -0.795  0.00  0.00     0.099 C 
ATOM      7  N   UNL d   1      19.903 -18.575  -0.909  0.00  0.00    -0.191 NA
ATOM      8  C   UNL d   1      22.967 -16.707  -1.002  0.00  0.00     0.052 C 
ATOM      9  C   UNL d   1      24.371 -16.504  -1.067  0.00  0.00     0.042 C 
ENDROOT
BRANCH   9  10
ATOM     10  N   UNL d   1      24.896 -15.261  -1.605  0.00  0.00    -0.318 N 
ATOM     11  C   UNL d   1      25.233 -14.950  -2.935  0.00  0.00     0.314 C 
ATOM     12  O   UNL d   1      25.223 -15.635  -3.954  0.00  0.00    -0.262 OA
ATOM     13  H   UNL d   1      24.993 -14.484  -0.954  0.00  0.00     0.169 HD
BRANCH  11  14
ATOM     14  C   UNL d   1      25.707 -13.549  -3.299  0.00  0.00     0.310 C 
ATOM     15  O   UNL d   1      26.300 -12.858  -2.493  0.00  0.00    -0.262 OA
ATOM     16  N   UNL d   1      25.375 -13.248  -4.624  0.00  0.00    -0.345 N 
ATOM     17  H   UNL d   1      24.885 -14.001  -5.104  0.00  0.00     0.163 HD
BRANCH  16  18
ATOM     18  C   UNL d   1      25.748 -12.038  -5.327  0.00  0.00     0.114 C 
ATOM     19  C   UNL d   1      25.849 -10.904  -4.311  0.00  0.00     0.037 C 
BRANCH  18  20
ATOM     20  C   UNL d   1      27.037 -12.113  -6.165  0.00  0.00    -0.036 A 
ATOM     21  C   UNL d   1      27.795 -13.307  -6.151  0.00  0.00     0.011 A 
ATOM     22  C   UNL d   1      29.057 -13.387  -6.753  0.00  0.00     0.024 A 
ATOM     23  C   UNL d   1      29.534 -12.310  -7.486  0.00  0.00     0.034 A 
ATOM     24 CL   UNL d   1      31.110 -12.364  -8.171  0.00  0.00    -0.084 Cl
ATOM     25  C   UNL d   1      28.749 -11.172  -7.637  0.00  0.00     0.024 A 
ATOM     26  C   UNL d   1      27.542 -11.050  -6.931  0.00  0.00     0.011 A 
ENDBRANCH  18  20
ENDBRANCH  16  18
ENDBRANCH  11  14
ENDBRANCH   9  10
TORSDOF 4
ENDMDL
MODEL 4
REMARK VINA RESULT:   -30.719      2.705      3.760
REMARK INTER + INTRA:         -33.527
REMARK INTER:                 -31.913
REMARK INTRA:                  -1.615
REMARK CONF_INDEPENDENT:        1.193
REMARK UNBOUND:                -1.615
REMARK  4 active torsions:
REMARK  status: ('A' for Active; 'I' for Inactive)
REMARK    1  A    between atoms: C_9  and  N_10 
REMARK       I    between atoms: N_10  and  C_11 
REMARK    2  A    between atoms: C_11  and  C_13 
REMARK       I    between atoms: C_13  and  N_15 
REMARK    3  A    between atoms: N_15  and  C_16 
REMARK    4  A    between atoms: C_16  and  C_18 
ROOT
ATOM      1  C   UNL d   1      26.651 -17.622  -0.586  0.00  0.00     0.050 C 
ATOM      2  C   UNL d   1      25.163 -17.600  -0.586  0.00  0.00    -0.035 C 
ATOM      3  C   UNL d   1      24.580 -18.768  -0.065  0.00  0.00     0.010 C 
ATOM      4  C   UNL d   1      23.225 -18.996  -0.181  0.00  0.00     0.023 C 
ATOM      5  C   UNL d   1      22.413 -17.986  -0.687  0.00  0.00     0.046 C 
ATOM      6  C   UNL d   1      21.010 -18.280  -0.840  0.00  0.00     0.099 C 
ATOM      7  N   UNL d   1      19.902 -18.586  -0.969  0.00  0.00    -0.191 NA
ATOM      8  C   UNL d   1      22.978 -16.739  -1.073  0.00  0.00     0.052 C 
ATOM      9  C   UNL d   1      24.385 -16.546  -1.108  0.00  0.00     0.042 C 
ENDROOT
BRANCH   9  10
ATOM     10  N   UNL d   1      24.932 -15.335  -1.696  0.00  0.00    -0.318 N 
ATOM     11  C   UNL d   1      25.392 -15.123  -3.009  0.00  0.00     0.314 C 
ATOM     12  O   UNL d   1      25.500 -15.889  -3.962  0.00  0.00    -0.262 OA
ATOM     13  H   UNL d   1      24.945 -14.505  -1.107  0.00  0.00     0.169 HD
BRANCH  11  14
ATOM     14  C   UNL d   1      25.867 -13.742  -3.442  0.00  0.00     0.310 C 
ATOM     15  O   UNL d   1      25.771 -12.783  -2.699  0.00  0.00    -0.262 OA
ATOM     16  N   UNL d   1      26.404 -13.791  -4.733  0.00  0.00    -0.345 N 
ATOM     17  H   UNL d   1      26.384 -14.721  -5.149  0.00  0.00     0.163 HD
BRANCH  16  18
ATOM     18  C   UNL d   1      27.027 -12.682  -5.423  0.00  0.00     0.114 C 
ATOM     19  C   UNL d   1      27.361 -11.603  -4.397  0.00  0.00     0.037 C 
BRANCH  18  20
ATOM     20  C   UNL d   1      28.275 -13.020  -6.259  0.00  0.00    -0.036 A 
ATOM     21  C   UNL d   1      28.757 -14.349  -6.262  0.00  0.00     0.011 A 
ATOM     22  C   UNL d   1      29.976 -14.690  -6.862  0.00  0.00     0.024 A 
ATOM     23  C   UNL d   1      30.679 -13.730  -7.575  0.00  0.00     0.034 A 
ATOM     24 CL   UNL d   1      32.211 -14.112  -8.256  0.00  0.00    -0.084 Cl
ATOM     25  C   UNL d   1      30.159 -12.447  -7.709  0.00  0.00     0.024 A 
ATOM     26  C   UNL d   1      29.003 -12.079  -7.005  0.00  0.00     0.011 A 
ENDBRANCH  18  20
ENDBRANCH  16  18
ENDBRANCH  11  14
ENDBRANCH   9  10
TORSDOF 4
ENDMDL
MODEL 5
REMARK VINA RESULT:   -30.343      1.094      1.347
REMARK INTER + INTRA:         -33.356
REMARK INTER:                 -31.536
REMARK INTRA:                  -1.820
REMARK CONF_INDEPENDENT:        1.193
REMARK UNBOUND:                -1.820
REMARK  4 active torsions:
REMARK  status: ('A' for Active; 'I' for Inactive)
REMARK    1  A    between atoms: C_9  and  N_10 
REMARK       I    between atoms: N_10  and  C_11 
REMARK    2  A    between atoms: C_11  and  C_13 
REMARK       I    between atoms: C_13  and  N_15 
REMARK    3  A    between atoms: N_15  and  C_16 
REMARK    4  A    between atoms: C_16  and  C_18 
ROOT
ATOM      1  C   UNL d   1      26.655 -17.749  -0.555  0.00  0.00     0.050 C 
ATOM      2  C   UNL d   1      25.167 -17.727  -0.549  0.00  0.00    -0.035 C 
ATOM      3  C   UNL d   1      24.586 -18.930  -0.113  0.00  0.00     0.010 C 
ATOM      4  C   UNL d   1      23.230 -19.149  -0.241  0.00  0.00     0.023 C 
ATOM      5  C   UNL d   1      22.417 -18.104  -0.669  0.00  0.00     0.046 C 
ATOM      6  C   UNL d   1      21.013 -18.385  -0.838  0.00  0.00     0.099 C 
ATOM      7  N   UNL d   1      19.905 -18.681  -0.986  0.00  0.00    -0.191 NA
ATOM      8  C   UNL d   1      22.981 -16.831  -0.964  0.00  0.00     0.052 C 
ATOM      9  C   UNL d   1      24.387 -16.637  -0.990  0.00  0.00     0.042 C 
ENDROOT
BRANCH   9  10
ATOM     10  N   UNL d   1      24.933 -15.386  -1.488  0.00  0.00    -0.318 N 
ATOM     11  C   UNL d   1      25.408 -15.084  -2.778  0.00  0.00     0.314 C 
ATOM     12  O   UNL d   1      25.534 -15.784  -3.778  0.00  0.00    -0.262 OA
ATOM     13  H   UNL d   1      24.933 -14.597  -0.845  0.00  0.00     0.169 HD
BRANCH  11  14
ATOM     14  C   UNL d   1      25.879 -13.675  -3.111  0.00  0.00     0.310 C 
ATOM     15  O   UNL d   1      25.482 -12.713  -2.480  0.00  0.00    -0.262 OA
ATOM     16  N   UNL d   1      26.787 -13.700  -4.175  0.00  0.00    -0.345 N 
ATOM     17  H   UNL d   1      26.971 -14.636  -4.533  0.00  0.00     0.163 HD
BRANCH  16  18
ATOM     18  C   UNL d   1      27.499 -12.552  -4.696  0.00  0.00     0.114 C 
ATOM     19  C   UNL d   1      27.384 -12.566  -6.218  0.00  0.00     0.037 C 
BRANCH  18  20
ATOM     20  C   UNL d   1      27.066 -11.181  -4.146  0.00  0.00    -0.036 A 
ATOM     21  C   UNL d   1      27.653 -10.707  -2.949  0.00  0.00     0.011 A 
ATOM     22  C   UNL d   1      27.188  -9.553  -2.307  0.00  0.00     0.024 A 
ATOM     23  C   UNL d   1      26.206  -8.782  -2.912  0.00  0.00     0.034 A 
ATOM     24 CL   UNL d   1      25.573  -7.402  -2.104  0.00  0.00    -0.084 Cl
ATOM     25  C   UNL d   1      25.709  -9.146  -4.159  0.00  0.00     0.024 A 
ATOM     26  C   UNL d   1      26.088 -10.366  -4.739  0.00  0.00     0.011 A 
ENDBRANCH  18  20
ENDBRANCH  16  18
ENDBRANCH  11  14
ENDBRANCH   9  10
TORSDOF 4
ENDMDL
MODEL 6
REMARK VINA RESULT:   -30.337      2.337      2.929
REMARK INTER + INTRA:         -33.164
REMARK INTER:                 -31.530
REMARK INTRA:                  -1.634
REMARK CONF_INDEPENDENT:        1.193
REMARK UNBOUND:                -1.634
REMARK  4 active torsions:
REMARK  status: ('A' for Active; 'I' for Inactive)
REMARK    1  A    between atoms: C_9  and  N_10 
REMARK       I    between atoms: N_10  and  C_11 
REMARK    2  A    between atoms: C_11  and  C_13 
REMARK       I    between atoms: C_13  and  N_15 
REMARK    3  A    between atoms: N_15  and  C_16 
REMARK    4  A    between atoms: C_16  and  C_18 
ROOT
ATOM      1  C   UNL d   1      26.365 -17.201  -0.269  0.00  0.00     0.050 C 
ATOM      2  C   UNL d   1      24.899 -17.413  -0.404  0.00  0.00    -0.035 C 
ATOM      3  C   UNL d   1      24.419 -18.521   0.315  0.00  0.00     0.010 C 
ATOM      4  C   UNL d   1      23.131 -18.978   0.136  0.00  0.00     0.023 C 
ATOM      5  C   UNL d   1      22.257 -18.238  -0.655  0.00  0.00     0.046 C 
ATOM      6  C   UNL d   1      20.934 -18.773  -0.859  0.00  0.00     0.099 C 
ATOM      7  N   UNL d   1      19.901 -19.270  -1.012  0.00  0.00    -0.191 NA
ATOM      8  C   UNL d   1      22.693 -17.027  -1.263  0.00  0.00     0.052 C 
ATOM      9  C   UNL d   1      24.055 -16.628  -1.218  0.00  0.00     0.042 C 
ENDROOT
BRANCH   9  10
ATOM     10  N   UNL d   1      24.502 -15.499  -2.015  0.00  0.00    -0.318 N 
ATOM     11  C   UNL d   1      25.646 -15.391  -2.828  0.00  0.00     0.314 C 
ATOM     12  O   UNL d   1      26.568 -16.175  -3.034  0.00  0.00    -0.262 OA
ATOM     13  H   UNL d   1      23.891 -14.685  -2.040  0.00  0.00     0.169 HD
BRANCH  11  14
ATOM     14  C   UNL d   1      25.894 -14.128  -3.641  0.00  0.00     0.310 C 
ATOM     15  O   UNL d   1      24.993 -13.591  -4.258  0.00  0.00    -0.262 OA
ATOM     16  N   UNL d   1      27.231 -13.731  -3.535  0.00  0.00    -0.345 N 
ATOM     17  H   UNL d   1      27.793 -14.343  -2.945  0.00  0.00     0.163 HD
BRANCH  16  18
ATOM     18  C   UNL d   1      27.795 -12.527  -4.108  0.00  0.00     0.114 C 
ATOM     19  C   UNL d   1      29.197 -12.334  -3.537  0.00  0.00     0.037 C 
BRANCH  18  20
ATOM     20  C   UNL d   1      27.837 -12.464  -5.645  0.00  0.00    -0.036 A 
ATOM     21  C   UNL d   1      28.547 -13.462  -6.352  0.00  0.00     0.011 A 
ATOM     22  C   UNL d   1      28.765 -13.373  -7.733  0.00  0.00     0.024 A 
ATOM     23  C   UNL d   1      28.174 -12.346  -8.454  0.00  0.00     0.034 A 
ATOM     24 CL   UNL d   1      28.490 -12.181 -10.136  0.00  0.00    -0.084 Cl
ATOM     25  C   UNL d   1      27.353 -11.429  -7.808  0.00  0.00     0.024 A 
ATOM     26  C   UNL d   1      27.238 -11.450  -6.409  0.00  0.00     0.011 A 
ENDBRANCH  18  20
ENDBRANCH  16  18
ENDBRANCH  11  14
ENDBRANCH   9  10
TORSDOF 4
ENDMDL
MODEL 7
REMARK VINA RESULT:   -30.247      4.477      5.618
REMARK INTER + INTRA:         -33.145
REMARK INTER:                 -31.441
REMARK INTRA:                  -1.705
REMARK CONF_INDEPENDENT:        1.193
REMARK UNBOUND:                -1.705
REMARK  4 active torsions:
REMARK  status: ('A' for Active; 'I' for Inactive)
REMARK    1  A    between atoms: C_9  and  N_10 
REMARK       I    between atoms: N_10  and  C_11 
REMARK    2  A    between atoms: C_11  and  C_13 
REMARK       I    between atoms: C_13  and  N_15 
REMARK    3  A    between atoms: N_15  and  C_16 
REMARK    4  A    between atoms: C_16  and  C_18 
ROOT
ATOM      1  C   UNL d   1      26.482 -17.577   0.058  0.00  0.00     0.050 C 
ATOM      2  C   UNL d   1      25.034 -17.696  -0.261  0.00  0.00    -0.035 C 
ATOM      3  C   UNL d   1      24.262 -18.209   0.795  0.00  0.00     0.010 C 
ATOM      4  C   UNL d   1      22.947 -18.574   0.599  0.00  0.00     0.023 C 
ATOM      5  C   UNL d   1      22.343 -18.287  -0.621  0.00  0.00     0.046 C 
ATOM      6  C   UNL d   1      20.983 -18.729  -0.805  0.00  0.00     0.099 C 
ATOM      7  N   UNL d   1      19.905 -19.136  -0.905  0.00  0.00    -0.191 NA
ATOM      8  C   UNL d   1      23.075 -17.625  -1.645  0.00  0.00     0.052 C 
ATOM      9  C   UNL d   1      24.470 -17.386  -1.517  0.00  0.00     0.042 C 
ENDROOT
BRANCH   9  10
ATOM     10  N   UNL d   1      25.224 -16.892  -2.656  0.00  0.00    -0.318 N 
ATOM     11  C   UNL d   1      26.203 -15.881  -2.693  0.00  0.00     0.314 C 
ATOM     12  O   UNL d   1      26.630 -15.136  -1.816  0.00  0.00    -0.262 OA
ATOM     13  H   UNL d   1      25.073 -17.364  -3.545  0.00  0.00     0.169 HD
BRANCH  11  14
ATOM     14  C   UNL d   1      26.928 -15.563  -3.994  0.00  0.00     0.310 C 
ATOM     15  O   UNL d   1      26.342 -15.579  -5.060  0.00  0.00    -0.262 OA
ATOM     16  N   UNL d   1      28.270 -15.259  -3.745  0.00  0.00    -0.345 N 
ATOM     17  H   UNL d   1      28.523 -15.302  -2.759  0.00  0.00     0.163 HD
BRANCH  16  18
ATOM     18  C   UNL d   1      29.229 -14.827  -4.740  0.00  0.00     0.114 C 
ATOM     19  C   UNL d   1      30.304 -13.998  -4.043  0.00  0.00     0.037 C 
BRANCH  18  20
ATOM     20  C   UNL d   1      29.882 -15.940  -5.579  0.00  0.00    -0.036 A 
ATOM     21  C   UNL d   1      29.895 -17.261  -5.074  0.00  0.00     0.011 A 
ATOM     22  C   UNL d   1      30.614 -18.284  -5.704  0.00  0.00     0.024 A 
ATOM     23  C   UNL d   1      31.236 -18.035  -6.919  0.00  0.00     0.034 A 
ATOM     24 CL   UNL d   1      32.182 -19.259  -7.670  0.00  0.00    -0.084 Cl
ATOM     25  C   UNL d   1      31.122 -16.783  -7.512  0.00  0.00     0.024 A 
ATOM     26  C   UNL d   1      30.506 -15.729  -6.819  0.00  0.00     0.011 A 
ENDBRANCH  18  20
ENDBRANCH  16  18
ENDBRANCH  11  14
ENDBRANCH   9  10
TORSDOF 4
ENDMDL
MODEL 8
REMARK VINA RESULT:   -29.261      2.410      3.142
REMARK INTER + INTRA:         -32.227
REMARK INTER:                 -30.455
REMARK INTRA:                  -1.773
REMARK CONF_INDEPENDENT:        1.193
REMARK UNBOUND:                -1.773
REMARK  4 active torsions:
REMARK  status: ('A' for Active; 'I' for Inactive)
REMARK    1  A    between atoms: C_9  and  N_10 
REMARK       I    between atoms: N_10  and  C_11 
REMARK    2  A    between atoms: C_11  and  C_13 
REMARK       I    between atoms: C_13  and  N_15 
REMARK    3  A    between atoms: N_15  and  C_16 
REMARK    4  A    between atoms: C_16  and  C_18 
ROOT
ATOM      1  C   UNL d   1      26.500 -17.313  -0.626  0.00  0.00     0.050 C 
ATOM      2  C   UNL d   1      25.018 -17.449  -0.637  0.00  0.00    -0.035 C 
ATOM      3  C   UNL d   1      24.555 -18.631  -0.034  0.00  0.00     0.010 C 
ATOM      4  C   UNL d   1      23.232 -19.009  -0.142  0.00  0.00     0.023 C 
ATOM      5  C   UNL d   1      22.326 -18.130  -0.725  0.00  0.00     0.046 C 
ATOM      6  C   UNL d   1      20.963 -18.580  -0.864  0.00  0.00     0.099 C 
ATOM      7  N   UNL d   1      19.896 -19.011  -0.977  0.00  0.00    -0.191 NA
ATOM      8  C   UNL d   1      22.762 -16.861  -1.199  0.00  0.00     0.052 C 
ATOM      9  C   UNL d   1      24.140 -16.523  -1.240  0.00  0.00     0.042 C 
ENDROOT
BRANCH   9  10
ATOM     10  N   UNL d   1      24.566 -15.307  -1.911  0.00  0.00    -0.318 N 
ATOM     11  C   UNL d   1      25.529 -15.151  -2.925  0.00  0.00     0.314 C 
ATOM     12  O   UNL d   1      26.281 -15.962  -3.458  0.00  0.00    -0.262 OA
ATOM     13  H   UNL d   1      24.074 -14.451  -1.663  0.00  0.00     0.169 HD
BRANCH  11  14
ATOM     14  C   UNL d   1      25.775 -13.783  -3.546  0.00  0.00     0.310 C 
ATOM     15  O   UNL d   1      25.414 -12.764  -2.985  0.00  0.00    -0.262 OA
ATOM     16  N   UNL d   1      26.451 -13.911  -4.764  0.00  0.00    -0.345 N 
ATOM     17  H   UNL d   1      26.656 -14.876  -5.017  0.00  0.00     0.163 HD
BRANCH  16  18
ATOM     18  C   UNL d   1      26.921 -12.812  -5.581  0.00  0.00     0.114 C 
ATOM     19  C   UNL d   1      25.906 -11.677  -5.490  0.00  0.00     0.037 C 
BRANCH  18  20
ATOM     20  C   UNL d   1      28.332 -12.286  -5.260  0.00  0.00    -0.036 A 
ATOM     21  C   UNL d   1      29.124 -12.982  -4.317  0.00  0.00     0.011 A 
ATOM     22  C   UNL d   1      30.343 -12.468  -3.856  0.00  0.00     0.024 A 
ATOM     23  C   UNL d   1      30.852 -11.307  -4.419  0.00  0.00     0.034 A 
ATOM     24 CL   UNL d   1      32.311 -10.625  -3.816  0.00  0.00    -0.084 Cl
ATOM     25  C   UNL d   1      30.164 -10.677  -5.449  0.00  0.00     0.024 A 
ATOM     26  C   UNL d   1      28.887 -11.125  -5.821  0.00  0.00     0.011 A 
ENDBRANCH  18  20
ENDBRANCH  16  18
ENDBRANCH  11  14
ENDBRANCH   9  10
TORSDOF 4
ENDMDL
MODEL 9
REMARK VINA RESULT:   -28.811      3.268      4.200
REMARK INTER + INTRA:         -30.934
REMARK INTER:                 -30.005
REMARK INTRA:                  -0.930
REMARK CONF_INDEPENDENT:        1.193
REMARK UNBOUND:                -0.930
REMARK  4 active torsions:
REMARK  status: ('A' for Active; 'I' for Inactive)
REMARK    1  A    between atoms: C_9  and  N_10 
REMARK       I    between atoms: N_10  and  C_11 
REMARK    2  A    between atoms: C_11  and  C_13 
REMARK       I    between atoms: C_13  and  N_15 
REMARK    3  A    between atoms: N_15  and  C_16 
REMARK    4  A    between atoms: C_16  and  C_18 
ROOT
ATOM      1  C   UNL d   1      26.491 -17.561   0.395  0.00  0.00     0.050 C 
ATOM      2  C   UNL d   1      25.046 -17.538   0.039  0.00  0.00    -0.035 C 
ATOM      3  C   UNL d   1      24.247 -18.348   0.863  0.00  0.00     0.010 C 
ATOM      4  C   UNL d   1      22.929 -18.600   0.544  0.00  0.00     0.023 C 
ATOM      5  C   UNL d   1      22.352 -17.919  -0.523  0.00  0.00     0.046 C 
ATOM      6  C   UNL d   1      20.988 -18.246  -0.856  0.00  0.00     0.099 C 
ATOM      7  N   UNL d   1      19.905 -18.575  -1.095  0.00  0.00    -0.191 NA
ATOM      8  C   UNL d   1      23.115 -16.977  -1.269  0.00  0.00     0.052 C 
ATOM      9  C   UNL d   1      24.510 -16.825  -1.055  0.00  0.00     0.042 C 
ENDROOT
BRANCH   9  10
ATOM     10  N   UNL d   1      25.294 -16.005  -1.963  0.00  0.00    -0.318 N 
ATOM     11  C   UNL d   1      24.865 -14.952  -2.792  0.00  0.00     0.314 C 
ATOM     12  O   UNL d   1      23.746 -14.492  -3.003  0.00  0.00    -0.262 OA
ATOM     13  H   UNL d   1      26.299 -16.169  -1.977  0.00  0.00     0.169 HD
BRANCH  11  14
ATOM     14  C   UNL d   1      25.873 -14.171  -3.624  0.00  0.00     0.310 C 
ATOM     15  O   UNL d   1      25.782 -12.964  -3.752  0.00  0.00    -0.262 OA
ATOM     16  N   UNL d   1      26.846 -15.029  -4.147  0.00  0.00    -0.345 N 
ATOM     17  H   UNL d   1      26.714 -16.005  -3.886  0.00  0.00     0.163 HD
BRANCH  16  18
ATOM     18  C   UNL d   1      28.004 -14.615  -4.912  0.00  0.00     0.114 C 
ATOM     19  C   UNL d   1      27.560 -13.566  -5.926  0.00  0.00     0.037 C 
BRANCH  18  20
ATOM     20  C   UNL d   1      29.200 -14.090  -4.098  0.00  0.00    -0.036 A 
ATOM     21  C   UNL d   1      30.508 -14.478  -4.473  0.00  0.00     0.011 A 
ATOM     22  C   UNL d   1      31.622 -14.175  -3.682  0.00  0.00     0.024 A 
ATOM     23  C   UNL d   1      31.468 -13.374  -2.560  0.00  0.00     0.034 A 
ATOM     24 CL   UNL d   1      32.813 -13.052  -1.538  0.00  0.00    -0.084 Cl
ATOM     25  C   UNL d   1      30.216 -12.860  -2.243  0.00  0.00     0.024 A 
ATOM     26  C   UNL d   1      29.084 -13.266  -2.967  0.00  0.00     0.011 A 
ENDBRANCH  18  20
ENDBRANCH  16  18
ENDBRANCH  11  14
ENDBRANCH   9  10
TORSDOF 4
ENDMDL
