MODEL 1
REMARK VINA RESULT:    -8.356      0.000      0.000
REMARK INTER + INTRA:         -13.363
REMARK INTER:                 -11.637
REMARK INTRA:                  -1.726
REMARK CONF_INDEPENDENT:        3.281
REMARK UNBOUND:                -1.726
REMARK  11 active torsions:
REMARK  status: ('A' for Active; 'I' for Inactive)
REMARK    1  A    between atoms: C_2  and  C_3 
REMARK    2  A    between atoms: C_3  and  O_4 
REMARK    3  A    between atoms: O_4  and  C_5 
REMARK    4  A    between atoms: C_5  and  C_7 
REMARK    5  A    between atoms: C_7  and  C_8 
REMARK    6  A    between atoms: C_8  and  C_9 
REMARK       I    between atoms: C_9  and  N_11 
REMARK    7  A    between atoms: N_11  and  C_12 
REMARK    8  A    between atoms: C_12  and  N_14 
REMARK    9  A    between atoms: N_14  and  C_15 
REMARK   10  A    between atoms: C_19  and  N_20 
REMARK       I    between atoms: N_20  and  C_21 
REMARK   11  A    between atoms: C_21  and  C_23 
ROOT
ATOM      1  N   UNL d   1      25.749 -16.050  -2.878  0.00  0.00    -0.333 N 
ATOM      2  H   UNL d   1      24.767 -16.238  -3.033  0.00  0.00     0.168 HD
ENDROOT
BRANCH   1   3
ATOM      3  C   UNL d   1      26.362 -16.383  -1.637  0.00  0.00     0.178 C 
ATOM      4  S   UNL d   1      27.943 -15.899  -1.254  0.00  0.00    -0.040 SA
BRANCH   3   5
ATOM      5  N   UNL d   1      25.549 -17.126  -0.742  0.00  0.00    -0.304 N 
ATOM      6  C   UNL d   1      24.140 -17.144  -0.778  0.00  0.00     0.224 C 
ATOM      7  O   UNL d   1      23.464 -16.256  -1.297  0.00  0.00    -0.273 OA
ATOM      8  H   UNL d   1      26.010 -17.771  -0.116  0.00  0.00     0.171 HD
BRANCH   6   9
ATOM      9  C   UNL d   1      23.391 -18.269  -0.065  0.00  0.00     0.113 C 
BRANCH   9  10
ATOM     10  C   UNL d   1      22.555 -19.083  -1.104  0.00  0.00     0.120 C 
BRANCH  10  11
ATOM     11  C   UNL d   1      21.096 -18.660  -1.121  0.00  0.00     0.259 C 
ATOM     12  O   UNL d   1      20.725 -17.530  -0.904  0.00  0.00    -0.265 OA
BRANCH  11  13
ATOM     13  O   UNL d   1      20.262 -19.717  -1.413  0.00  0.00    -0.321 OA
BRANCH  13  14
ATOM     14  C   UNL d   1      19.239 -19.930  -0.417  0.00  0.00     0.178 C 
BRANCH  14  15
ATOM     15  C   UNL d   1      19.850 -20.313   0.933  0.00  0.00     0.022 C 
ATOM     16  C   UNL d   1      18.783 -20.453   2.016  0.00  0.00     0.007 C 
ENDBRANCH  14  15
ENDBRANCH  13  14
ENDBRANCH  11  13
ENDBRANCH  10  11
ENDBRANCH   9  10
ENDBRANCH   6   9
ENDBRANCH   3   5
ENDBRANCH   1   3
BRANCH   1  17
ATOM     17  C   UNL d   1      26.390 -15.167  -3.835  0.00  0.00     0.042 C 
ATOM     18  C   UNL d   1      27.437 -15.571  -4.660  0.00  0.00     0.030 C 
ATOM     19  C   UNL d   1      27.928 -14.675  -5.633  0.00  0.00     0.005 C 
ATOM     20  C   UNL d   1      27.401 -13.366  -5.777  0.00  0.00     0.030 C 
ATOM     21  C   UNL d   1      26.387 -12.899  -4.921  0.00  0.00     0.043 C 
ATOM     22  C   UNL d   1      25.961 -13.815  -3.913  0.00  0.00    -0.009 C 
ATOM     23  C   UNL d   1      25.155 -13.334  -2.756  0.00  0.00     0.053 C 
BRANCH  21  24
ATOM     24  N   UNL d   1      25.898 -11.517  -5.063  0.00  0.00    -0.327 N 
ATOM     25  C   UNL d   1      26.507 -10.338  -4.609  0.00  0.00     0.221 C 
ATOM     26  O   UNL d   1      27.486 -10.268  -3.867  0.00  0.00    -0.273 OA
ATOM     27  H   UNL d   1      24.960 -11.426  -5.434  0.00  0.00     0.169 HD
BRANCH  25  28
ATOM     28  C   UNL d   1      25.930  -8.982  -4.966  0.00  0.00     0.098 C 
ATOM     29  C   UNL d   1      24.936  -9.213  -6.144  0.00  0.00     0.014 C 
ENDBRANCH  25  28
ENDBRANCH  21  24
ENDBRANCH   1  17
TORSDOF 11
ENDMDL
MODEL 2
REMARK VINA RESULT:    -8.273      2.664      7.978
REMARK INTER + INTRA:         -12.987
REMARK INTER:                 -11.554
REMARK INTRA:                  -1.433
REMARK CONF_INDEPENDENT:        3.281
REMARK UNBOUND:                -1.433
REMARK  11 active torsions:
REMARK  status: ('A' for Active; 'I' for Inactive)
REMARK    1  A    between atoms: C_2  and  C_3 
REMARK    2  A    between atoms: C_3  and  O_4 
REMARK    3  A    between atoms: O_4  and  C_5 
REMARK    4  A    between atoms: C_5  and  C_7 
REMARK    5  A    between atoms: C_7  and  C_8 
REMARK    6  A    between atoms: C_8  and  C_9 
REMARK       I    between atoms: C_9  and  N_11 
REMARK    7  A    between atoms: N_11  and  C_12 
REMARK    8  A    between atoms: C_12  and  N_14 
REMARK    9  A    between atoms: N_14  and  C_15 
REMARK   10  A    between atoms: C_19  and  N_20 
REMARK       I    between atoms: N_20  and  C_21 
REMARK   11  A    between atoms: C_21  and  C_23 
ROOT
ATOM      1  N   UNL d   1      28.304 -17.095  -0.033  0.00  0.00    -0.333 N 
ATOM      2  H   UNL d   1      28.491 -17.030   0.959  0.00  0.00     0.168 HD
ENDROOT
BRANCH   1   3
ATOM      3  C   UNL d   1      29.376 -17.131  -0.971  0.00  0.00     0.178 C 
ATOM      4  S   UNL d   1      30.445 -18.446  -1.068  0.00  0.00    -0.040 SA
BRANCH   3   5
ATOM      5  N   UNL d   1      29.468 -16.002  -1.826  0.00  0.00    -0.304 N 
ATOM      6  C   UNL d   1      29.251 -16.041  -3.218  0.00  0.00     0.224 C 
ATOM      7  O   UNL d   1      29.349 -17.067  -3.890  0.00  0.00    -0.273 OA
ATOM      8  H   UNL d   1      29.580 -15.096  -1.394  0.00  0.00     0.171 HD
BRANCH   6   9
ATOM      9  C   UNL d   1      28.967 -14.738  -3.964  0.00  0.00     0.113 C 
BRANCH   9  10
ATOM     10  C   UNL d   1      27.474 -14.330  -3.758  0.00  0.00     0.120 C 
BRANCH  10  11
ATOM     11  C   UNL d   1      26.575 -14.877  -4.855  0.00  0.00     0.259 C 
ATOM     12  O   UNL d   1      26.972 -15.575  -5.759  0.00  0.00    -0.265 OA
BRANCH  11  13
ATOM     13  O   UNL d   1      25.267 -14.480  -4.686  0.00  0.00    -0.321 OA
BRANCH  13  14
ATOM     14  C   UNL d   1      25.134 -13.245  -3.951  0.00  0.00     0.178 C 
BRANCH  14  15
ATOM     15  C   UNL d   1      25.530 -12.042  -4.812  0.00  0.00     0.022 C 
ATOM     16  C   UNL d   1      26.094 -10.904  -3.965  0.00  0.00     0.007 C 
ENDBRANCH  14  15
ENDBRANCH  13  14
ENDBRANCH  11  13
ENDBRANCH  10  11
ENDBRANCH   9  10
ENDBRANCH   6   9
ENDBRANCH   3   5
ENDBRANCH   1   3
BRANCH   1  17
ATOM     17  C   UNL d   1      26.937 -16.837  -0.445  0.00  0.00     0.042 C 
ATOM     18  C   UNL d   1      26.573 -15.753  -1.240  0.00  0.00     0.030 C 
ATOM     19  C   UNL d   1      25.236 -15.642  -1.678  0.00  0.00     0.005 C 
ATOM     20  C   UNL d   1      24.248 -16.592  -1.310  0.00  0.00     0.030 C 
ATOM     21  C   UNL d   1      24.562 -17.665  -0.456  0.00  0.00     0.043 C 
ATOM     22  C   UNL d   1      25.909 -17.706   0.012  0.00  0.00    -0.009 C 
ATOM     23  C   UNL d   1      26.276 -18.575   1.165  0.00  0.00     0.053 C 
BRANCH  21  24
ATOM     24  N   UNL d   1      23.501 -18.603  -0.051  0.00  0.00    -0.327 N 
ATOM     25  C   UNL d   1      22.135 -18.542  -0.360  0.00  0.00     0.221 C 
ATOM     26  O   UNL d   1      21.555 -17.597  -0.895  0.00  0.00    -0.273 OA
ATOM     27  H   UNL d   1      23.781 -19.309   0.620  0.00  0.00     0.169 HD
BRANCH  25  28
ATOM     28  C   UNL d   1      21.203 -19.674   0.026  0.00  0.00     0.098 C 
ATOM     29  C   UNL d   1      19.777 -19.265  -0.452  0.00  0.00     0.014 C 
ENDBRANCH  25  28
ENDBRANCH  21  24
ENDBRANCH   1  17
TORSDOF 11
ENDMDL
MODEL 3
REMARK VINA RESULT:    -7.871      3.428      8.543
REMARK INTER + INTRA:         -13.104
REMARK INTER:                 -11.152
REMARK INTRA:                  -1.952
REMARK CONF_INDEPENDENT:        3.281
REMARK UNBOUND:                -1.952
REMARK  11 active torsions:
REMARK  status: ('A' for Active; 'I' for Inactive)
REMARK    1  A    between atoms: C_2  and  C_3 
REMARK    2  A    between atoms: C_3  and  O_4 
REMARK    3  A    between atoms: O_4  and  C_5 
REMARK    4  A    between atoms: C_5  and  C_7 
REMARK    5  A    between atoms: C_7  and  C_8 
REMARK    6  A    between atoms: C_8  and  C_9 
REMARK       I    between atoms: C_9  and  N_11 
REMARK    7  A    between atoms: N_11  and  C_12 
REMARK    8  A    between atoms: C_12  and  N_14 
REMARK    9  A    between atoms: N_14  and  C_15 
REMARK   10  A    between atoms: C_19  and  N_20 
REMARK       I    between atoms: N_20  and  C_21 
REMARK   11  A    between atoms: C_21  and  C_23 
ROOT
ATOM      1  N   UNL d   1      25.965 -14.749  -1.615  0.00  0.00    -0.333 N 
ATOM      2  H   UNL d   1      25.659 -13.993  -1.018  0.00  0.00     0.168 HD
ENDROOT
BRANCH   1   3
ATOM      3  C   UNL d   1      26.113 -14.550  -3.018  0.00  0.00     0.178 C 
ATOM      4  S   UNL d   1      24.857 -13.933  -3.978  0.00  0.00    -0.040 SA
BRANCH   3   5
ATOM      5  N   UNL d   1      27.388 -14.883  -3.543  0.00  0.00    -0.304 N 
ATOM      6  C   UNL d   1      27.677 -14.992  -4.918  0.00  0.00     0.224 C 
ATOM      7  O   UNL d   1      26.819 -15.200  -5.776  0.00  0.00    -0.273 OA
ATOM      8  H   UNL d   1      28.163 -14.930  -2.896  0.00  0.00     0.171 HD
BRANCH   6   9
ATOM      9  C   UNL d   1      29.133 -14.942  -5.381  0.00  0.00     0.113 C 
BRANCH   9  10
ATOM     10  C   UNL d   1      29.695 -16.394  -5.502  0.00  0.00     0.120 C 
BRANCH  10  11
ATOM     11  C   UNL d   1      29.880 -17.051  -4.145  0.00  0.00     0.259 C 
ATOM     12  O   UNL d   1      29.644 -16.498  -3.097  0.00  0.00    -0.265 OA
BRANCH  11  13
ATOM     13  O   UNL d   1      30.345 -18.342  -4.264  0.00  0.00    -0.321 OA
BRANCH  13  14
ATOM     14  C   UNL d   1      30.430 -18.796  -5.632  0.00  0.00     0.178 C 
BRANCH  14  15
ATOM     15  C   UNL d   1      30.837 -20.270  -5.703  0.00  0.00     0.022 C 
ATOM     16  C   UNL d   1      30.782 -20.936  -4.331  0.00  0.00     0.007 C 
ENDBRANCH  14  15
ENDBRANCH  13  14
ENDBRANCH  11  13
ENDBRANCH  10  11
ENDBRANCH   9  10
ENDBRANCH   6   9
ENDBRANCH   3   5
ENDBRANCH   1   3
BRANCH   1  17
ATOM     17  C   UNL d   1      25.937 -16.078  -1.031  0.00  0.00     0.042 C 
ATOM     18  C   UNL d   1      27.085 -16.827  -0.787  0.00  0.00     0.030 C 
ATOM     19  C   UNL d   1      26.968 -18.064  -0.120  0.00  0.00     0.005 C 
ATOM     20  C   UNL d   1      25.709 -18.577   0.287  0.00  0.00     0.030 C 
ATOM     21  C   UNL d   1      24.520 -17.881   0.002  0.00  0.00     0.043 C 
ATOM     22  C   UNL d   1      24.679 -16.664  -0.727  0.00  0.00    -0.009 C 
ATOM     23  C   UNL d   1      23.502 -16.020  -1.374  0.00  0.00     0.053 C 
BRANCH  21  24
ATOM     24  N   UNL d   1      23.226 -18.466   0.392  0.00  0.00    -0.327 N 
ATOM     25  C   UNL d   1      22.243 -19.014  -0.445  0.00  0.00     0.221 C 
ATOM     26  O   UNL d   1      22.224 -18.955  -1.674  0.00  0.00    -0.273 OA
ATOM     27  H   UNL d   1      22.977 -18.355   1.368  0.00  0.00     0.169 HD
BRANCH  25  28
ATOM     28  C   UNL d   1      21.025 -19.703   0.141  0.00  0.00     0.098 C 
ATOM     29  C   UNL d   1      19.827 -19.368  -0.796  0.00  0.00     0.014 C 
ENDBRANCH  25  28
ENDBRANCH  21  24
ENDBRANCH   1  17
TORSDOF 11
ENDMDL
MODEL 4
REMARK VINA RESULT:    -7.828      2.022      3.106
REMARK INTER + INTRA:         -12.826
REMARK INTER:                 -11.109
REMARK INTRA:                  -1.716
REMARK CONF_INDEPENDENT:        3.281
REMARK UNBOUND:                -1.716
REMARK  11 active torsions:
REMARK  status: ('A' for Active; 'I' for Inactive)
REMARK    1  A    between atoms: C_2  and  C_3 
REMARK    2  A    between atoms: C_3  and  O_4 
REMARK    3  A    between atoms: O_4  and  C_5 
REMARK    4  A    between atoms: C_5  and  C_7 
REMARK    5  A    between atoms: C_7  and  C_8 
REMARK    6  A    between atoms: C_8  and  C_9 
REMARK       I    between atoms: C_9  and  N_11 
REMARK    7  A    between atoms: N_11  and  C_12 
REMARK    8  A    between atoms: C_12  and  N_14 
REMARK    9  A    between atoms: N_14  and  C_15 
REMARK   10  A    between atoms: C_19  and  N_20 
REMARK       I    between atoms: N_20  and  C_21 
REMARK   11  A    between atoms: C_21  and  C_23 
ROOT
ATOM      1  N   UNL d   1      25.899 -15.961  -2.219  0.00  0.00    -0.333 N 
ATOM      2  H   UNL d   1      25.756 -16.898  -2.572  0.00  0.00     0.168 HD
ENDROOT
BRANCH   1   3
ATOM      3  C   UNL d   1      25.704 -15.671  -0.838  0.00  0.00     0.178 C 
ATOM      4  S   UNL d   1      26.768 -14.678   0.034  0.00  0.00    -0.040 SA
BRANCH   3   5
ATOM      5  N   UNL d   1      24.548 -16.254  -0.257  0.00  0.00    -0.304 N 
ATOM      6  C   UNL d   1      23.952 -17.451  -0.702  0.00  0.00     0.224 C 
ATOM      7  O   UNL d   1      24.107 -17.903  -1.837  0.00  0.00    -0.273 OA
ATOM      8  H   UNL d   1      24.200 -15.848   0.601  0.00  0.00     0.171 HD
BRANCH   6   9
ATOM      9  C   UNL d   1      22.991 -18.195   0.224  0.00  0.00     0.113 C 
BRANCH   9  10
ATOM     10  C   UNL d   1      22.261 -19.322  -0.573  0.00  0.00     0.120 C 
BRANCH  10  11
ATOM     11  C   UNL d   1      20.819 -18.960  -0.885  0.00  0.00     0.259 C 
ATOM     12  O   UNL d   1      20.402 -17.825  -0.898  0.00  0.00    -0.265 OA
BRANCH  11  13
ATOM     13  O   UNL d   1      20.059 -20.078  -1.149  0.00  0.00    -0.321 OA
BRANCH  13  14
ATOM     14  C   UNL d   1      18.782 -20.073  -0.475  0.00  0.00     0.178 C 
BRANCH  14  15
ATOM     15  C   UNL d   1      18.822 -20.927   0.795  0.00  0.00     0.022 C 
ATOM     16  C   UNL d   1      19.431 -20.163   1.968  0.00  0.00     0.007 C 
ENDBRANCH  14  15
ENDBRANCH  13  14
ENDBRANCH  11  13
ENDBRANCH  10  11
ENDBRANCH   9  10
ENDBRANCH   6   9
ENDBRANCH   3   5
ENDBRANCH   1   3
BRANCH   1  17
ATOM     17  C   UNL d   1      25.998 -14.909  -3.214  0.00  0.00     0.042 C 
ATOM     18  C   UNL d   1      24.935 -14.075  -3.548  0.00  0.00     0.030 C 
ATOM     19  C   UNL d   1      25.154 -13.012  -4.450  0.00  0.00     0.005 C 
ATOM     20  C   UNL d   1      26.423 -12.787  -5.044  0.00  0.00     0.030 C 
ATOM     21  C   UNL d   1      27.505 -13.646  -4.782  0.00  0.00     0.043 C 
ATOM     22  C   UNL d   1      27.224 -14.742  -3.912  0.00  0.00    -0.009 C 
ATOM     23  C   UNL d   1      28.169 -15.891  -3.826  0.00  0.00     0.053 C 
BRANCH  21  24
ATOM     24  N   UNL d   1      28.794 -13.416  -5.456  0.00  0.00    -0.327 N 
ATOM     25  C   UNL d   1      29.229 -13.939  -6.682  0.00  0.00     0.221 C 
ATOM     26  O   UNL d   1      28.666 -14.817  -7.336  0.00  0.00    -0.273 OA
ATOM     27  H   UNL d   1      29.482 -12.909  -4.912  0.00  0.00     0.169 HD
BRANCH  25  28
ATOM     28  C   UNL d   1      30.538 -13.482  -7.297  0.00  0.00     0.098 C 
ATOM     29  C   UNL d   1      31.656 -14.382  -6.692  0.00  0.00     0.014 C 
ENDBRANCH  25  28
ENDBRANCH  21  24
ENDBRANCH   1  17
TORSDOF 11
ENDMDL
MODEL 5
REMARK VINA RESULT:    -7.643      4.596      8.502
REMARK INTER + INTRA:         -12.954
REMARK INTER:                 -10.924
REMARK INTRA:                  -2.029
REMARK CONF_INDEPENDENT:        3.281
REMARK UNBOUND:                -2.029
REMARK  11 active torsions:
REMARK  status: ('A' for Active; 'I' for Inactive)
REMARK    1  A    between atoms: C_2  and  C_3 
REMARK    2  A    between atoms: C_3  and  O_4 
REMARK    3  A    between atoms: O_4  and  C_5 
REMARK    4  A    between atoms: C_5  and  C_7 
REMARK    5  A    between atoms: C_7  and  C_8 
REMARK    6  A    between atoms: C_8  and  C_9 
REMARK       I    between atoms: C_9  and  N_11 
REMARK    7  A    between atoms: N_11  and  C_12 
REMARK    8  A    between atoms: C_12  and  N_14 
REMARK    9  A    between atoms: N_14  and  C_15 
REMARK   10  A    between atoms: C_19  and  N_20 
REMARK       I    between atoms: N_20  and  C_21 
REMARK   11  A    between atoms: C_21  and  C_23 
ROOT
ATOM      1  N   UNL d   1      28.171 -17.220  -0.118  0.00  0.00    -0.333 N 
ATOM      2  H   UNL d   1      28.403 -18.166   0.155  0.00  0.00     0.168 HD
ENDROOT
BRANCH   1   3
ATOM      3  C   UNL d   1      29.026 -16.136   0.230  0.00  0.00     0.178 C 
ATOM      4  S   UNL d   1      30.552 -15.927  -0.483  0.00  0.00    -0.040 SA
BRANCH   3   5
ATOM      5  N   UNL d   1      28.500 -15.238   1.194  0.00  0.00    -0.304 N 
ATOM      6  C   UNL d   1      27.827 -14.040   0.881  0.00  0.00     0.224 C 
ATOM      7  O   UNL d   1      27.958 -13.451  -0.192  0.00  0.00    -0.273 OA
ATOM      8  H   UNL d   1      28.505 -15.533   2.161  0.00  0.00     0.171 HD
BRANCH   6   9
ATOM      9  C   UNL d   1      26.955 -13.374   1.944  0.00  0.00     0.113 C 
BRANCH   9  10
ATOM     10  C   UNL d   1      27.811 -13.083   3.218  0.00  0.00     0.120 C 
BRANCH  10  11
ATOM     11  C   UNL d   1      27.582 -14.115   4.309  0.00  0.00     0.259 C 
ATOM     12  O   UNL d   1      26.654 -14.076   5.082  0.00  0.00    -0.265 OA
BRANCH  11  13
ATOM     13  O   UNL d   1      28.557 -15.088   4.301  0.00  0.00    -0.321 OA
BRANCH  13  14
ATOM     14  C   UNL d   1      29.851 -14.604   4.720  0.00  0.00     0.178 C 
BRANCH  14  15
ATOM     15  C   UNL d   1      29.919 -14.449   6.242  0.00  0.00     0.022 C 
ATOM     16  C   UNL d   1      29.621 -13.017   6.675  0.00  0.00     0.007 C 
ENDBRANCH  14  15
ENDBRANCH  13  14
ENDBRANCH  11  13
ENDBRANCH  10  11
ENDBRANCH   9  10
ENDBRANCH   6   9
ENDBRANCH   3   5
ENDBRANCH   1   3
BRANCH   1  17
ATOM     17  C   UNL d   1      26.814 -17.004  -0.585  0.00  0.00     0.042 C 
ATOM     18  C   UNL d   1      26.473 -16.009  -1.498  0.00  0.00     0.030 C 
ATOM     19  C   UNL d   1      25.147 -15.941  -1.975  0.00  0.00     0.005 C 
ATOM     20  C   UNL d   1      24.146 -16.844  -1.530  0.00  0.00     0.030 C 
ATOM     21  C   UNL d   1      24.436 -17.821  -0.561  0.00  0.00     0.043 C 
ATOM     22  C   UNL d   1      25.772 -17.816  -0.061  0.00  0.00    -0.009 C 
ATOM     23  C   UNL d   1      26.109 -18.559   1.186  0.00  0.00     0.053 C 
BRANCH  21  24
ATOM     24  N   UNL d   1      23.361 -18.707  -0.082  0.00  0.00    -0.327 N 
ATOM     25  C   UNL d   1      21.987 -18.613  -0.344  0.00  0.00     0.221 C 
ATOM     26  O   UNL d   1      21.418 -17.670  -0.894  0.00  0.00    -0.273 OA
ATOM     27  H   UNL d   1      23.643 -19.397   0.605  0.00  0.00     0.169 HD
BRANCH  25  28
ATOM     28  C   UNL d   1      21.034 -19.699   0.119  0.00  0.00     0.098 C 
ATOM     29  C   UNL d   1      19.659 -19.405  -0.552  0.00  0.00     0.014 C 
ENDBRANCH  25  28
ENDBRANCH  21  24
ENDBRANCH   1  17
TORSDOF 11
ENDMDL
MODEL 6
REMARK VINA RESULT:    -7.500      2.262      8.618
REMARK INTER + INTRA:         -13.266
REMARK INTER:                 -10.781
REMARK INTRA:                  -2.485
REMARK CONF_INDEPENDENT:        3.281
REMARK UNBOUND:                -2.485
REMARK  11 active torsions:
REMARK  status: ('A' for Active; 'I' for Inactive)
REMARK    1  A    between atoms: C_2  and  C_3 
REMARK    2  A    between atoms: C_3  and  O_4 
REMARK    3  A    between atoms: O_4  and  C_5 
REMARK    4  A    between atoms: C_5  and  C_7 
REMARK    5  A    between atoms: C_7  and  C_8 
REMARK    6  A    between atoms: C_8  and  C_9 
REMARK       I    between atoms: C_9  and  N_11 
REMARK    7  A    between atoms: N_11  and  C_12 
REMARK    8  A    between atoms: C_12  and  N_14 
REMARK    9  A    between atoms: N_14  and  C_15 
REMARK   10  A    between atoms: C_19  and  N_20 
REMARK       I    between atoms: N_20  and  C_21 
REMARK   11  A    between atoms: C_21  and  C_23 
ROOT
ATOM      1  N   UNL d   1      25.003 -15.091  -1.511  0.00  0.00    -0.333 N 
ATOM      2  H   UNL d   1      24.293 -14.737  -2.138  0.00  0.00     0.168 HD
ENDROOT
BRANCH   1   3
ATOM      3  C   UNL d   1      26.263 -14.436  -1.401  0.00  0.00     0.178 C 
ATOM      4  S   UNL d   1      27.229 -14.567  -0.012  0.00  0.00    -0.040 SA
BRANCH   3   5
ATOM      5  N   UNL d   1      26.656 -13.690  -2.542  0.00  0.00    -0.304 N 
ATOM      6  C   UNL d   1      25.808 -13.394  -3.628  0.00  0.00     0.224 C 
ATOM      7  O   UNL d   1      24.801 -14.048  -3.899  0.00  0.00    -0.273 OA
ATOM      8  H   UNL d   1      27.564 -13.247  -2.522  0.00  0.00     0.171 HD
BRANCH   6   9
ATOM      9  C   UNL d   1      26.188 -12.263  -4.583  0.00  0.00     0.113 C 
BRANCH   9  10
ATOM     10  C   UNL d   1      27.025 -12.837  -5.770  0.00  0.00     0.120 C 
BRANCH  10  11
ATOM     11  C   UNL d   1      27.610 -14.202  -5.450  0.00  0.00     0.259 C 
ATOM     12  O   UNL d   1      27.359 -15.202  -6.082  0.00  0.00    -0.265 OA
BRANCH  11  13
ATOM     13  O   UNL d   1      28.451 -14.152  -4.361  0.00  0.00    -0.321 OA
BRANCH  13  14
ATOM     14  C   UNL d   1      28.637 -15.434  -3.722  0.00  0.00     0.178 C 
BRANCH  14  15
ATOM     15  C   UNL d   1      30.108 -15.855  -3.740  0.00  0.00     0.022 C 
ATOM     16  C   UNL d   1      30.371 -16.940  -4.780  0.00  0.00     0.007 C 
ENDBRANCH  14  15
ENDBRANCH  13  14
ENDBRANCH  11  13
ENDBRANCH  10  11
ENDBRANCH   9  10
ENDBRANCH   6   9
ENDBRANCH   3   5
ENDBRANCH   1   3
BRANCH   1  17
ATOM     17  C   UNL d   1      24.789 -16.429  -0.991  0.00  0.00     0.042 C 
ATOM     18  C   UNL d   1      25.818 -17.350  -0.814  0.00  0.00     0.030 C 
ATOM     19  C   UNL d   1      25.532 -18.590  -0.204  0.00  0.00     0.005 C 
ATOM     20  C   UNL d   1      24.219 -18.933   0.209  0.00  0.00     0.030 C 
ATOM     21  C   UNL d   1      23.141 -18.057  -0.012  0.00  0.00     0.043 C 
ATOM     22  C   UNL d   1      23.464 -16.840  -0.684  0.00  0.00    -0.009 C 
ATOM     23  C   UNL d   1      22.383 -15.998  -1.270  0.00  0.00     0.053 C 
BRANCH  21  24
ATOM     24  N   UNL d   1      21.782 -18.466   0.381  0.00  0.00    -0.327 N 
ATOM     25  C   UNL d   1      20.822 -19.125  -0.400  0.00  0.00     0.221 C 
ATOM     26  O   UNL d   1      20.894 -19.335  -1.611  0.00  0.00    -0.273 OA
ATOM     27  H   UNL d   1      21.474 -18.130   1.286  0.00  0.00     0.169 HD
BRANCH  25  28
ATOM     28  C   UNL d   1      19.517 -19.597   0.212  0.00  0.00     0.098 C 
ATOM     29  C   UNL d   1      19.755 -19.703   1.749  0.00  0.00     0.014 C 
ENDBRANCH  25  28
ENDBRANCH  21  24
ENDBRANCH   1  17
TORSDOF 11
ENDMDL
MODEL 7
REMARK VINA RESULT:    -7.303      3.039      8.296
REMARK INTER + INTRA:         -12.923
REMARK INTER:                 -10.584
REMARK INTRA:                  -2.339
REMARK CONF_INDEPENDENT:        3.281
REMARK UNBOUND:                -2.339
REMARK  11 active torsions:
REMARK  status: ('A' for Active; 'I' for Inactive)
REMARK    1  A    between atoms: C_2  and  C_3 
REMARK    2  A    between atoms: C_3  and  O_4 
REMARK    3  A    between atoms: O_4  and  C_5 
REMARK    4  A    between atoms: C_5  and  C_7 
REMARK    5  A    between atoms: C_7  and  C_8 
REMARK    6  A    between atoms: C_8  and  C_9 
REMARK       I    between atoms: C_9  and  N_11 
REMARK    7  A    between atoms: N_11  and  C_12 
REMARK    8  A    between atoms: C_12  and  N_14 
REMARK    9  A    between atoms: N_14  and  C_15 
REMARK   10  A    between atoms: C_19  and  N_20 
REMARK       I    between atoms: N_20  and  C_21 
REMARK   11  A    between atoms: C_21  and  C_23 
ROOT
ATOM      1  N   UNL d   1      25.959 -14.789  -1.588  0.00  0.00    -0.333 N 
ATOM      2  H   UNL d   1      25.854 -14.003  -0.960  0.00  0.00     0.168 HD
ENDROOT
BRANCH   1   3
ATOM      3  C   UNL d   1      26.066 -14.583  -2.993  0.00  0.00     0.178 C 
ATOM      4  S   UNL d   1      24.779 -13.975  -3.916  0.00  0.00    -0.040 SA
BRANCH   3   5
ATOM      5  N   UNL d   1      27.330 -14.903  -3.555  0.00  0.00    -0.304 N 
ATOM      6  C   UNL d   1      27.543 -15.189  -4.918  0.00  0.00     0.224 C 
ATOM      7  O   UNL d   1      26.654 -15.575  -5.677  0.00  0.00    -0.273 OA
ATOM      8  H   UNL d   1      28.143 -14.805  -2.963  0.00  0.00     0.171 HD
BRANCH   6   9
ATOM      9  C   UNL d   1      28.961 -15.109  -5.483  0.00  0.00     0.113 C 
BRANCH   9  10
ATOM     10  C   UNL d   1      29.994 -15.422  -4.354  0.00  0.00     0.120 C 
BRANCH  10  11
ATOM     11  C   UNL d   1      29.704 -16.744  -3.664  0.00  0.00     0.259 C 
ATOM     12  O   UNL d   1      29.908 -17.822  -4.172  0.00  0.00    -0.265 OA
BRANCH  11  13
ATOM     13  O   UNL d   1      29.188 -16.556  -2.401  0.00  0.00    -0.321 OA
BRANCH  13  14
ATOM     14  C   UNL d   1      29.754 -17.445  -1.414  0.00  0.00     0.178 C 
BRANCH  14  15
ATOM     15  C   UNL d   1      30.424 -16.661  -0.283  0.00  0.00     0.022 C 
ATOM     16  C   UNL d   1      29.678 -15.366   0.025  0.00  0.00     0.007 C 
ENDBRANCH  14  15
ENDBRANCH  13  14
ENDBRANCH  11  13
ENDBRANCH  10  11
ENDBRANCH   9  10
ENDBRANCH   6   9
ENDBRANCH   3   5
ENDBRANCH   1   3
BRANCH   1  17
ATOM     17  C   UNL d   1      25.684 -16.099  -1.026  0.00  0.00     0.042 C 
ATOM     18  C   UNL d   1      26.684 -16.996  -0.661  0.00  0.00     0.030 C 
ATOM     19  C   UNL d   1      26.324 -18.203  -0.025  0.00  0.00     0.005 C 
ATOM     20  C   UNL d   1      24.969 -18.538   0.230  0.00  0.00     0.030 C 
ATOM     21  C   UNL d   1      23.926 -17.687  -0.182  0.00  0.00     0.043 C 
ATOM     22  C   UNL d   1      24.331 -16.507  -0.874  0.00  0.00    -0.009 C 
ATOM     23  C   UNL d   1      23.334 -15.711  -1.645  0.00  0.00     0.053 C 
BRANCH  21  24
ATOM     24  N   UNL d   1      22.529 -18.089   0.050  0.00  0.00    -0.327 N 
ATOM     25  C   UNL d   1      21.721 -18.901  -0.760  0.00  0.00     0.221 C 
ATOM     26  O   UNL d   1      21.993 -19.290  -1.895  0.00  0.00    -0.273 OA
ATOM     27  H   UNL d   1      22.071 -17.633   0.830  0.00  0.00     0.169 HD
BRANCH  25  28
ATOM     28  C   UNL d   1      20.342 -19.329  -0.295  0.00  0.00     0.098 C 
ATOM     29  C   UNL d   1      20.372 -19.327   1.263  0.00  0.00     0.014 C 
ENDBRANCH  25  28
ENDBRANCH  21  24
ENDBRANCH   1  17
TORSDOF 11
ENDMDL
MODEL 8
REMARK VINA RESULT:    -7.220      2.310      8.171
REMARK INTER + INTRA:         -12.837
REMARK INTER:                 -10.501
REMARK INTRA:                  -2.336
REMARK CONF_INDEPENDENT:        3.281
REMARK UNBOUND:                -2.336
REMARK  11 active torsions:
REMARK  status: ('A' for Active; 'I' for Inactive)
REMARK    1  A    between atoms: C_2  and  C_3 
REMARK    2  A    between atoms: C_3  and  O_4 
REMARK    3  A    between atoms: O_4  and  C_5 
REMARK    4  A    between atoms: C_5  and  C_7 
REMARK    5  A    between atoms: C_7  and  C_8 
REMARK    6  A    between atoms: C_8  and  C_9 
REMARK       I    between atoms: C_9  and  N_11 
REMARK    7  A    between atoms: N_11  and  C_12 
REMARK    8  A    between atoms: C_12  and  N_14 
REMARK    9  A    between atoms: N_14  and  C_15 
REMARK   10  A    between atoms: C_19  and  N_20 
REMARK       I    between atoms: N_20  and  C_21 
REMARK   11  A    between atoms: C_21  and  C_23 
ROOT
ATOM      1  N   UNL d   1      27.006 -15.138  -1.728  0.00  0.00    -0.333 N 
ATOM      2  H   UNL d   1      26.442 -14.298  -1.733  0.00  0.00     0.168 HD
ENDROOT
BRANCH   1   3
ATOM      3  C   UNL d   1      28.072 -15.299  -2.659  0.00  0.00     0.178 C 
ATOM      4  S   UNL d   1      29.160 -16.598  -2.567  0.00  0.00    -0.040 SA
BRANCH   3   5
ATOM      5  N   UNL d   1      28.141 -14.310  -3.674  0.00  0.00    -0.304 N 
ATOM      6  C   UNL d   1      27.633 -14.474  -4.978  0.00  0.00     0.224 C 
ATOM      7  O   UNL d   1      27.441 -15.574  -5.497  0.00  0.00    -0.273 OA
ATOM      8  H   UNL d   1      28.469 -13.391  -3.411  0.00  0.00     0.171 HD
BRANCH   6   9
ATOM      9  C   UNL d   1      27.386 -13.238  -5.843  0.00  0.00     0.113 C 
BRANCH   9  10
ATOM     10  C   UNL d   1      26.219 -12.397  -5.236  0.00  0.00     0.120 C 
BRANCH  10  11
ATOM     11  C   UNL d   1      25.582 -13.084  -4.040  0.00  0.00     0.259 C 
ATOM     12  O   UNL d   1      24.757 -13.963  -4.134  0.00  0.00    -0.265 OA
BRANCH  11  13
ATOM     13  O   UNL d   1      26.061 -12.582  -2.850  0.00  0.00    -0.321 OA
BRANCH  13  14
ATOM     14  C   UNL d   1      27.049 -11.544  -3.023  0.00  0.00     0.178 C 
BRANCH  14  15
ATOM     15  C   UNL d   1      26.695 -10.299  -2.205  0.00  0.00     0.022 C 
ATOM     16  C   UNL d   1      27.430 -10.277  -0.868  0.00  0.00     0.007 C 
ENDBRANCH  14  15
ENDBRANCH  13  14
ENDBRANCH  11  13
ENDBRANCH  10  11
ENDBRANCH   9  10
ENDBRANCH   6   9
ENDBRANCH   3   5
ENDBRANCH   1   3
BRANCH   1  17
ATOM     17  C   UNL d   1      26.484 -16.255  -0.963  0.00  0.00     0.042 C 
ATOM     18  C   UNL d   1      27.291 -17.110  -0.217  0.00  0.00     0.030 C 
ATOM     19  C   UNL d   1      26.685 -18.105   0.579  0.00  0.00     0.005 C 
ATOM     20  C   UNL d   1      25.276 -18.273   0.620  0.00  0.00     0.030 C 
ATOM     21  C   UNL d   1      24.431 -17.472  -0.170  0.00  0.00     0.043 C 
ATOM     22  C   UNL d   1      25.089 -16.520  -1.005  0.00  0.00    -0.009 C 
ATOM     23  C   UNL d   1      24.347 -15.860  -2.116  0.00  0.00     0.053 C 
BRANCH  21  24
ATOM     24  N   UNL d   1      22.978 -17.708  -0.145  0.00  0.00    -0.327 N 
ATOM     25  C   UNL d   1      22.225 -18.533  -0.994  0.00  0.00     0.221 C 
ATOM     26  O   UNL d   1      22.633 -19.082  -2.017  0.00  0.00    -0.273 OA
ATOM     27  H   UNL d   1      22.454 -17.118   0.491  0.00  0.00     0.169 HD
BRANCH  25  28
ATOM     28  C   UNL d   1      20.749 -18.768  -0.736  0.00  0.00     0.098 C 
ATOM     29  C   UNL d   1      20.655 -19.722   0.493  0.00  0.00     0.014 C 
ENDBRANCH  25  28
ENDBRANCH  21  24
ENDBRANCH   1  17
TORSDOF 11
ENDMDL
MODEL 9
REMARK VINA RESULT:    -6.991      2.581      9.123
REMARK INTER + INTRA:         -12.670
REMARK INTER:                 -10.272
REMARK INTRA:                  -2.398
REMARK CONF_INDEPENDENT:        3.281
REMARK UNBOUND:                -2.398
REMARK  11 active torsions:
REMARK  status: ('A' for Active; 'I' for Inactive)
REMARK    1  A    between atoms: C_2  and  C_3 
REMARK    2  A    between atoms: C_3  and  O_4 
REMARK    3  A    between atoms: O_4  and  C_5 
REMARK    4  A    between atoms: C_5  and  C_7 
REMARK    5  A    between atoms: C_7  and  C_8 
REMARK    6  A    between atoms: C_8  and  C_9 
REMARK       I    between atoms: C_9  and  N_11 
REMARK    7  A    between atoms: N_11  and  C_12 
REMARK    8  A    between atoms: C_12  and  N_14 
REMARK    9  A    between atoms: N_14  and  C_15 
REMARK   10  A    between atoms: C_19  and  N_20 
REMARK       I    between atoms: N_20  and  C_21 
REMARK   11  A    between atoms: C_21  and  C_23 
ROOT
ATOM      1  N   UNL d   1      26.662 -15.180  -1.317  0.00  0.00    -0.333 N 
ATOM      2  H   UNL d   1      26.138 -14.329  -1.164  0.00  0.00     0.168 HD
ENDROOT
BRANCH   1   3
ATOM      3  C   UNL d   1      27.674 -15.238  -2.318  0.00  0.00     0.178 C 
ATOM      4  S   UNL d   1      29.208 -15.895  -2.013  0.00  0.00    -0.040 SA
BRANCH   3   5
ATOM      5  N   UNL d   1      27.296 -14.728  -3.587  0.00  0.00    -0.304 N 
ATOM      6  C   UNL d   1      26.368 -13.685  -3.780  0.00  0.00     0.224 C 
ATOM      7  O   UNL d   1      25.513 -13.377  -2.949  0.00  0.00    -0.273 OA
ATOM      8  H   UNL d   1      27.810 -15.053  -4.394  0.00  0.00     0.171 HD
BRANCH   6   9
ATOM      9  C   UNL d   1      26.344 -12.945  -5.117  0.00  0.00     0.113 C 
BRANCH   9  10
ATOM     10  C   UNL d   1      27.795 -12.848  -5.688  0.00  0.00     0.120 C 
BRANCH  10  11
ATOM     11  C   UNL d   1      28.164 -14.063  -6.521  0.00  0.00     0.259 C 
ATOM     12  O   UNL d   1      27.921 -15.200  -6.189  0.00  0.00    -0.265 OA
BRANCH  11  13
ATOM     13  O   UNL d   1      28.803 -13.706  -7.688  0.00  0.00    -0.321 OA
BRANCH  13  14
ATOM     14  C   UNL d   1      28.346 -12.446  -8.227  0.00  0.00     0.178 C 
BRANCH  14  15
ATOM     15  C   UNL d   1      27.989 -12.575  -9.710  0.00  0.00     0.022 C 
ATOM     16  C   UNL d   1      27.295 -11.321 -10.233  0.00  0.00     0.007 C 
ENDBRANCH  14  15
ENDBRANCH  13  14
ENDBRANCH  11  13
ENDBRANCH  10  11
ENDBRANCH   9  10
ENDBRANCH   6   9
ENDBRANCH   3   5
ENDBRANCH   1   3
BRANCH   1  17
ATOM     17  C   UNL d   1      26.127 -16.381  -0.701  0.00  0.00     0.042 C 
ATOM     18  C   UNL d   1      26.923 -17.327  -0.060  0.00  0.00     0.030 C 
ATOM     19  C   UNL d   1      26.304 -18.409   0.600  0.00  0.00     0.005 C 
ATOM     20  C   UNL d   1      24.894 -18.572   0.608  0.00  0.00     0.030 C 
ATOM     21  C   UNL d   1      24.061 -17.674  -0.082  0.00  0.00     0.043 C 
ATOM     22  C   UNL d   1      24.731 -16.629  -0.787  0.00  0.00    -0.009 C 
ATOM     23  C   UNL d   1      24.003 -15.831  -1.813  0.00  0.00     0.053 C 
BRANCH  21  24
ATOM     24  N   UNL d   1      22.606 -17.901  -0.099  0.00  0.00    -0.327 N 
ATOM     25  C   UNL d   1      21.873 -18.720  -0.970  0.00  0.00     0.221 C 
ATOM     26  O   UNL d   1      22.306 -19.270  -1.983  0.00  0.00    -0.273 OA
ATOM     27  H   UNL d   1      22.068 -17.309   0.523  0.00  0.00     0.169 HD
BRANCH  25  28
ATOM     28  C   UNL d   1      20.389 -18.947  -0.754  0.00  0.00     0.098 C 
ATOM     29  C   UNL d   1      20.257 -20.160   0.215  0.00  0.00     0.014 C 
ENDBRANCH  25  28
ENDBRANCH  21  24
ENDBRANCH   1  17
TORSDOF 11
ENDMDL
