MODEL 1
REMARK VINA RESULT:   -26.736      0.000      0.000
REMARK INTER + INTRA:         -29.057
REMARK INTER:                 -27.631
REMARK INTRA:                  -1.426
REMARK CONF_INDEPENDENT:        0.895
REMARK UNBOUND:                -1.426
REMARK  3 active torsions:
REMARK  status: ('A' for Active; 'I' for Inactive)
REMARK    1  A    between atoms: C_5  and  N_6 
REMARK       I    between atoms: N_6  and  C_7 
REMARK       I    between atoms: C_7  and  N_9 
REMARK    2  A    between atoms: N_9  and  N_10 
REMARK       I    between atoms: N_10  and  C_11 
REMARK    3  A    between atoms: C_11  and  C_13 
ROOT
ATOM      1  N   UNL d   1      27.714 -15.742  -2.304  0.00  0.00    -0.308 N 
ATOM      2  C   UNL d   1      26.398 -16.201  -2.385  0.00  0.00     0.339 C 
ATOM      3  O   UNL d   1      25.643 -16.072  -3.351  0.00  0.00    -0.245 OA
ATOM      4  N   UNL d   1      25.902 -16.869  -1.272  0.00  0.00    -0.248 N 
ATOM      5  H   UNL d   1      28.239 -15.920  -1.458  0.00  0.00     0.170 HD
ATOM      6  H   UNL d   1      26.398 -17.053  -0.406  0.00  0.00     0.192 HD
ENDROOT
BRANCH   4   7
ATOM      7  N   UNL d   1      24.549 -17.380  -1.371  0.00  0.00    -0.262 N 
ATOM      8  C   UNL d   1      24.000 -18.162  -0.367  0.00  0.00     0.270 C 
ATOM      9  O   UNL d   1      24.635 -18.493   0.638  0.00  0.00    -0.266 OA
ATOM     10  H   UNL d   1      24.010 -16.997  -2.150  0.00  0.00     0.190 HD
BRANCH   8  11
ATOM     11  C   UNL d   1      22.570 -18.601  -0.517  0.00  0.00     0.036 A 
ATOM     12  C   UNL d   1      21.673 -18.594   0.554  0.00  0.00     0.036 A 
ATOM     13  C   UNL d   1      20.350 -18.952   0.313  0.00  0.00     0.117 A 
ATOM     14  N   UNL d   1      19.876 -19.325  -0.895  0.00  0.00    -0.273 NA
ATOM     15  C   UNL d   1      20.753 -19.318  -1.919  0.00  0.00     0.117 A 
ATOM     16  C   UNL d   1      22.088 -18.953  -1.785  0.00  0.00     0.036 A 
ENDBRANCH   8  11
ENDBRANCH   4   7
BRANCH   1  17
ATOM     17  C   UNL d   1      28.410 -15.041  -3.355  0.00  0.00     0.036 A 
ATOM     18  C   UNL d   1      29.303 -13.987  -3.081  0.00  0.00     0.030 A 
ATOM     19  C   UNL d   1      29.992 -13.319  -4.128  0.00  0.00     0.009 A 
ATOM     20  C   UNL d   1      29.804 -13.691  -5.464  0.00  0.00    -0.062 A 
ATOM     21  C   UNL d   1      30.521 -13.037  -6.610  0.00  0.00     0.048 C 
ATOM     22  C   UNL d   1      28.916 -14.724  -5.734  0.00  0.00     0.009 A 
ATOM     23  C   UNL d   1      28.237 -15.375  -4.701  0.00  0.00     0.030 A 
ENDBRANCH   1  17
TORSDOF 3
ENDMDL
MODEL 2
REMARK VINA RESULT:   -26.714      0.371      1.125
REMARK INTER + INTRA:         -29.069
REMARK INTER:                 -27.609
REMARK INTRA:                  -1.461
REMARK CONF_INDEPENDENT:        0.895
REMARK UNBOUND:                -1.461
REMARK  3 active torsions:
REMARK  status: ('A' for Active; 'I' for Inactive)
REMARK    1  A    between atoms: C_5  and  N_6 
REMARK       I    between atoms: N_6  and  C_7 
REMARK       I    between atoms: C_7  and  N_9 
REMARK    2  A    between atoms: N_9  and  N_10 
REMARK       I    between atoms: N_10  and  C_11 
REMARK    3  A    between atoms: C_11  and  C_13 
ROOT
ATOM      1  N   UNL d   1      27.736 -15.912  -2.007  0.00  0.00    -0.308 N 
ATOM      2  C   UNL d   1      26.417 -16.357  -2.134  0.00  0.00     0.339 C 
ATOM      3  O   UNL d   1      25.670 -16.145  -3.091  0.00  0.00    -0.245 OA
ATOM      4  N   UNL d   1      25.910 -17.110  -1.081  0.00  0.00    -0.248 N 
ATOM      5  H   UNL d   1      28.254 -16.161  -1.175  0.00  0.00     0.170 HD
ATOM      6  H   UNL d   1      26.400 -17.366  -0.230  0.00  0.00     0.192 HD
ENDROOT
BRANCH   4   7
ATOM      7  N   UNL d   1      24.556 -17.603  -1.231  0.00  0.00    -0.262 N 
ATOM      8  C   UNL d   1      23.883 -18.188  -0.169  0.00  0.00     0.270 C 
ATOM      9  O   UNL d   1      24.403 -18.352   0.938  0.00  0.00    -0.266 OA
ATOM     10  H   UNL d   1      24.110 -17.351  -2.114  0.00  0.00     0.190 HD
BRANCH   8  11
ATOM     11  C   UNL d   1      22.459 -18.618  -0.389  0.00  0.00     0.036 A 
ATOM     12  C   UNL d   1      21.510 -18.604   0.638  0.00  0.00     0.036 A 
ATOM     13  C   UNL d   1      20.199 -18.953   0.333  0.00  0.00     0.117 A 
ATOM     14  N   UNL d   1      19.781 -19.325  -0.896  0.00  0.00    -0.273 NA
ATOM     15  C   UNL d   1      20.708 -19.325  -1.876  0.00  0.00     0.117 A 
ATOM     16  C   UNL d   1      22.036 -18.969  -1.678  0.00  0.00     0.036 A 
ENDBRANCH   8  11
ENDBRANCH   4   7
BRANCH   1  17
ATOM     17  C   UNL d   1      28.442 -15.133  -2.994  0.00  0.00     0.036 A 
ATOM     18  C   UNL d   1      28.424 -15.473  -4.361  0.00  0.00     0.030 A 
ATOM     19  C   UNL d   1      29.112 -14.684  -5.320  0.00  0.00     0.009 A 
ATOM     20  C   UNL d   1      29.827 -13.544  -4.936  0.00  0.00    -0.062 A 
ATOM     21  C   UNL d   1      30.554 -12.661  -5.907  0.00  0.00     0.048 C 
ATOM     22  C   UNL d   1      29.853 -13.216  -3.587  0.00  0.00     0.009 A 
ATOM     23  C   UNL d   1      29.178 -13.997  -2.645  0.00  0.00     0.030 A 
ENDBRANCH   1  17
TORSDOF 3
ENDMDL
MODEL 3
REMARK VINA RESULT:   -26.697      1.995      2.467
REMARK INTER + INTRA:         -28.188
REMARK INTER:                 -27.592
REMARK INTRA:                  -0.596
REMARK CONF_INDEPENDENT:        0.895
REMARK UNBOUND:                -0.596
REMARK  3 active torsions:
REMARK  status: ('A' for Active; 'I' for Inactive)
REMARK    1  A    between atoms: C_5  and  N_6 
REMARK       I    between atoms: N_6  and  C_7 
REMARK       I    between atoms: C_7  and  N_9 
REMARK    2  A    between atoms: N_9  and  N_10 
REMARK       I    between atoms: N_10  and  C_11 
REMARK    3  A    between atoms: C_11  and  C_13 
ROOT
ATOM      1  N   UNL d   1      28.323 -17.290  -0.339  0.00  0.00    -0.308 N 
ATOM      2  C   UNL d   1      26.987 -17.612  -0.587  0.00  0.00     0.339 C 
ATOM      3  O   UNL d   1      26.358 -17.351  -1.615  0.00  0.00    -0.245 OA
ATOM      4  N   UNL d   1      26.312 -18.291   0.420  0.00  0.00    -0.248 N 
ATOM      5  H   UNL d   1      28.734 -17.569   0.543  0.00  0.00     0.170 HD
ATOM      6  H   UNL d   1      26.691 -18.574   1.319  0.00  0.00     0.192 HD
ENDROOT
BRANCH   4   7
ATOM      7  N   UNL d   1      24.937 -18.658   0.147  0.00  0.00    -0.262 N 
ATOM      8  C   UNL d   1      23.945 -17.697   0.033  0.00  0.00     0.270 C 
ATOM      9  O   UNL d   1      24.166 -16.493   0.190  0.00  0.00    -0.266 OA
ATOM     10  H   UNL d   1      24.803 -19.642  -0.095  0.00  0.00     0.190 HD
BRANCH   8  11
ATOM     11  C   UNL d   1      22.555 -18.155  -0.314  0.00  0.00     0.036 A 
ATOM     12  C   UNL d   1      22.060 -19.398   0.090  0.00  0.00     0.036 A 
ATOM     13  C   UNL d   1      20.740 -19.716  -0.214  0.00  0.00     0.117 A 
ATOM     14  N   UNL d   1      19.904 -18.903  -0.895  0.00  0.00    -0.273 NA
ATOM     15  C   UNL d   1      20.397 -17.705  -1.270  0.00  0.00     0.117 A 
ATOM     16  C   UNL d   1      21.692 -17.285  -0.992  0.00  0.00     0.036 A 
ENDBRANCH   8  11
ENDBRANCH   4   7
BRANCH   1  17
ATOM     17  C   UNL d   1      29.192 -16.602  -1.262  0.00  0.00     0.036 A 
ATOM     18  C   UNL d   1      28.763 -16.238  -2.553  0.00  0.00     0.030 A 
ATOM     19  C   UNL d   1      29.627 -15.545  -3.443  0.00  0.00     0.009 A 
ATOM     20  C   UNL d   1      30.929 -15.204  -3.062  0.00  0.00    -0.062 A 
ATOM     21  C   UNL d   1      31.878 -14.454  -3.951  0.00  0.00     0.048 C 
ATOM     22  C   UNL d   1      31.354 -15.573  -1.792  0.00  0.00     0.009 A 
ATOM     23  C   UNL d   1      30.502 -16.257  -0.921  0.00  0.00     0.030 A 
ENDBRANCH   1  17
TORSDOF 3
ENDMDL
MODEL 4
REMARK VINA RESULT:   -26.286      2.735      3.292
REMARK INTER + INTRA:         -28.063
REMARK INTER:                 -27.181
REMARK INTRA:                  -0.882
REMARK CONF_INDEPENDENT:        0.895
REMARK UNBOUND:                -0.882
REMARK  3 active torsions:
REMARK  status: ('A' for Active; 'I' for Inactive)
REMARK    1  A    between atoms: C_5  and  N_6 
REMARK       I    between atoms: N_6  and  C_7 
REMARK       I    between atoms: C_7  and  N_9 
REMARK    2  A    between atoms: N_9  and  N_10 
REMARK       I    between atoms: N_10  and  C_11 
REMARK    3  A    between atoms: C_11  and  C_13 
ROOT
ATOM      1  N   UNL d   1      27.826 -15.536  -0.362  0.00  0.00    -0.308 N 
ATOM      2  C   UNL d   1      26.493 -15.866  -0.616  0.00  0.00     0.339 C 
ATOM      3  O   UNL d   1      25.570 -15.069  -0.795  0.00  0.00    -0.245 OA
ATOM      4  N   UNL d   1      26.188 -17.221  -0.673  0.00  0.00    -0.248 N 
ATOM      5  H   UNL d   1      28.497 -16.283  -0.242  0.00  0.00     0.170 HD
ATOM      6  H   UNL d   1      26.834 -17.993  -0.546  0.00  0.00     0.192 HD
ENDROOT
BRANCH   4   7
ATOM      7  N   UNL d   1      24.812 -17.564  -0.975  0.00  0.00    -0.262 N 
ATOM      8  C   UNL d   1      24.013 -18.214  -0.047  0.00  0.00     0.270 C 
ATOM      9  O   UNL d   1      24.431 -18.565   1.059  0.00  0.00    -0.266 OA
ATOM     10  H   UNL d   1      24.458 -17.160  -1.844  0.00  0.00     0.190 HD
BRANCH   8  11
ATOM     11  C   UNL d   1      22.579 -18.479  -0.415  0.00  0.00     0.036 A 
ATOM     12  C   UNL d   1      21.955 -19.700  -0.145  0.00  0.00     0.036 A 
ATOM     13  C   UNL d   1      20.607 -19.838  -0.457  0.00  0.00     0.117 A 
ATOM     14  N   UNL d   1      19.858 -18.868  -1.024  0.00  0.00    -0.273 NA
ATOM     15  C   UNL d   1      20.474 -17.694  -1.270  0.00  0.00     0.117 A 
ATOM     16  C   UNL d   1      21.810 -17.449  -0.973  0.00  0.00     0.036 A 
ENDBRANCH   8  11
ENDBRANCH   4   7
BRANCH   1  17
ATOM     17  C   UNL d   1      28.341 -14.191  -0.278  0.00  0.00     0.036 A 
ATOM     18  C   UNL d   1      29.579 -13.833  -0.847  0.00  0.00     0.030 A 
ATOM     19  C   UNL d   1      30.062 -12.500  -0.769  0.00  0.00     0.009 A 
ATOM     20  C   UNL d   1      29.322 -11.502  -0.125  0.00  0.00    -0.062 A 
ATOM     21  C   UNL d   1      29.771 -10.073  -0.031  0.00  0.00     0.048 C 
ATOM     22  C   UNL d   1      28.107 -11.859   0.445  0.00  0.00     0.009 A 
ATOM     23  C   UNL d   1      27.636 -13.172   0.369  0.00  0.00     0.030 A 
ENDBRANCH   1  17
TORSDOF 3
ENDMDL
MODEL 5
REMARK VINA RESULT:   -26.098      1.842      2.210
REMARK INTER + INTRA:         -28.454
REMARK INTER:                 -26.993
REMARK INTRA:                  -1.461
REMARK CONF_INDEPENDENT:        0.895
REMARK UNBOUND:                -1.461
REMARK  3 active torsions:
REMARK  status: ('A' for Active; 'I' for Inactive)
REMARK    1  A    between atoms: C_5  and  N_6 
REMARK       I    between atoms: N_6  and  C_7 
REMARK       I    between atoms: C_7  and  N_9 
REMARK    2  A    between atoms: N_9  and  N_10 
REMARK       I    between atoms: N_10  and  C_11 
REMARK    3  A    between atoms: C_11  and  C_13 
ROOT
ATOM      1  N   UNL d   1      27.155 -14.429  -1.451  0.00  0.00    -0.308 N 
ATOM      2  C   UNL d   1      25.895 -15.008  -1.627  0.00  0.00     0.339 C 
ATOM      3  O   UNL d   1      25.026 -14.625  -2.412  0.00  0.00    -0.245 OA
ATOM      4  N   UNL d   1      25.606 -16.118  -0.843  0.00  0.00    -0.248 N 
ATOM      5  H   UNL d   1      27.789 -14.843  -0.780  0.00  0.00     0.170 HD
ATOM      6  H   UNL d   1      26.215 -16.549  -0.154  0.00  0.00     0.192 HD
ENDROOT
BRANCH   4   7
ATOM      7  N   UNL d   1      24.314 -16.741  -1.053  0.00  0.00    -0.262 N 
ATOM      8  C   UNL d   1      23.908 -17.829  -0.295  0.00  0.00     0.270 C 
ATOM      9  O   UNL d   1      24.627 -18.343   0.566  0.00  0.00    -0.266 OA
ATOM     10  H   UNL d   1      23.695 -16.228  -1.684  0.00  0.00     0.190 HD
BRANCH   8  11
ATOM     11  C   UNL d   1      22.529 -18.379  -0.533  0.00  0.00     0.036 A 
ATOM     12  C   UNL d   1      22.164 -19.669  -0.140  0.00  0.00     0.036 A 
ATOM     13  C   UNL d   1      20.848 -20.075  -0.337  0.00  0.00     0.117 A 
ATOM     14  N   UNL d   1      19.896 -19.304  -0.904  0.00  0.00    -0.273 NA
ATOM     15  C   UNL d   1      20.263 -18.059  -1.270  0.00  0.00     0.117 A 
ATOM     16  C   UNL d   1      21.545 -17.552  -1.093  0.00  0.00     0.036 A 
ENDBRANCH   8  11
ENDBRANCH   4   7
BRANCH   1  17
ATOM     17  C   UNL d   1      27.645 -13.284  -2.177  0.00  0.00     0.036 A 
ATOM     18  C   UNL d   1      26.844 -12.147  -2.400  0.00  0.00     0.030 A 
ATOM     19  C   UNL d   1      27.349 -11.021  -3.103  0.00  0.00     0.009 A 
ATOM     20  C   UNL d   1      28.659 -11.009  -3.594  0.00  0.00    -0.062 A 
ATOM     21  C   UNL d   1      29.254  -9.840  -4.325  0.00  0.00     0.048 C 
ATOM     22  C   UNL d   1      29.445 -12.134  -3.383  0.00  0.00     0.009 A 
ATOM     23  C   UNL d   1      28.943 -13.241  -2.694  0.00  0.00     0.030 A 
ENDBRANCH   1  17
TORSDOF 3
ENDMDL
MODEL 6
REMARK VINA RESULT:   -26.025      3.246      3.866
REMARK INTER + INTRA:         -28.376
REMARK INTER:                 -26.919
REMARK INTRA:                  -1.457
REMARK CONF_INDEPENDENT:        0.895
REMARK UNBOUND:                -1.457
REMARK  3 active torsions:
REMARK  status: ('A' for Active; 'I' for Inactive)
REMARK    1  A    between atoms: C_5  and  N_6 
REMARK       I    between atoms: N_6  and  C_7 
REMARK       I    between atoms: C_7  and  N_9 
REMARK    2  A    between atoms: N_9  and  N_10 
REMARK       I    between atoms: N_10  and  C_11 
REMARK    3  A    between atoms: C_11  and  C_13 
ROOT
ATOM      1  N   UNL d   1      28.021 -15.447   0.435  0.00  0.00    -0.308 N 
ATOM      2  C   UNL d   1      26.645 -15.587   0.237  0.00  0.00     0.339 C 
ATOM      3  O   UNL d   1      25.826 -14.669   0.166  0.00  0.00    -0.245 OA
ATOM      4  N   UNL d   1      26.165 -16.884   0.104  0.00  0.00    -0.248 N 
ATOM      5  H   UNL d   1      28.595 -16.280   0.463  0.00  0.00     0.170 HD
ATOM      6  H   UNL d   1      26.711 -17.739   0.140  0.00  0.00     0.192 HD
ENDROOT
BRANCH   4   7
ATOM      7  N   UNL d   1      24.743 -17.027  -0.140  0.00  0.00    -0.262 N 
ATOM      8  C   UNL d   1      24.159 -18.277  -0.274  0.00  0.00     0.270 C 
ATOM      9  O   UNL d   1      24.811 -19.323  -0.228  0.00  0.00    -0.266 OA
ATOM     10  H   UNL d   1      24.211 -16.159  -0.056  0.00  0.00     0.190 HD
BRANCH   8  11
ATOM     11  C   UNL d   1      22.668 -18.342  -0.464  0.00  0.00     0.036 A 
ATOM     12  C   UNL d   1      21.951 -17.309  -1.072  0.00  0.00     0.036 A 
ATOM     13  C   UNL d   1      20.584 -17.478  -1.270  0.00  0.00     0.117 A 
ATOM     14  N   UNL d   1      19.896 -18.578  -0.895  0.00  0.00    -0.273 NA
ATOM     15  C   UNL d   1      20.606 -19.568  -0.317  0.00  0.00     0.117 A 
ATOM     16  C   UNL d   1      21.977 -19.505  -0.098  0.00  0.00     0.036 A 
ENDBRANCH   8  11
ENDBRANCH   4   7
BRANCH   1  17
ATOM     17  C   UNL d   1      28.710 -14.188   0.581  0.00  0.00     0.036 A 
ATOM     18  C   UNL d   1      28.259 -13.194   1.472  0.00  0.00     0.030 A 
ATOM     19  C   UNL d   1      28.959 -11.967   1.614  0.00  0.00     0.009 A 
ATOM     20  C   UNL d   1      30.119 -11.710   0.875  0.00  0.00    -0.062 A 
ATOM     21  C   UNL d   1      30.912 -10.442   0.999  0.00  0.00     0.048 C 
ATOM     22  C   UNL d   1      30.556 -12.687  -0.011  0.00  0.00     0.009 A 
ATOM     23  C   UNL d   1      29.862 -13.891  -0.151  0.00  0.00     0.030 A 
ENDBRANCH   1  17
TORSDOF 3
ENDMDL
