MODEL 1
REMARK VINA RESULT:   -10.504      0.000      0.000
REMARK INTER + INTRA:         -14.524
REMARK INTER:                 -12.890
REMARK INTRA:                  -1.634
REMARK CONF_INDEPENDENT:        2.386
REMARK UNBOUND:                -1.634
REMARK  8 active torsions:
REMARK  status: ('A' for Active; 'I' for Inactive)
REMARK    1  A    between atoms: C_2  and  C_3 
REMARK       I    between atoms: C_3  and  N_5 
REMARK    2  A    between atoms: N_5  and  C_6 
REMARK    3  A    between atoms: C_10  and  N_11 
REMARK    4  A    between atoms: N_11  and  C_12 
REMARK    5  A    between atoms: C_12  and  C_13 
REMARK       I    between atoms: C_13  and  N_15 
REMARK    6  A    between atoms: N_15  and  C_16 
REMARK    7  A    between atoms: C_19  and  N_20 
REMARK       I    between atoms: N_20  and  C_21 
REMARK    8  A    between atoms: C_21  and  C_23 
ROOT
ATOM      1  C   UNL d   1      25.771 -14.882  -4.203  0.00  0.00     0.239 C 
ATOM      2  O   UNL d   1      25.448 -15.548  -5.184  0.00  0.00    -0.271 OA
ATOM      3  N   UNL d   1      27.059 -14.405  -3.904  0.00  0.00    -0.326 N 
ATOM      4  H   UNL d   1      27.277 -14.057  -2.977  0.00  0.00     0.169 HD
ENDROOT
BRANCH   3   5
ATOM      5  C   UNL d   1      28.119 -14.625  -4.790  0.00  0.00     0.034 A 
ATOM      6  C   UNL d   1      29.246 -15.372  -4.437  0.00  0.00     0.032 A 
ATOM      7  C   UNL d   1      30.270 -15.577  -5.382  0.00  0.00     0.032 A 
ATOM      8  C   UNL d   1      30.128 -15.084  -6.685  0.00  0.00     0.035 A 
ATOM      9  C   UNL d   1      28.962 -14.396  -7.016  0.00  0.00     0.032 A 
ATOM     10  C   UNL d   1      28.015 -14.097  -6.065  0.00  0.00     0.032 A 
BRANCH   8  11
ATOM     11  N   UNL d   1      31.146 -15.289  -7.645  0.00  0.00    -0.323 N 
ATOM     12  C   UNL d   1      32.047 -16.346  -7.681  0.00  0.00     0.256 C 
ATOM     13  O   UNL d   1      33.247 -16.125  -7.887  0.00  0.00    -0.267 OA
ATOM     14  H   UNL d   1      31.442 -14.476  -8.173  0.00  0.00     0.169 HD
BRANCH  12  15
ATOM     15  C   UNL d   1      31.553 -17.762  -7.575  0.00  0.00     0.032 C 
ATOM     16  C   UNL d   1      31.530 -18.596  -8.695  0.00  0.00     0.017 C 
ATOM     17  C   UNL d   1      31.113 -19.927  -8.564  0.00  0.00     0.002 C 
ATOM     18  C   UNL d   1      30.779 -20.450  -7.310  0.00  0.00     0.007 C 
ATOM     19  C   UNL d   1      30.803 -19.633  -6.185  0.00  0.00    -0.061 C 
ATOM     20  C   UNL d   1      30.568 -20.147  -4.796  0.00  0.00     0.048 C 
ATOM     21  C   UNL d   1      31.106 -18.282  -6.350  0.00  0.00     0.023 C 
ENDBRANCH  12  15
ENDBRANCH   8  11
ENDBRANCH   3   5
BRANCH   1  22
ATOM     22  C   UNL d   1      24.780 -14.548  -3.130  0.00  0.00     0.223 C 
BRANCH  22  23
ATOM     23  N   UNL d   1      25.211 -14.819  -1.771  0.00  0.00    -0.381 N 
ATOM     24  H   UNL d   1      25.629 -14.032  -1.282  0.00  0.00     0.160 HD
BRANCH  23  25
ATOM     25  C   UNL d   1      25.105 -16.058  -1.150  0.00  0.00     0.036 A 
ATOM     26  C   UNL d   1      26.312 -16.740  -0.878  0.00  0.00     0.030 A 
ATOM     27  C   UNL d   1      26.336 -17.979  -0.227  0.00  0.00     0.005 A 
ATOM     28  C   UNL d   1      25.143 -18.575   0.181  0.00  0.00     0.030 A 
ATOM     29  C   UNL d   1      23.921 -17.951  -0.091  0.00  0.00     0.043 A 
ATOM     30  C   UNL d   1      23.891 -16.678  -0.743  0.00  0.00    -0.009 A 
ATOM     31  C   UNL d   1      22.531 -16.047  -0.895  0.00  0.00     0.053 C 
BRANCH  29  32
ATOM     32  N   UNL d   1      22.725 -18.572   0.392  0.00  0.00    -0.327 N 
ATOM     33  C   UNL d   1      21.756 -19.099  -0.451  0.00  0.00     0.221 C 
ATOM     34  O   UNL d   1      21.913 -19.273  -1.660  0.00  0.00    -0.273 OA
ATOM     35  H   UNL d   1      22.734 -18.897   1.351  0.00  0.00     0.169 HD
BRANCH  33  36
ATOM     36  C   UNL d   1      20.460 -19.532   0.206  0.00  0.00     0.098 C 
ATOM     37  C   UNL d   1      19.313 -19.388  -0.798  0.00  0.00     0.014 C 
ENDBRANCH  33  36
ENDBRANCH  29  32
ENDBRANCH  23  25
ENDBRANCH  22  23
ENDBRANCH   1  22
TORSDOF 8
ENDMDL
MODEL 2
REMARK VINA RESULT:   -10.228      7.728     11.401
REMARK INTER + INTRA:         -13.934
REMARK INTER:                 -12.615
REMARK INTRA:                  -1.319
REMARK CONF_INDEPENDENT:        2.386
REMARK UNBOUND:                -1.319
REMARK  8 active torsions:
REMARK  status: ('A' for Active; 'I' for Inactive)
REMARK    1  A    between atoms: C_2  and  C_3 
REMARK       I    between atoms: C_3  and  N_5 
REMARK    2  A    between atoms: N_5  and  C_6 
REMARK    3  A    between atoms: C_10  and  N_11 
REMARK    4  A    between atoms: N_11  and  C_12 
REMARK    5  A    between atoms: C_12  and  C_13 
REMARK       I    between atoms: C_13  and  N_15 
REMARK    6  A    between atoms: N_15  and  C_16 
REMARK    7  A    between atoms: C_19  and  N_20 
REMARK       I    between atoms: N_20  and  C_21 
REMARK    8  A    between atoms: C_21  and  C_23 
ROOT
ATOM      1  C   UNL d   1      28.735 -13.856   1.912  0.00  0.00     0.239 C 
ATOM      2  O   UNL d   1      28.529 -12.645   1.864  0.00  0.00    -0.271 OA
ATOM      3  N   UNL d   1      28.865 -14.635   3.075  0.00  0.00    -0.326 N 
ATOM      4  H   UNL d   1      29.248 -15.573   3.025  0.00  0.00     0.169 HD
ENDROOT
BRANCH   3   5
ATOM      5  C   UNL d   1      28.704 -14.056   4.338  0.00  0.00     0.034 A 
ATOM      6  C   UNL d   1      28.007 -12.860   4.528  0.00  0.00     0.032 A 
ATOM      7  C   UNL d   1      27.860 -12.338   5.827  0.00  0.00     0.032 A 
ATOM      8  C   UNL d   1      28.359 -13.048   6.926  0.00  0.00     0.035 A 
ATOM      9  C   UNL d   1      28.996 -14.267   6.702  0.00  0.00     0.032 A 
ATOM     10  C   UNL d   1      29.240 -14.720   5.426  0.00  0.00     0.032 A 
BRANCH   8  11
ATOM     11  N   UNL d   1      28.212 -12.537   8.237  0.00  0.00    -0.323 N 
ATOM     12  C   UNL d   1      28.482 -13.212   9.421  0.00  0.00     0.256 C 
ATOM     13  O   UNL d   1      27.675 -13.158  10.359  0.00  0.00    -0.267 OA
ATOM     14  H   UNL d   1      27.596 -11.740   8.348  0.00  0.00     0.169 HD
BRANCH  12  15
ATOM     15  C   UNL d   1      29.796 -13.918   9.604  0.00  0.00     0.032 C 
ATOM     16  C   UNL d   1      30.959 -13.429   9.005  0.00  0.00     0.017 C 
ATOM     17  C   UNL d   1      32.183 -14.073   9.229  0.00  0.00     0.002 C 
ATOM     18  C   UNL d   1      32.264 -15.168  10.097  0.00  0.00     0.007 C 
ATOM     19  C   UNL d   1      31.115 -15.663  10.705  0.00  0.00    -0.061 C 
ATOM     20  C   UNL d   1      31.139 -16.756  11.730  0.00  0.00     0.048 C 
ATOM     21  C   UNL d   1      29.889 -15.084  10.380  0.00  0.00     0.023 C 
ENDBRANCH  12  15
ENDBRANCH   8  11
ENDBRANCH   3   5
BRANCH   1  22
ATOM     22  C   UNL d   1      28.947 -14.658   0.665  0.00  0.00     0.223 C 
BRANCH  22  23
ATOM     23  N   UNL d   1      28.198 -15.897   0.581  0.00  0.00    -0.381 N 
ATOM     24  H   UNL d   1      28.602 -16.685   1.079  0.00  0.00     0.160 HD
BRANCH  23  25
ATOM     25  C   UNL d   1      27.020 -16.050  -0.142  0.00  0.00     0.036 A 
ATOM     26  C   UNL d   1      26.748 -15.078  -1.131  0.00  0.00     0.030 A 
ATOM     27  C   UNL d   1      25.612 -15.144  -1.945  0.00  0.00     0.005 A 
ATOM     28  C   UNL d   1      24.708 -16.195  -1.798  0.00  0.00     0.030 A 
ATOM     29  C   UNL d   1      24.920 -17.167  -0.813  0.00  0.00     0.043 A 
ATOM     30  C   UNL d   1      26.088 -17.113   0.012  0.00  0.00    -0.009 A 
ATOM     31  C   UNL d   1      26.272 -18.262   0.969  0.00  0.00     0.053 C 
BRANCH  29  32
ATOM     32  N   UNL d   1      23.996 -18.256  -0.732  0.00  0.00    -0.327 N 
ATOM     33  C   UNL d   1      22.640 -18.078  -0.490  0.00  0.00     0.221 C 
ATOM     34  O   UNL d   1      22.069 -16.988  -0.529  0.00  0.00    -0.273 OA
ATOM     35  H   UNL d   1      24.282 -19.131  -1.153  0.00  0.00     0.169 HD
BRANCH  33  36
ATOM     36  C   UNL d   1      21.835 -19.336  -0.226  0.00  0.00     0.098 C 
ATOM     37  C   UNL d   1      20.399 -19.128  -0.716  0.00  0.00     0.014 C 
ENDBRANCH  33  36
ENDBRANCH  29  32
ENDBRANCH  23  25
ENDBRANCH  22  23
ENDBRANCH   1  22
TORSDOF 8
ENDMDL
MODEL 3
REMARK VINA RESULT:    -9.615      7.421     10.974
REMARK INTER + INTRA:         -13.466
REMARK INTER:                 -12.002
REMARK INTRA:                  -1.464
REMARK CONF_INDEPENDENT:        2.386
REMARK UNBOUND:                -1.464
REMARK  8 active torsions:
REMARK  status: ('A' for Active; 'I' for Inactive)
REMARK    1  A    between atoms: C_2  and  C_3 
REMARK       I    between atoms: C_3  and  N_5 
REMARK    2  A    between atoms: N_5  and  C_6 
REMARK    3  A    between atoms: C_10  and  N_11 
REMARK    4  A    between atoms: N_11  and  C_12 
REMARK    5  A    between atoms: C_12  and  C_13 
REMARK       I    between atoms: C_13  and  N_15 
REMARK    6  A    between atoms: N_15  and  C_16 
REMARK    7  A    between atoms: C_19  and  N_20 
REMARK       I    between atoms: N_20  and  C_21 
REMARK    8  A    between atoms: C_21  and  C_23 
ROOT
ATOM      1  C   UNL d   1      28.083 -13.799   1.487  0.00  0.00     0.239 C 
ATOM      2  O   UNL d   1      27.436 -12.756   1.547  0.00  0.00    -0.271 OA
ATOM      3  N   UNL d   1      28.712 -14.454   2.560  0.00  0.00    -0.326 N 
ATOM      4  H   UNL d   1      29.399 -15.180   2.388  0.00  0.00     0.169 HD
ENDROOT
BRANCH   3   5
ATOM      5  C   UNL d   1      28.589 -13.959   3.863  0.00  0.00     0.034 A 
ATOM      6  C   UNL d   1      28.638 -14.789   4.986  0.00  0.00     0.032 A 
ATOM      7  C   UNL d   1      28.530 -14.227   6.272  0.00  0.00     0.032 A 
ATOM      8  C   UNL d   1      28.434 -12.838   6.423  0.00  0.00     0.035 A 
ATOM      9  C   UNL d   1      28.449 -12.039   5.281  0.00  0.00     0.032 A 
ATOM     10  C   UNL d   1      28.439 -12.593   4.022  0.00  0.00     0.032 A 
BRANCH   8  11
ATOM     11  N   UNL d   1      28.332 -12.261   7.710  0.00  0.00    -0.323 N 
ATOM     12  C   UNL d   1      28.534 -12.907   8.924  0.00  0.00     0.256 C 
ATOM     13  O   UNL d   1      27.734 -12.737   9.852  0.00  0.00    -0.267 OA
ATOM     14  H   UNL d   1      27.793 -11.405   7.783  0.00  0.00     0.169 HD
BRANCH  12  15
ATOM     15  C   UNL d   1      29.776 -13.725   9.144  0.00  0.00     0.032 C 
ATOM     16  C   UNL d   1      31.000 -13.325   8.603  0.00  0.00     0.017 C 
ATOM     17  C   UNL d   1      32.155 -14.075   8.862  0.00  0.00     0.002 C 
ATOM     18  C   UNL d   1      32.108 -15.186   9.711  0.00  0.00     0.007 C 
ATOM     19  C   UNL d   1      30.898 -15.592  10.263  0.00  0.00    -0.061 C 
ATOM     20  C   UNL d   1      30.787 -16.700  11.266  0.00  0.00     0.048 C 
ATOM     21  C   UNL d   1      29.739 -14.907   9.901  0.00  0.00     0.023 C 
ENDBRANCH  12  15
ENDBRANCH   8  11
ENDBRANCH   3   5
BRANCH   1  22
ATOM     22  C   UNL d   1      28.338 -14.481   0.178  0.00  0.00     0.223 C 
BRANCH  22  23
ATOM     23  N   UNL d   1      27.156 -14.880  -0.563  0.00  0.00    -0.381 N 
ATOM     24  H   UNL d   1      26.816 -14.200  -1.239  0.00  0.00     0.160 HD
BRANCH  23  25
ATOM     25  C   UNL d   1      26.486 -16.083  -0.376  0.00  0.00     0.036 A 
ATOM     26  C   UNL d   1      27.047 -16.988   0.553  0.00  0.00     0.030 A 
ATOM     27  C   UNL d   1      26.446 -18.217   0.850  0.00  0.00     0.005 A 
ATOM     28  C   UNL d   1      25.253 -18.578   0.227  0.00  0.00     0.030 A 
ATOM     29  C   UNL d   1      24.673 -17.727  -0.721  0.00  0.00     0.043 A 
ATOM     30  C   UNL d   1      25.276 -16.464  -1.019  0.00  0.00    -0.009 A 
ATOM     31  C   UNL d   1      24.517 -15.582  -1.976  0.00  0.00     0.053 C 
BRANCH  29  32
ATOM     32  N   UNL d   1      23.422 -18.114  -1.298  0.00  0.00    -0.327 N 
ATOM     33  C   UNL d   1      22.272 -18.305  -0.544  0.00  0.00     0.221 C 
ATOM     34  O   UNL d   1      22.154 -17.966   0.634  0.00  0.00    -0.273 OA
ATOM     35  H   UNL d   1      23.306 -17.953  -2.290  0.00  0.00     0.169 HD
BRANCH  33  36
ATOM     36  C   UNL d   1      21.088 -18.913  -1.270  0.00  0.00     0.098 C 
ATOM     37  C   UNL d   1      20.128 -19.525  -0.245  0.00  0.00     0.014 C 
ENDBRANCH  33  36
ENDBRANCH  29  32
ENDBRANCH  23  25
ENDBRANCH  22  23
ENDBRANCH   1  22
TORSDOF 8
ENDMDL
MODEL 4
REMARK VINA RESULT:    -9.292      6.967      9.422
REMARK INTER + INTRA:         -13.269
REMARK INTER:                 -11.679
REMARK INTRA:                  -1.590
REMARK CONF_INDEPENDENT:        2.386
REMARK UNBOUND:                -1.590
REMARK  8 active torsions:
REMARK  status: ('A' for Active; 'I' for Inactive)
REMARK    1  A    between atoms: C_2  and  C_3 
REMARK       I    between atoms: C_3  and  N_5 
REMARK    2  A    between atoms: N_5  and  C_6 
REMARK    3  A    between atoms: C_10  and  N_11 
REMARK    4  A    between atoms: N_11  and  C_12 
REMARK    5  A    between atoms: C_12  and  C_13 
REMARK       I    between atoms: C_13  and  N_15 
REMARK    6  A    between atoms: N_15  and  C_16 
REMARK    7  A    between atoms: C_19  and  N_20 
REMARK       I    between atoms: N_20  and  C_21 
REMARK    8  A    between atoms: C_21  and  C_23 
ROOT
ATOM      1  C   UNL d   1      27.399 -10.635   2.747  0.00  0.00     0.239 C 
ATOM      2  O   UNL d   1      26.288 -10.166   2.510  0.00  0.00    -0.271 OA
ATOM      3  N   UNL d   1      28.054 -11.641   2.016  0.00  0.00    -0.326 N 
ATOM      4  H   UNL d   1      28.861 -12.117   2.404  0.00  0.00     0.169 HD
ENDROOT
BRANCH   3   5
ATOM      5  C   UNL d   1      27.470 -12.170   0.860  0.00  0.00     0.034 A 
ATOM      6  C   UNL d   1      27.606 -11.562  -0.391  0.00  0.00     0.032 A 
ATOM      7  C   UNL d   1      27.012 -12.156  -1.522  0.00  0.00     0.032 A 
ATOM      8  C   UNL d   1      26.342 -13.380  -1.398  0.00  0.00     0.035 A 
ATOM      9  C   UNL d   1      26.280 -13.985  -0.144  0.00  0.00     0.032 A 
ATOM     10  C   UNL d   1      26.760 -13.351   0.978  0.00  0.00     0.032 A 
BRANCH   8  11
ATOM     11  N   UNL d   1      25.748 -13.989  -2.528  0.00  0.00    -0.323 N 
ATOM     12  C   UNL d   1      25.829 -15.330  -2.881  0.00  0.00     0.256 C 
ATOM     13  O   UNL d   1      26.067 -15.645  -4.054  0.00  0.00    -0.267 OA
ATOM     14  H   UNL d   1      25.491 -13.376  -3.292  0.00  0.00     0.169 HD
BRANCH  12  15
ATOM     15  C   UNL d   1      25.527 -16.397  -1.867  0.00  0.00     0.032 C 
ATOM     16  C   UNL d   1      26.551 -16.983  -1.119  0.00  0.00     0.017 C 
ATOM     17  C   UNL d   1      26.242 -17.940  -0.143  0.00  0.00     0.002 C 
ATOM     18  C   UNL d   1      24.911 -18.271   0.136  0.00  0.00     0.007 C 
ATOM     19  C   UNL d   1      23.881 -17.692  -0.597  0.00  0.00    -0.061 C 
ATOM     20  C   UNL d   1      22.431 -17.910  -0.283  0.00  0.00     0.048 C 
ATOM     21  C   UNL d   1      24.210 -16.831  -1.643  0.00  0.00     0.023 C 
ENDBRANCH  12  15
ENDBRANCH   8  11
ENDBRANCH   3   5
BRANCH   1  22
ATOM     22  C   UNL d   1      28.183 -10.206   3.949  0.00  0.00     0.223 C 
BRANCH  22  23
ATOM     23  N   UNL d   1      27.780 -10.803   5.208  0.00  0.00    -0.381 N 
ATOM     24  H   UNL d   1      27.276 -10.186   5.841  0.00  0.00     0.160 HD
BRANCH  23  25
ATOM     25  C   UNL d   1      28.063 -12.112   5.579  0.00  0.00     0.036 A 
ATOM     26  C   UNL d   1      27.780 -13.120   4.629  0.00  0.00     0.030 A 
ATOM     27  C   UNL d   1      28.052 -14.470   4.873  0.00  0.00     0.005 A 
ATOM     28  C   UNL d   1      28.627 -14.858   6.082  0.00  0.00     0.030 A 
ATOM     29  C   UNL d   1      28.900 -13.900   7.066  0.00  0.00     0.043 A 
ATOM     30  C   UNL d   1      28.637 -12.516   6.816  0.00  0.00    -0.009 A 
ATOM     31  C   UNL d   1      29.062 -11.559   7.899  0.00  0.00     0.053 C 
BRANCH  29  32
ATOM     32  N   UNL d   1      29.537 -14.335   8.271  0.00  0.00    -0.327 N 
ATOM     33  C   UNL d   1      28.972 -14.163   9.528  0.00  0.00     0.221 C 
ATOM     34  O   UNL d   1      27.805 -13.820   9.718  0.00  0.00    -0.273 OA
ATOM     35  H   UNL d   1      30.259 -15.039   8.178  0.00  0.00     0.169 HD
BRANCH  33  36
ATOM     36  C   UNL d   1      29.861 -14.486  10.712  0.00  0.00     0.098 C 
ATOM     37  C   UNL d   1      30.608 -15.795  10.440  0.00  0.00     0.014 C 
ENDBRANCH  33  36
ENDBRANCH  29  32
ENDBRANCH  23  25
ENDBRANCH  22  23
ENDBRANCH   1  22
TORSDOF 8
ENDMDL
MODEL 5
REMARK VINA RESULT:    -8.516      6.826      9.310
REMARK INTER + INTRA:         -12.579
REMARK INTER:                 -10.903
REMARK INTRA:                  -1.677
REMARK CONF_INDEPENDENT:        2.386
REMARK UNBOUND:                -1.677
REMARK  8 active torsions:
REMARK  status: ('A' for Active; 'I' for Inactive)
REMARK    1  A    between atoms: C_2  and  C_3 
REMARK       I    between atoms: C_3  and  N_5 
REMARK    2  A    between atoms: N_5  and  C_6 
REMARK    3  A    between atoms: C_10  and  N_11 
REMARK    4  A    between atoms: N_11  and  C_12 
REMARK    5  A    between atoms: C_12  and  C_13 
REMARK       I    between atoms: C_13  and  N_15 
REMARK    6  A    between atoms: N_15  and  C_16 
REMARK    7  A    between atoms: C_19  and  N_20 
REMARK       I    between atoms: N_20  and  C_21 
REMARK    8  A    between atoms: C_21  and  C_23 
ROOT
ATOM      1  C   UNL d   1      30.433 -12.267   1.779  0.00  0.00     0.239 C 
ATOM      2  O   UNL d   1      31.049 -12.785   0.851  0.00  0.00    -0.271 OA
ATOM      3  N   UNL d   1      29.052 -12.007   1.824  0.00  0.00    -0.326 N 
ATOM      4  H   UNL d   1      28.668 -11.385   2.527  0.00  0.00     0.169 HD
ENDROOT
BRANCH   3   5
ATOM      5  C   UNL d   1      28.224 -12.398   0.767  0.00  0.00     0.034 A 
ATOM      6  C   UNL d   1      28.484 -12.039  -0.558  0.00  0.00     0.032 A 
ATOM      7  C   UNL d   1      27.624 -12.482  -1.581  0.00  0.00     0.032 A 
ATOM      8  C   UNL d   1      26.550 -13.327  -1.275  0.00  0.00     0.035 A 
ATOM      9  C   UNL d   1      26.358 -13.712   0.051  0.00  0.00     0.032 A 
ATOM     10  C   UNL d   1      27.128 -13.188   1.064  0.00  0.00     0.032 A 
BRANCH   8  11
ATOM     11  N   UNL d   1      25.683 -13.785  -2.295  0.00  0.00    -0.323 N 
ATOM     12  C   UNL d   1      25.568 -15.089  -2.757  0.00  0.00     0.256 C 
ATOM     13  O   UNL d   1      25.530 -15.310  -3.974  0.00  0.00    -0.267 OA
ATOM     14  H   UNL d   1      25.331 -13.086  -2.939  0.00  0.00     0.169 HD
BRANCH  12  15
ATOM     15  C   UNL d   1      25.384 -16.221  -1.785  0.00  0.00     0.032 C 
ATOM     16  C   UNL d   1      26.470 -16.731  -1.069  0.00  0.00     0.017 C 
ATOM     17  C   UNL d   1      26.270 -17.752  -0.131  0.00  0.00     0.002 C 
ATOM     18  C   UNL d   1      24.981 -18.224   0.145  0.00  0.00     0.007 C 
ATOM     19  C   UNL d   1      23.890 -17.721  -0.555  0.00  0.00    -0.061 C 
ATOM     20  C   UNL d   1      22.473 -18.095  -0.239  0.00  0.00     0.048 C 
ATOM     21  C   UNL d   1      24.120 -16.791  -1.568  0.00  0.00     0.023 C 
ENDBRANCH  12  15
ENDBRANCH   8  11
ENDBRANCH   3   5
BRANCH   1  22
ATOM     22  C   UNL d   1      31.144 -11.768   3.001  0.00  0.00     0.223 C 
BRANCH  22  23
ATOM     23  N   UNL d   1      31.349 -12.748   4.051  0.00  0.00    -0.381 N 
ATOM     24  H   UNL d   1      32.321 -12.950   4.273  0.00  0.00     0.160 HD
BRANCH  23  25
ATOM     25  C   UNL d   1      30.323 -13.408   4.715  0.00  0.00     0.036 A 
ATOM     26  C   UNL d   1      29.383 -14.096   3.913  0.00  0.00     0.030 A 
ATOM     27  C   UNL d   1      28.325 -14.825   4.467  0.00  0.00     0.005 A 
ATOM     28  C   UNL d   1      28.176 -14.895   5.852  0.00  0.00     0.030 A 
ATOM     29  C   UNL d   1      29.065 -14.208   6.686  0.00  0.00     0.043 A 
ATOM     30  C   UNL d   1      30.157 -13.473   6.126  0.00  0.00    -0.009 A 
ATOM     31  C   UNL d   1      31.113 -12.857   7.115  0.00  0.00     0.053 C 
BRANCH  29  32
ATOM     32  N   UNL d   1      28.906 -14.350   8.101  0.00  0.00    -0.327 N 
ATOM     33  C   UNL d   1      28.557 -13.293   8.931  0.00  0.00     0.221 C 
ATOM     34  O   UNL d   1      28.152 -12.203   8.526  0.00  0.00    -0.273 OA
ATOM     35  H   UNL d   1      28.752 -15.287   8.453  0.00  0.00     0.169 HD
BRANCH  33  36
ATOM     36  C   UNL d   1      28.633 -13.557  10.422  0.00  0.00     0.098 C 
ATOM     37  C   UNL d   1      27.405 -12.949  11.106  0.00  0.00     0.014 C 
ENDBRANCH  33  36
ENDBRANCH  29  32
ENDBRANCH  23  25
ENDBRANCH  22  23
ENDBRANCH   1  22
TORSDOF 8
ENDMDL
MODEL 6
REMARK VINA RESULT:    -8.393      8.690     11.313
REMARK INTER + INTRA:         -12.664
REMARK INTER:                 -10.779
REMARK INTRA:                  -1.885
REMARK CONF_INDEPENDENT:        2.386
REMARK UNBOUND:                -1.885
REMARK  8 active torsions:
REMARK  status: ('A' for Active; 'I' for Inactive)
REMARK    1  A    between atoms: C_2  and  C_3 
REMARK       I    between atoms: C_3  and  N_5 
REMARK    2  A    between atoms: N_5  and  C_6 
REMARK    3  A    between atoms: C_10  and  N_11 
REMARK    4  A    between atoms: N_11  and  C_12 
REMARK    5  A    between atoms: C_12  and  C_13 
REMARK       I    between atoms: C_13  and  N_15 
REMARK    6  A    between atoms: N_15  and  C_16 
REMARK    7  A    between atoms: C_19  and  N_20 
REMARK       I    between atoms: N_20  and  C_21 
REMARK    8  A    between atoms: C_21  and  C_23 
ROOT
ATOM      1  C   UNL d   1      28.661 -14.162   4.793  0.00  0.00     0.239 C 
ATOM      2  O   UNL d   1      27.561 -14.661   5.019  0.00  0.00    -0.271 OA
ATOM      3  N   UNL d   1      29.148 -13.744   3.542  0.00  0.00    -0.326 N 
ATOM      4  H   UNL d   1      30.135 -13.551   3.413  0.00  0.00     0.169 HD
ENDROOT
BRANCH   3   5
ATOM      5  C   UNL d   1      28.337 -13.821   2.404  0.00  0.00     0.034 A 
ATOM      6  C   UNL d   1      27.081 -13.214   2.340  0.00  0.00     0.032 A 
ATOM      7  C   UNL d   1      26.321 -13.309   1.159  0.00  0.00     0.032 A 
ATOM      8  C   UNL d   1      26.851 -13.959   0.037  0.00  0.00     0.035 A 
ATOM      9  C   UNL d   1      28.132 -14.501   0.121  0.00  0.00     0.032 A 
ATOM     10  C   UNL d   1      28.827 -14.507   1.308  0.00  0.00     0.032 A 
BRANCH   8  11
ATOM     11  N   UNL d   1      26.100 -14.055  -1.158  0.00  0.00    -0.323 N 
ATOM     12  C   UNL d   1      25.828 -15.216  -1.871  0.00  0.00     0.256 C 
ATOM     13  O   UNL d   1      25.956 -15.228  -3.102  0.00  0.00    -0.267 OA
ATOM     14  H   UNL d   1      25.997 -13.205  -1.699  0.00  0.00     0.169 HD
BRANCH  12  15
ATOM     15  C   UNL d   1      25.277 -16.423  -1.164  0.00  0.00     0.032 C 
ATOM     16  C   UNL d   1      26.051 -17.120  -0.232  0.00  0.00     0.017 C 
ATOM     17  C   UNL d   1      25.502 -18.212   0.452  0.00  0.00     0.002 C 
ATOM     18  C   UNL d   1      24.164 -18.576   0.260  0.00  0.00     0.007 C 
ATOM     19  C   UNL d   1      23.380 -17.888  -0.660  0.00  0.00    -0.061 C 
ATOM     20  C   UNL d   1      21.915 -18.145  -0.840  0.00  0.00     0.048 C 
ATOM     21  C   UNL d   1      23.974 -16.880  -1.419  0.00  0.00     0.023 C 
ENDBRANCH  12  15
ENDBRANCH   8  11
ENDBRANCH   3   5
BRANCH   1  22
ATOM     22  C   UNL d   1      29.680 -14.004   5.880  0.00  0.00     0.223 C 
BRANCH  22  23
ATOM     23  N   UNL d   1      29.268 -14.451   7.196  0.00  0.00    -0.381 N 
ATOM     24  H   UNL d   1      28.528 -15.150   7.207  0.00  0.00     0.160 HD
BRANCH  23  25
ATOM     25  C   UNL d   1      29.799 -13.969   8.387  0.00  0.00     0.036 A 
ATOM     26  C   UNL d   1      30.667 -14.832   9.094  0.00  0.00     0.030 A 
ATOM     27  C   UNL d   1      31.289 -14.446  10.287  0.00  0.00     0.005 A 
ATOM     28  C   UNL d   1      31.064 -13.174  10.811  0.00  0.00     0.030 A 
ATOM     29  C   UNL d   1      30.190 -12.294  10.162  0.00  0.00     0.043 A 
ATOM     30  C   UNL d   1      29.563 -12.677   8.934  0.00  0.00    -0.009 A 
ATOM     31  C   UNL d   1      28.724 -11.620   8.265  0.00  0.00     0.053 C 
BRANCH  29  32
ATOM     32  N   UNL d   1      30.030 -10.981  10.706  0.00  0.00    -0.327 N 
ATOM     33  C   UNL d   1      30.758  -9.886  10.261  0.00  0.00     0.221 C 
ATOM     34  O   UNL d   1      31.444  -9.883   9.239  0.00  0.00    -0.273 OA
ATOM     35  H   UNL d   1      29.169 -10.795  11.206  0.00  0.00     0.169 HD
BRANCH  33  36
ATOM     36  C   UNL d   1      30.624  -8.615  11.077  0.00  0.00     0.098 C 
ATOM     37  C   UNL d   1      30.144  -7.480  10.168  0.00  0.00     0.014 C 
ENDBRANCH  33  36
ENDBRANCH  29  32
ENDBRANCH  23  25
ENDBRANCH  22  23
ENDBRANCH   1  22
TORSDOF 8
ENDMDL
MODEL 7
REMARK VINA RESULT:    -8.318      8.170     11.021
REMARK INTER + INTRA:         -12.457
REMARK INTER:                 -10.705
REMARK INTRA:                  -1.753
REMARK CONF_INDEPENDENT:        2.386
REMARK UNBOUND:                -1.753
REMARK  8 active torsions:
REMARK  status: ('A' for Active; 'I' for Inactive)
REMARK    1  A    between atoms: C_2  and  C_3 
REMARK       I    between atoms: C_3  and  N_5 
REMARK    2  A    between atoms: N_5  and  C_6 
REMARK    3  A    between atoms: C_10  and  N_11 
REMARK    4  A    between atoms: N_11  and  C_12 
REMARK    5  A    between atoms: C_12  and  C_13 
REMARK       I    between atoms: C_13  and  N_15 
REMARK    6  A    between atoms: N_15  and  C_16 
REMARK    7  A    between atoms: C_19  and  N_20 
REMARK       I    between atoms: N_20  and  C_21 
REMARK    8  A    between atoms: C_21  and  C_23 
ROOT
ATOM      1  C   UNL d   1      28.358 -14.505   4.690  0.00  0.00     0.239 C 
ATOM      2  O   UNL d   1      27.192 -14.824   4.914  0.00  0.00    -0.271 OA
ATOM      3  N   UNL d   1      28.917 -14.211   3.434  0.00  0.00    -0.326 N 
ATOM      4  H   UNL d   1      29.923 -14.174   3.315  0.00  0.00     0.169 HD
ENDROOT
BRANCH   3   5
ATOM      5  C   UNL d   1      28.117 -14.208   2.286  0.00  0.00     0.034 A 
ATOM      6  C   UNL d   1      27.092 -13.278   2.092  0.00  0.00     0.032 A 
ATOM      7  C   UNL d   1      26.336 -13.313   0.905  0.00  0.00     0.032 A 
ATOM      8  C   UNL d   1      26.652 -14.237  -0.099  0.00  0.00     0.035 A 
ATOM      9  C   UNL d   1      27.720 -15.109   0.106  0.00  0.00     0.032 A 
ATOM     10  C   UNL d   1      28.385 -15.151   1.310  0.00  0.00     0.032 A 
BRANCH   8  11
ATOM     11  N   UNL d   1      25.905 -14.277  -1.299  0.00  0.00    -0.323 N 
ATOM     12  C   UNL d   1      25.626 -15.405  -2.061  0.00  0.00     0.256 C 
ATOM     13  O   UNL d   1      25.758 -15.365  -3.291  0.00  0.00    -0.267 OA
ATOM     14  H   UNL d   1      25.809 -13.404  -1.804  0.00  0.00     0.169 HD
BRANCH  12  15
ATOM     15  C   UNL d   1      25.065 -16.637  -1.408  0.00  0.00     0.032 C 
ATOM     16  C   UNL d   1      25.874 -17.459  -0.620  0.00  0.00     0.017 C 
ATOM     17  C   UNL d   1      25.320 -18.575   0.021  0.00  0.00     0.002 C 
ATOM     18  C   UNL d   1      23.949 -18.840  -0.067  0.00  0.00     0.007 C 
ATOM     19  C   UNL d   1      23.130 -18.027  -0.843  0.00  0.00    -0.061 C 
ATOM     20  C   UNL d   1      21.640 -18.181  -0.897  0.00  0.00     0.048 C 
ATOM     21  C   UNL d   1      23.716 -16.991  -1.569  0.00  0.00     0.023 C 
ENDBRANCH  12  15
ENDBRANCH   8  11
ENDBRANCH   3   5
BRANCH   1  22
ATOM     22  C   UNL d   1      29.376 -14.461   5.788  0.00  0.00     0.223 C 
BRANCH  22  23
ATOM     23  N   UNL d   1      30.266 -13.316   5.773  0.00  0.00    -0.381 N 
ATOM     24  H   UNL d   1      31.234 -13.521   5.535  0.00  0.00     0.160 HD
BRANCH  23  25
ATOM     25  C   UNL d   1      29.876 -12.019   6.083  0.00  0.00     0.036 A 
ATOM     26  C   UNL d   1      29.351 -11.242   5.026  0.00  0.00     0.030 A 
ATOM     27  C   UNL d   1      28.893  -9.934   5.221  0.00  0.00     0.005 A 
ATOM     28  C   UNL d   1      28.943  -9.360   6.490  0.00  0.00     0.030 A 
ATOM     29  C   UNL d   1      29.481 -10.080   7.563  0.00  0.00     0.043 A 
ATOM     30  C   UNL d   1      29.936 -11.423   7.373  0.00  0.00    -0.009 A 
ATOM     31  C   UNL d   1      30.401 -12.143   8.612  0.00  0.00     0.053 C 
BRANCH  29  32
ATOM     32  N   UNL d   1      29.464  -9.472   8.858  0.00  0.00    -0.327 N 
ATOM     33  C   UNL d   1      29.990  -8.211   9.106  0.00  0.00     0.221 C 
ATOM     34  O   UNL d   1      30.325  -7.417   8.226  0.00  0.00    -0.273 OA
ATOM     35  H   UNL d   1      28.796  -9.836   9.526  0.00  0.00     0.169 HD
BRANCH  33  36
ATOM     36  C   UNL d   1      30.083  -7.798  10.562  0.00  0.00     0.098 C 
ATOM     37  C   UNL d   1      30.782  -8.905  11.356  0.00  0.00     0.014 C 
ENDBRANCH  33  36
ENDBRANCH  29  32
ENDBRANCH  23  25
ENDBRANCH  22  23
ENDBRANCH   1  22
TORSDOF 8
ENDMDL
MODEL 8
REMARK VINA RESULT:    -7.790      5.684      8.727
REMARK INTER + INTRA:         -12.513
REMARK INTER:                 -10.176
REMARK INTRA:                  -2.337
REMARK CONF_INDEPENDENT:        2.386
REMARK UNBOUND:                -2.337
REMARK  8 active torsions:
REMARK  status: ('A' for Active; 'I' for Inactive)
REMARK    1  A    between atoms: C_2  and  C_3 
REMARK       I    between atoms: C_3  and  N_5 
REMARK    2  A    between atoms: N_5  and  C_6 
REMARK    3  A    between atoms: C_10  and  N_11 
REMARK    4  A    between atoms: N_11  and  C_12 
REMARK    5  A    between atoms: C_12  and  C_13 
REMARK       I    between atoms: C_13  and  N_15 
REMARK    6  A    between atoms: N_15  and  C_16 
REMARK    7  A    between atoms: C_19  and  N_20 
REMARK       I    between atoms: N_20  and  C_21 
REMARK    8  A    between atoms: C_21  and  C_23 
ROOT
ATOM      1  C   UNL d   1      27.068 -10.504   2.805  0.00  0.00     0.239 C 
ATOM      2  O   UNL d   1      25.896 -10.262   2.527  0.00  0.00    -0.271 OA
ATOM      3  N   UNL d   1      27.914 -11.412   2.144  0.00  0.00    -0.326 N 
ATOM      4  H   UNL d   1      28.785 -11.708   2.570  0.00  0.00     0.169 HD
ENDROOT
BRANCH   3   5
ATOM      5  C   UNL d   1      27.464 -12.104   1.014  0.00  0.00     0.034 A 
ATOM      6  C   UNL d   1      26.887 -13.375   1.098  0.00  0.00     0.032 A 
ATOM      7  C   UNL d   1      26.434 -14.011  -0.074  0.00  0.00     0.032 A 
ATOM      8  C   UNL d   1      26.507 -13.347  -1.304  0.00  0.00     0.035 A 
ATOM      9  C   UNL d   1      27.033 -12.057  -1.337  0.00  0.00     0.032 A 
ATOM     10  C   UNL d   1      27.580 -11.480  -0.214  0.00  0.00     0.032 A 
BRANCH   8  11
ATOM     11  N   UNL d   1      26.048 -13.973  -2.487  0.00  0.00    -0.323 N 
ATOM     12  C   UNL d   1      26.171 -15.319  -2.810  0.00  0.00     0.256 C 
ATOM     13  O   UNL d   1      26.544 -15.649  -3.942  0.00  0.00    -0.267 OA
ATOM     14  H   UNL d   1      25.882 -13.370  -3.284  0.00  0.00     0.169 HD
BRANCH  12  15
ATOM     15  C   UNL d   1      25.751 -16.372  -1.823  0.00  0.00     0.032 C 
ATOM     16  C   UNL d   1      26.701 -17.046  -1.051  0.00  0.00     0.017 C 
ATOM     17  C   UNL d   1      26.285 -17.989  -0.102  0.00  0.00     0.002 C 
ATOM     18  C   UNL d   1      24.924 -18.218   0.128  0.00  0.00     0.007 C 
ATOM     19  C   UNL d   1      23.967 -17.550  -0.628  0.00  0.00    -0.061 C 
ATOM     20  C   UNL d   1      22.496 -17.658  -0.365  0.00  0.00     0.048 C 
ATOM     21  C   UNL d   1      24.398 -16.703  -1.649  0.00  0.00     0.023 C 
ENDBRANCH  12  15
ENDBRANCH   8  11
ENDBRANCH   3   5
BRANCH   1  22
ATOM     22  C   UNL d   1      27.732  -9.870   3.989  0.00  0.00     0.223 C 
BRANCH  22  23
ATOM     23  N   UNL d   1      27.936 -10.737   5.134  0.00  0.00    -0.381 N 
ATOM     24  H   UNL d   1      27.776 -10.306   6.041  0.00  0.00     0.160 HD
BRANCH  23  25
ATOM     25  C   UNL d   1      28.347 -12.062   5.047  0.00  0.00     0.036 A 
ATOM     26  C   UNL d   1      27.455 -13.040   5.544  0.00  0.00     0.030 A 
ATOM     27  C   UNL d   1      27.743 -14.408   5.482  0.00  0.00     0.005 A 
ATOM     28  C   UNL d   1      28.937 -14.845   4.911  0.00  0.00     0.030 A 
ATOM     29  C   UNL d   1      29.864 -13.913   4.431  0.00  0.00     0.043 A 
ATOM     30  C   UNL d   1      29.570 -12.513   4.478  0.00  0.00    -0.009 A 
ATOM     31  C   UNL d   1      30.589 -11.604   3.842  0.00  0.00     0.053 C 
BRANCH  29  32
ATOM     32  N   UNL d   1      31.053 -14.407   3.806  0.00  0.00    -0.327 N 
ATOM     33  C   UNL d   1      31.187 -14.528   2.429  0.00  0.00     0.221 C 
ATOM     34  O   UNL d   1      30.404 -14.040   1.614  0.00  0.00    -0.273 OA
ATOM     35  H   UNL d   1      31.903 -14.380   4.355  0.00  0.00     0.169 HD
BRANCH  33  36
ATOM     36  C   UNL d   1      32.421 -15.259   1.938  0.00  0.00     0.098 C 
ATOM     37  C   UNL d   1      31.998 -16.369   0.971  0.00  0.00     0.014 C 
ENDBRANCH  33  36
ENDBRANCH  29  32
ENDBRANCH  23  25
ENDBRANCH  22  23
ENDBRANCH   1  22
TORSDOF 8
ENDMDL
