MODEL 1
REMARK VINA RESULT:   -25.433      0.000      0.000
REMARK INTER + INTRA:         -30.416
REMARK INTER:                 -29.012
REMARK INTRA:                  -1.404
REMARK CONF_INDEPENDENT:        3.580
REMARK UNBOUND:                -1.404
REMARK  12 active torsions:
REMARK  status: ('A' for Active; 'I' for Inactive)
REMARK    1  A    between atoms: C_2  and  O_3 
REMARK    2  A    between atoms: O_3  and  C_4 
REMARK    3  A    between atoms: C_4  and  C_6 
REMARK    4  A    between atoms: C_6  and  C_7 
REMARK    5  A    between atoms: C_7  and  N_8 
REMARK       I    between atoms: N_8  and  C_9 
REMARK    6  A    between atoms: N_8  and  C_32 
REMARK    7  A    between atoms: C_9  and  C_11 
REMARK    8  A    between atoms: C_18  and  C_19 
REMARK    9  A    between atoms: C_19  and  N_20 
REMARK   10  A    between atoms: N_20  and  C_21 
REMARK   11  A    between atoms: C_24  and  C_25 
REMARK   12  A    between atoms: C_25  and  N_26 
ROOT
ATOM      1  C   UNL d   1      26.096 -16.013  -0.163  0.00  0.00     0.035 C 
ATOM      2  C   UNL d   1      26.184 -17.315   0.335  0.00  0.00     0.019 C 
ATOM      3  C   UNL d   1      25.209 -18.268   0.011  0.00  0.00     0.033 C 
ATOM      4  C   UNL d   1      24.005 -17.788  -0.494  0.00  0.00     0.064 C 
ATOM      5  C   UNL d   1      23.785 -16.451  -0.769  0.00  0.00     0.086 C 
ATOM      6  C   UNL d   1      24.856 -15.541  -0.649  0.00  0.00     0.051 C 
ATOM      7  N   UNL d   1      22.483 -16.274  -1.157  0.00  0.00    -0.232 NA
ATOM      8  C   UNL d   1      21.889 -17.460  -1.075  0.00  0.00     0.120 C 
ATOM      9  N   UNL d   1      22.818 -18.438  -0.770  0.00  0.00    -0.337 N 
ATOM     10  C   UNL d   1      22.748 -19.868  -0.572  0.00  0.00     0.158 C 
ENDROOT
BRANCH   1  11
ATOM     11  C   UNL d   1      27.311 -15.131  -0.254  0.00  0.00     0.259 C 
ATOM     12  N   UNL d   1      28.126 -15.064  -1.432  0.00  0.00    -0.298 N 
ATOM     13  O   UNL d   1      27.449 -14.399   0.727  0.00  0.00    -0.267 OA
BRANCH  12  14
ATOM     14  C   UNL d   1      27.949 -15.758  -2.762  0.00  0.00     0.144 C 
BRANCH  14  15
ATOM     15  C   UNL d   1      26.552 -15.850  -3.309  0.00  0.00     0.131 C 
BRANCH  15  16
ATOM     16  C   UNL d   1      26.177 -15.253  -4.611  0.00  0.00     0.260 C 
ATOM     17  O   UNL d   1      26.848 -15.317  -5.641  0.00  0.00    -0.265 OA
BRANCH  16  18
ATOM     18  O   UNL d   1      24.899 -14.755  -4.514  0.00  0.00    -0.322 OA
BRANCH  18  19
ATOM     19  C   UNL d   1      24.856 -13.364  -4.205  0.00  0.00     0.174 C 
ATOM     20  C   UNL d   1      25.739 -13.031  -3.014  0.00  0.00     0.034 C 
ENDBRANCH  18  19
ENDBRANCH  16  18
ENDBRANCH  15  16
ENDBRANCH  14  15
ENDBRANCH  12  14
BRANCH  12  21
ATOM     21  C   UNL d   1      29.342 -14.264  -1.353  0.00  0.00     0.132 A 
ATOM     22  C   UNL d   1      30.071 -14.190  -0.157  0.00  0.00     0.051 A 
ATOM     23  C   UNL d   1      31.240 -13.425  -0.081  0.00  0.00     0.005 A 
ATOM     24  C   UNL d   1      31.662 -12.723  -1.195  0.00  0.00     0.019 A 
ATOM     25  C   UNL d   1      30.889 -12.822  -2.337  0.00  0.00     0.119 A 
ATOM     26  N   UNL d   1      29.753 -13.564  -2.435  0.00  0.00    -0.243 NA
ENDBRANCH  12  21
ENDBRANCH   1  11
BRANCH   8  27
ATOM     27  C   UNL d   1      20.403 -17.628  -1.270  0.00  0.00     0.171 C 
BRANCH  27  28
ATOM     28  N   UNL d   1      19.888 -18.945  -0.926  0.00  0.00    -0.286 NA
ATOM     29  H   UNL d   1      18.944 -19.009  -1.270  0.00  0.00     0.128 HD
BRANCH  28  30
ATOM     30  C   UNL d   1      19.770 -19.408   0.370  0.00  0.00     0.008 C 
ATOM     31  C   UNL d   1      20.749 -18.954   1.255  0.00  0.00     0.024 C 
ATOM     32  C   UNL d   1      20.830 -19.438   2.552  0.00  0.00     0.017 C 
ATOM     33  C   UNL d   1      19.889 -20.360   3.025  0.00  0.00     0.007 C 
ATOM     34  C   UNL d   1      18.980 -20.896   2.087  0.00  0.00     0.017 C 
ATOM     35  C   UNL d   1      18.938 -20.440   0.768  0.00  0.00     0.024 C 
BRANCH  33  36
ATOM     36  C   UNL d   1      19.814 -20.699   4.465  0.00  0.00     0.102 C 
ATOM     37  N   UNL d   1      20.053 -19.780   5.376  0.00  0.00    -0.385 N 
ATOM     38  H   UNL d   1      20.289 -18.830   5.117  0.00  0.00     0.157 HD
ATOM     39  H   UNL d   1      20.044 -19.978   6.364  0.00  0.00     0.157 HD
BRANCH  36  40
ATOM     40  N   UNL d   1      19.561 -21.931   4.861  0.00  0.00    -0.385 N 
ATOM     41  H   UNL d   1      19.808 -22.259   5.785  0.00  0.00     0.157 HD
ATOM     42  H   UNL d   1      19.075 -22.598   4.278  0.00  0.00     0.157 HD
ENDBRANCH  36  40
ENDBRANCH  33  36
ENDBRANCH  28  30
ENDBRANCH  27  28
ENDBRANCH   8  27
TORSDOF 12
ENDMDL
MODEL 2
REMARK VINA RESULT:   -25.013      1.852      2.570
REMARK INTER + INTRA:         -30.436
REMARK INTER:                 -28.593
REMARK INTRA:                  -1.843
REMARK CONF_INDEPENDENT:        3.580
REMARK UNBOUND:                -1.843
REMARK  12 active torsions:
REMARK  status: ('A' for Active; 'I' for Inactive)
REMARK    1  A    between atoms: C_2  and  O_3 
REMARK    2  A    between atoms: O_3  and  C_4 
REMARK    3  A    between atoms: C_4  and  C_6 
REMARK    4  A    between atoms: C_6  and  C_7 
REMARK    5  A    between atoms: C_7  and  N_8 
REMARK       I    between atoms: N_8  and  C_9 
REMARK    6  A    between atoms: N_8  and  C_32 
REMARK    7  A    between atoms: C_9  and  C_11 
REMARK    8  A    between atoms: C_18  and  C_19 
REMARK    9  A    between atoms: C_19  and  N_20 
REMARK   10  A    between atoms: N_20  and  C_21 
REMARK   11  A    between atoms: C_24  and  C_25 
REMARK   12  A    between atoms: C_25  and  N_26 
ROOT
ATOM      1  C   UNL d   1      26.429 -16.979  -0.736  0.00  0.00     0.035 C 
ATOM      2  C   UNL d   1      25.770 -15.777  -1.007  0.00  0.00     0.019 C 
ATOM      3  C   UNL d   1      24.370 -15.714  -0.992  0.00  0.00     0.033 C 
ATOM      4  C   UNL d   1      23.687 -16.922  -1.068  0.00  0.00     0.064 C 
ATOM      5  C   UNL d   1      24.325 -18.150  -1.057  0.00  0.00     0.086 C 
ATOM      6  C   UNL d   1      25.719 -18.195  -0.842  0.00  0.00     0.051 C 
ATOM      7  N   UNL d   1      23.402 -19.145  -1.243  0.00  0.00    -0.232 NA
ATOM      8  C   UNL d   1      22.225 -18.554  -1.420  0.00  0.00     0.120 C 
ATOM      9  N   UNL d   1      22.340 -17.191  -1.215  0.00  0.00    -0.337 N 
ATOM     10  C   UNL d   1      21.412 -16.083  -1.262  0.00  0.00     0.158 C 
ENDROOT
BRANCH   1  11
ATOM     11  C   UNL d   1      27.858 -16.994  -0.269  0.00  0.00     0.259 C 
ATOM     12  N   UNL d   1      28.966 -16.964  -1.179  0.00  0.00    -0.298 N 
ATOM     13  O   UNL d   1      27.965 -16.910   0.956  0.00  0.00    -0.267 OA
BRANCH  12  14
ATOM     14  C   UNL d   1      28.966 -16.868  -2.687  0.00  0.00     0.144 C 
BRANCH  14  15
ATOM     15  C   UNL d   1      29.243 -15.519  -3.289  0.00  0.00     0.131 C 
BRANCH  15  16
ATOM     16  C   UNL d   1      28.649 -15.097  -4.578  0.00  0.00     0.260 C 
ATOM     17  O   UNL d   1      28.891 -15.608  -5.672  0.00  0.00    -0.265 OA
BRANCH  16  18
ATOM     18  O   UNL d   1      27.680 -14.154  -4.328  0.00  0.00    -0.322 OA
BRANCH  18  19
ATOM     19  C   UNL d   1      26.383 -14.547  -4.770  0.00  0.00     0.174 C 
ATOM     20  C   UNL d   1      25.379 -13.416  -4.621  0.00  0.00     0.034 C 
ENDBRANCH  18  19
ENDBRANCH  16  18
ENDBRANCH  15  16
ENDBRANCH  14  15
ENDBRANCH  12  14
BRANCH  12  21
ATOM     21  C   UNL d   1      30.299 -17.105  -0.607  0.00  0.00     0.132 A 
ATOM     22  C   UNL d   1      30.909 -16.029   0.056  0.00  0.00     0.051 A 
ATOM     23  C   UNL d   1      32.187 -16.165   0.608  0.00  0.00     0.005 A 
ATOM     24  C   UNL d   1      32.856 -17.368   0.477  0.00  0.00     0.019 A 
ATOM     25  C   UNL d   1      32.209 -18.382  -0.205  0.00  0.00     0.119 A 
ATOM     26  N   UNL d   1      30.965 -18.274  -0.744  0.00  0.00    -0.243 NA
ENDBRANCH  12  21
ENDBRANCH   1  11
BRANCH   8  27
ATOM     27  C   UNL d   1      20.991 -19.326  -1.816  0.00  0.00     0.171 C 
BRANCH  27  28
ATOM     28  N   UNL d   1      19.871 -19.202  -0.895  0.00  0.00    -0.286 NA
ATOM     29  H   UNL d   1      19.620 -18.228  -0.843  0.00  0.00     0.128 HD
BRANCH  28  30
ATOM     30  C   UNL d   1      19.927 -19.572   0.434  0.00  0.00     0.008 C 
ATOM     31  C   UNL d   1      18.901 -20.415   0.860  0.00  0.00     0.024 C 
ATOM     32  C   UNL d   1      18.758 -20.762   2.196  0.00  0.00     0.017 C 
ATOM     33  C   UNL d   1      19.683 -20.313   3.147  0.00  0.00     0.007 C 
ATOM     34  C   UNL d   1      20.643 -19.370   2.722  0.00  0.00     0.017 C 
ATOM     35  C   UNL d   1      20.748 -18.987   1.383  0.00  0.00     0.024 C 
BRANCH  33  36
ATOM     36  C   UNL d   1      19.688 -20.866   4.521  0.00  0.00     0.102 C 
ATOM     37  N   UNL d   1      19.906 -20.077   5.552  0.00  0.00    -0.385 N 
ATOM     38  H   UNL d   1      20.070 -19.086   5.432  0.00  0.00     0.157 HD
ATOM     39  H   UNL d   1      19.949 -20.420   6.500  0.00  0.00     0.157 HD
BRANCH  36  40
ATOM     40  N   UNL d   1      19.530 -22.157   4.735  0.00  0.00    -0.385 N 
ATOM     41  H   UNL d   1      19.251 -22.793   3.999  0.00  0.00     0.157 HD
ATOM     42  H   UNL d   1      19.714 -22.584   5.632  0.00  0.00     0.157 HD
ENDBRANCH  36  40
ENDBRANCH  33  36
ENDBRANCH  28  30
ENDBRANCH  27  28
ENDBRANCH   8  27
TORSDOF 12
ENDMDL
MODEL 3
REMARK VINA RESULT:   -24.604      2.562      3.523
REMARK INTER + INTRA:         -29.900
REMARK INTER:                 -28.183
REMARK INTRA:                  -1.717
REMARK CONF_INDEPENDENT:        3.580
REMARK UNBOUND:                -1.717
REMARK  12 active torsions:
REMARK  status: ('A' for Active; 'I' for Inactive)
REMARK    1  A    between atoms: C_2  and  O_3 
REMARK    2  A    between atoms: O_3  and  C_4 
REMARK    3  A    between atoms: C_4  and  C_6 
REMARK    4  A    between atoms: C_6  and  C_7 
REMARK    5  A    between atoms: C_7  and  N_8 
REMARK       I    between atoms: N_8  and  C_9 
REMARK    6  A    between atoms: N_8  and  C_32 
REMARK    7  A    between atoms: C_9  and  C_11 
REMARK    8  A    between atoms: C_18  and  C_19 
REMARK    9  A    between atoms: C_19  and  N_20 
REMARK   10  A    between atoms: N_20  and  C_21 
REMARK   11  A    between atoms: C_24  and  C_25 
REMARK   12  A    between atoms: C_25  and  N_26 
ROOT
ATOM      1  C   UNL d   1      26.442 -16.953  -0.722  0.00  0.00     0.035 C 
ATOM      2  C   UNL d   1      25.780 -15.755  -1.000  0.00  0.00     0.019 C 
ATOM      3  C   UNL d   1      24.380 -15.696  -0.991  0.00  0.00     0.033 C 
ATOM      4  C   UNL d   1      23.701 -16.907  -1.064  0.00  0.00     0.064 C 
ATOM      5  C   UNL d   1      24.343 -18.132  -1.045  0.00  0.00     0.086 C 
ATOM      6  C   UNL d   1      25.736 -18.173  -0.825  0.00  0.00     0.051 C 
ATOM      7  N   UNL d   1      23.424 -19.132  -1.230  0.00  0.00    -0.232 NA
ATOM      8  C   UNL d   1      22.246 -18.546  -1.414  0.00  0.00     0.120 C 
ATOM      9  N   UNL d   1      22.356 -17.181  -1.215  0.00  0.00    -0.337 N 
ATOM     10  C   UNL d   1      21.425 -16.077  -1.270  0.00  0.00     0.158 C 
ENDROOT
BRANCH   1  11
ATOM     11  C   UNL d   1      27.870 -16.962  -0.249  0.00  0.00     0.259 C 
ATOM     12  N   UNL d   1      28.980 -16.879  -1.153  0.00  0.00    -0.298 N 
ATOM     13  O   UNL d   1      27.970 -16.922   0.979  0.00  0.00    -0.267 OA
BRANCH  12  14
ATOM     14  C   UNL d   1      28.984 -16.726  -2.656  0.00  0.00     0.144 C 
BRANCH  14  15
ATOM     15  C   UNL d   1      30.279 -16.320  -3.302  0.00  0.00     0.131 C 
BRANCH  15  16
ATOM     16  C   UNL d   1      30.965 -17.178  -4.295  0.00  0.00     0.260 C 
ATOM     17  O   UNL d   1      32.089 -17.661  -4.158  0.00  0.00    -0.265 OA
BRANCH  16  18
ATOM     18  O   UNL d   1      30.084 -17.465  -5.310  0.00  0.00    -0.322 OA
BRANCH  18  19
ATOM     19  C   UNL d   1      30.590 -18.415  -6.246  0.00  0.00     0.174 C 
ATOM     20  C   UNL d   1      30.617 -19.815  -5.658  0.00  0.00     0.034 C 
ENDBRANCH  18  19
ENDBRANCH  16  18
ENDBRANCH  15  16
ENDBRANCH  14  15
ENDBRANCH  12  14
BRANCH  12  21
ATOM     21  C   UNL d   1      30.313 -17.018  -0.580  0.00  0.00     0.132 A 
ATOM     22  C   UNL d   1      30.927 -18.277  -0.496  0.00  0.00     0.051 A 
ATOM     23  C   UNL d   1      32.208 -18.410   0.050  0.00  0.00     0.005 A 
ATOM     24  C   UNL d   1      32.859 -17.288   0.528  0.00  0.00     0.019 A 
ATOM     25  C   UNL d   1      32.192 -16.080   0.434  0.00  0.00     0.119 A 
ATOM     26  N   UNL d   1      30.950 -15.927  -0.098  0.00  0.00    -0.243 NA
ENDBRANCH  12  21
ENDBRANCH   1  11
BRANCH   8  27
ATOM     27  C   UNL d   1      21.016 -19.324  -1.812  0.00  0.00     0.171 C 
BRANCH  27  28
ATOM     28  N   UNL d   1      19.893 -19.199  -0.895  0.00  0.00    -0.286 NA
ATOM     29  H   UNL d   1      19.641 -18.225  -0.844  0.00  0.00     0.128 HD
BRANCH  28  30
ATOM     30  C   UNL d   1      19.943 -19.569   0.434  0.00  0.00     0.008 C 
ATOM     31  C   UNL d   1      18.924 -20.424   0.853  0.00  0.00     0.024 C 
ATOM     32  C   UNL d   1      18.775 -20.772   2.187  0.00  0.00     0.017 C 
ATOM     33  C   UNL d   1      19.688 -20.313   3.145  0.00  0.00     0.007 C 
ATOM     34  C   UNL d   1      20.640 -19.359   2.727  0.00  0.00     0.017 C 
ATOM     35  C   UNL d   1      20.750 -18.974   1.390  0.00  0.00     0.024 C 
BRANCH  33  36
ATOM     36  C   UNL d   1      19.689 -20.866   4.519  0.00  0.00     0.102 C 
ATOM     37  N   UNL d   1      19.906 -20.077   5.551  0.00  0.00    -0.385 N 
ATOM     38  H   UNL d   1      20.071 -19.086   5.432  0.00  0.00     0.157 HD
ATOM     39  H   UNL d   1      19.947 -20.420   6.499  0.00  0.00     0.157 HD
BRANCH  36  40
ATOM     40  N   UNL d   1      19.529 -22.157   4.733  0.00  0.00    -0.385 N 
ATOM     41  H   UNL d   1      19.177 -22.780   4.018  0.00  0.00     0.157 HD
ATOM     42  H   UNL d   1      19.784 -22.597   5.606  0.00  0.00     0.157 HD
ENDBRANCH  36  40
ENDBRANCH  33  36
ENDBRANCH  28  30
ENDBRANCH  27  28
ENDBRANCH   8  27
TORSDOF 12
ENDMDL
MODEL 4
REMARK VINA RESULT:   -23.935      2.253      4.099
REMARK INTER + INTRA:         -28.718
REMARK INTER:                 -27.515
REMARK INTRA:                  -1.203
REMARK CONF_INDEPENDENT:        3.580
REMARK UNBOUND:                -1.203
REMARK  12 active torsions:
REMARK  status: ('A' for Active; 'I' for Inactive)
REMARK    1  A    between atoms: C_2  and  O_3 
REMARK    2  A    between atoms: O_3  and  C_4 
REMARK    3  A    between atoms: C_4  and  C_6 
REMARK    4  A    between atoms: C_6  and  C_7 
REMARK    5  A    between atoms: C_7  and  N_8 
REMARK       I    between atoms: N_8  and  C_9 
REMARK    6  A    between atoms: N_8  and  C_32 
REMARK    7  A    between atoms: C_9  and  C_11 
REMARK    8  A    between atoms: C_18  and  C_19 
REMARK    9  A    between atoms: C_19  and  N_20 
REMARK   10  A    between atoms: N_20  and  C_21 
REMARK   11  A    between atoms: C_24  and  C_25 
REMARK   12  A    between atoms: C_25  and  N_26 
ROOT
ATOM      1  C   UNL d   1      26.044 -15.982  -0.252  0.00  0.00     0.035 C 
ATOM      2  C   UNL d   1      26.139 -17.229   0.372  0.00  0.00     0.019 C 
ATOM      3  C   UNL d   1      25.180 -18.221   0.129  0.00  0.00     0.033 C 
ATOM      4  C   UNL d   1      23.978 -17.807  -0.435  0.00  0.00     0.064 C 
ATOM      5  C   UNL d   1      23.747 -16.506  -0.843  0.00  0.00     0.086 C 
ATOM      6  C   UNL d   1      24.806 -15.575  -0.798  0.00  0.00     0.051 C 
ATOM      7  N   UNL d   1      22.448 -16.384  -1.263  0.00  0.00    -0.232 NA
ATOM      8  C   UNL d   1      21.867 -17.564  -1.073  0.00  0.00     0.120 C 
ATOM      9  N   UNL d   1      22.803 -18.496  -0.662  0.00  0.00    -0.337 N 
ATOM     10  C   UNL d   1      22.745 -19.901  -0.326  0.00  0.00     0.158 C 
ENDROOT
BRANCH   1  11
ATOM     11  C   UNL d   1      27.250 -15.098  -0.413  0.00  0.00     0.259 C 
ATOM     12  N   UNL d   1      28.037 -14.660   0.702  0.00  0.00    -0.298 N 
ATOM     13  O   UNL d   1      27.550 -14.904  -1.593  0.00  0.00    -0.267 OA
BRANCH  12  14
ATOM     14  C   UNL d   1      27.890 -14.991   2.169  0.00  0.00     0.144 C 
BRANCH  14  15
ATOM     15  C   UNL d   1      27.138 -14.008   3.023  0.00  0.00     0.131 C 
BRANCH  15  16
ATOM     16  C   UNL d   1      27.822 -12.914   3.749  0.00  0.00     0.260 C 
ATOM     17  O   UNL d   1      27.405 -11.760   3.848  0.00  0.00    -0.265 OA
BRANCH  16  18
ATOM     18  O   UNL d   1      28.906 -13.437   4.412  0.00  0.00    -0.322 OA
BRANCH  18  19
ATOM     19  C   UNL d   1      28.844 -13.259   5.826  0.00  0.00     0.174 C 
ATOM     20  C   UNL d   1      29.811 -14.183   6.546  0.00  0.00     0.034 C 
ENDBRANCH  18  19
ENDBRANCH  16  18
ENDBRANCH  15  16
ENDBRANCH  14  15
ENDBRANCH  12  14
BRANCH  12  21
ATOM     21  C   UNL d   1      29.108 -13.711   0.426  0.00  0.00     0.132 A 
ATOM     22  C   UNL d   1      30.360 -14.156  -0.023  0.00  0.00     0.051 A 
ATOM     23  C   UNL d   1      31.387 -13.245  -0.292  0.00  0.00     0.005 A 
ATOM     24  C   UNL d   1      31.163 -11.896  -0.089  0.00  0.00     0.019 A 
ATOM     25  C   UNL d   1      29.915 -11.523   0.375  0.00  0.00     0.119 A 
ATOM     26  N   UNL d   1      28.901 -12.391   0.636  0.00  0.00    -0.243 NA
ENDBRANCH  12  21
ENDBRANCH   1  11
BRANCH   8  27
ATOM     27  C   UNL d   1      20.385 -17.769  -1.270  0.00  0.00     0.171 C 
BRANCH  27  28
ATOM     28  N   UNL d   1      19.903 -19.099  -0.926  0.00  0.00    -0.286 NA
ATOM     29  H   UNL d   1      18.963 -19.187  -1.276  0.00  0.00     0.128 HD
BRANCH  28  30
ATOM     30  C   UNL d   1      19.790 -19.561   0.371  0.00  0.00     0.008 C 
ATOM     31  C   UNL d   1      20.636 -18.950   1.296  0.00  0.00     0.024 C 
ATOM     32  C   UNL d   1      20.722 -19.403   2.604  0.00  0.00     0.017 C 
ATOM     33  C   UNL d   1      19.912 -20.457   3.044  0.00  0.00     0.007 C 
ATOM     34  C   UNL d   1      19.151 -21.138   2.071  0.00  0.00     0.017 C 
ATOM     35  C   UNL d   1      19.109 -20.708   0.743  0.00  0.00     0.024 C 
BRANCH  33  36
ATOM     36  C   UNL d   1      19.814 -20.790   4.484  0.00  0.00     0.102 C 
ATOM     37  N   UNL d   1      19.530 -22.018   4.863  0.00  0.00    -0.385 N 
ATOM     38  H   UNL d   1      19.377 -22.756   4.189  0.00  0.00     0.157 HD
ATOM     39  H   UNL d   1      19.422 -22.277   5.832  0.00  0.00     0.157 HD
BRANCH  36  40
ATOM     40  N   UNL d   1      19.954 -19.859   5.408  0.00  0.00    -0.385 N 
ATOM     41  H   UNL d   1      19.777 -20.043   6.387  0.00  0.00     0.157 HD
ATOM     42  H   UNL d   1      20.280 -18.928   5.192  0.00  0.00     0.157 HD
ENDBRANCH  36  40
ENDBRANCH  33  36
ENDBRANCH  28  30
ENDBRANCH  27  28
ENDBRANCH   8  27
TORSDOF 12
ENDMDL
