MODEL 1
REMARK VINA RESULT:    -7.585      0.000      0.000
REMARK INTER + INTRA:         -12.399
REMARK INTER:                  -9.971
REMARK INTRA:                  -2.427
REMARK CONF_INDEPENDENT:        2.386
REMARK UNBOUND:                -2.427
REMARK  8 active torsions:
REMARK  status: ('A' for Active; 'I' for Inactive)
REMARK    1  A    between atoms: C_5  and  C_6 
REMARK       I    between atoms: C_6  and  N_8 
REMARK    2  A    between atoms: N_8  and  N_9 
REMARK       I    between atoms: N_9  and  C_10 
REMARK    3  A    between atoms: C_10  and  C_12 
REMARK    4  A    between atoms: C_12  and  O_14 
REMARK    5  A    between atoms: O_14  and  C_15 
REMARK    6  A    between atoms: C_15  and  C_16 
REMARK    7  A    between atoms: C_16  and  C_17 
REMARK    8  A    between atoms: C_20  and  O_21 
ROOT
ATOM      1  C   UNL d   1      21.924 -18.234  -0.316  0.00  0.00     0.272 C 
ATOM      2  O   UNL d   1      21.618 -17.286  -1.050  0.00  0.00    -0.266 OA
ATOM      3  N   UNL d   1      23.243 -18.502   0.026  0.00  0.00    -0.263 N 
ATOM      4  H   UNL d   1      23.550 -19.264   0.627  0.00  0.00     0.190 HD
ENDROOT
BRANCH   3   5
ATOM      5  N   UNL d   1      24.293 -17.687  -0.467  0.00  0.00    -0.265 N 
ATOM      6  C   UNL d   1      25.539 -17.776   0.148  0.00  0.00     0.264 C 
ATOM      7  O   UNL d   1      25.726 -18.575   1.071  0.00  0.00    -0.269 OA
ATOM      8  H   UNL d   1      24.065 -17.057  -1.234  0.00  0.00     0.190 HD
BRANCH   6   9
ATOM      9  C   UNL d   1      26.646 -16.838  -0.417  0.00  0.00     0.210 C 
ATOM     10  C   UNL d   1      27.973 -17.597  -0.520  0.00  0.00     0.050 C 
BRANCH   9  11
ATOM     11  O   UNL d   1      26.256 -16.309  -1.699  0.00  0.00    -0.377 OA
BRANCH  11  12
ATOM     12  C   UNL d   1      26.131 -14.891  -1.704  0.00  0.00     0.169 C 
BRANCH  12  13
ATOM     13  C   UNL d   1      27.004 -14.248  -2.772  0.00  0.00     0.030 C 
BRANCH  13  14
ATOM     14  C   UNL d   1      26.258 -14.180  -4.119  0.00  0.00    -0.021 C 
ATOM     15  C   UNL d   1      25.906 -15.573  -4.656  0.00  0.00     0.009 C 
ATOM     16  C   UNL d   1      24.980 -13.361  -3.968  0.00  0.00     0.009 C 
ENDBRANCH  13  14
ENDBRANCH  12  13
ENDBRANCH  11  12
ENDBRANCH   9  11
ENDBRANCH   6   9
ENDBRANCH   3   5
BRANCH   1  17
ATOM     17  C   UNL d   1      20.836 -19.125   0.228  0.00  0.00     0.066 A 
ATOM     18  C   UNL d   1      20.663 -19.334   1.606  0.00  0.00     0.020 A 
ATOM     19  C   UNL d   1      19.632 -20.158   2.095  0.00  0.00     0.008 A 
ATOM     20  C   UNL d   1      18.741 -20.785   1.220  0.00  0.00    -0.059 A 
ATOM     21  C   UNL d   1      17.617 -21.650   1.712  0.00  0.00     0.048 C 
ATOM     22  C   UNL d   1      18.910 -20.592  -0.153  0.00  0.00     0.044 A 
ATOM     23  C   UNL d   1      19.943 -19.782  -0.642  0.00  0.00     0.082 A 
BRANCH  23  24
ATOM     24  O   UNL d   1      20.003 -19.696  -2.010  0.00  0.00    -0.360 OA
ATOM     25  H   UNL d   1      20.282 -18.787  -2.250  0.00  0.00     0.217 HD
ENDBRANCH  23  24
ENDBRANCH   1  17
TORSDOF 8
ENDMDL
MODEL 2
REMARK VINA RESULT:    -6.805      2.492      8.941
REMARK INTER + INTRA:         -11.537
REMARK INTER:                  -9.192
REMARK INTRA:                  -2.346
REMARK CONF_INDEPENDENT:        2.386
REMARK UNBOUND:                -2.346
REMARK  8 active torsions:
REMARK  status: ('A' for Active; 'I' for Inactive)
REMARK    1  A    between atoms: C_5  and  C_6 
REMARK       I    between atoms: C_6  and  N_8 
REMARK    2  A    between atoms: N_8  and  N_9 
REMARK       I    between atoms: N_9  and  C_10 
REMARK    3  A    between atoms: C_10  and  C_12 
REMARK    4  A    between atoms: C_12  and  O_14 
REMARK    5  A    between atoms: O_14  and  C_15 
REMARK    6  A    between atoms: C_15  and  C_16 
REMARK    7  A    between atoms: C_16  and  C_17 
REMARK    8  A    between atoms: C_20  and  O_21 
ROOT
ATOM      1  C   UNL d   1      25.520 -14.413  -3.885  0.00  0.00     0.272 C 
ATOM      2  O   UNL d   1      24.333 -14.162  -3.643  0.00  0.00    -0.266 OA
ATOM      3  N   UNL d   1      26.180 -15.483  -3.294  0.00  0.00    -0.263 N 
ATOM      4  H   UNL d   1      27.151 -15.737  -3.459  0.00  0.00     0.190 HD
ENDROOT
BRANCH   3   5
ATOM      5  N   UNL d   1      25.503 -16.328  -2.379  0.00  0.00    -0.265 N 
ATOM      6  C   UNL d   1      26.265 -17.077  -1.487  0.00  0.00     0.264 C 
ATOM      7  O   UNL d   1      27.495 -16.971  -1.472  0.00  0.00    -0.269 OA
ATOM      8  H   UNL d   1      24.487 -16.359  -2.447  0.00  0.00     0.190 HD
BRANCH   6   9
ATOM      9  C   UNL d   1      25.469 -18.008  -0.525  0.00  0.00     0.210 C 
ATOM     10  C   UNL d   1      26.162 -18.064   0.841  0.00  0.00     0.050 C 
BRANCH   9  11
ATOM     11  O   UNL d   1      24.108 -17.555  -0.393  0.00  0.00    -0.377 OA
BRANCH  11  12
ATOM     12  C   UNL d   1      23.201 -18.601  -0.063  0.00  0.00     0.169 C 
BRANCH  12  13
ATOM     13  C   UNL d   1      21.779 -18.279  -0.499  0.00  0.00     0.030 C 
BRANCH  13  14
ATOM     14  C   UNL d   1      20.811 -19.399  -0.072  0.00  0.00    -0.021 C 
ATOM     15  C   UNL d   1      20.460 -19.324   1.420  0.00  0.00     0.009 C 
ATOM     16  C   UNL d   1      19.529 -19.324  -0.895  0.00  0.00     0.009 C 
ENDBRANCH  13  14
ENDBRANCH  12  13
ENDBRANCH  11  12
ENDBRANCH   9  11
ENDBRANCH   6   9
ENDBRANCH   3   5
BRANCH   1  17
ATOM     17  C   UNL d   1      26.276 -13.537  -4.851  0.00  0.00     0.066 A 
ATOM     18  C   UNL d   1      25.943 -12.187  -5.050  0.00  0.00     0.020 A 
ATOM     19  C   UNL d   1      26.670 -11.380  -5.945  0.00  0.00     0.008 A 
ATOM     20  C   UNL d   1      27.755 -11.898  -6.657  0.00  0.00    -0.059 A 
ATOM     21  C   UNL d   1      28.564 -11.057  -7.601  0.00  0.00     0.048 C 
ATOM     22  C   UNL d   1      28.088 -13.243  -6.475  0.00  0.00     0.044 A 
ATOM     23  C   UNL d   1      27.358 -14.051  -5.594  0.00  0.00     0.082 A 
BRANCH  23  24
ATOM     24  O   UNL d   1      27.783 -15.354  -5.527  0.00  0.00    -0.360 OA
ATOM     25  H   UNL d   1      28.403 -15.514  -6.270  0.00  0.00     0.217 HD
ENDBRANCH  23  24
ENDBRANCH   1  17
TORSDOF 8
ENDMDL
MODEL 3
REMARK VINA RESULT:    -6.756      2.065      3.014
REMARK INTER + INTRA:         -11.681
REMARK INTER:                  -9.142
REMARK INTRA:                  -2.538
REMARK CONF_INDEPENDENT:        2.386
REMARK UNBOUND:                -2.538
REMARK  8 active torsions:
REMARK  status: ('A' for Active; 'I' for Inactive)
REMARK    1  A    between atoms: C_5  and  C_6 
REMARK       I    between atoms: C_6  and  N_8 
REMARK    2  A    between atoms: N_8  and  N_9 
REMARK       I    between atoms: N_9  and  C_10 
REMARK    3  A    between atoms: C_10  and  C_12 
REMARK    4  A    between atoms: C_12  and  O_14 
REMARK    5  A    between atoms: O_14  and  C_15 
REMARK    6  A    between atoms: C_15  and  C_16 
REMARK    7  A    between atoms: C_16  and  C_17 
REMARK    8  A    between atoms: C_20  and  O_21 
ROOT
ATOM      1  C   UNL d   1      22.096 -18.031  -0.127  0.00  0.00     0.272 C 
ATOM      2  O   UNL d   1      21.856 -17.117  -0.926  0.00  0.00    -0.266 OA
ATOM      3  N   UNL d   1      23.364 -18.230   0.401  0.00  0.00    -0.263 N 
ATOM      4  H   UNL d   1      23.616 -18.961   1.063  0.00  0.00     0.190 HD
ENDROOT
BRANCH   3   5
ATOM      5  N   UNL d   1      24.438 -17.381   0.032  0.00  0.00    -0.265 N 
ATOM      6  C   UNL d   1      25.690 -17.622   0.591  0.00  0.00     0.264 C 
ATOM      7  O   UNL d   1      25.861 -18.577   1.356  0.00  0.00    -0.269 OA
ATOM      8  H   UNL d   1      24.222 -16.618  -0.607  0.00  0.00     0.190 HD
BRANCH   6   9
ATOM      9  C   UNL d   1      26.824 -16.641   0.172  0.00  0.00     0.210 C 
ATOM     10  C   UNL d   1      27.733 -17.306  -0.867  0.00  0.00     0.050 C 
BRANCH   9  11
ATOM     11  O   UNL d   1      26.269 -15.415  -0.340  0.00  0.00    -0.377 OA
BRANCH  11  12
ATOM     12  C   UNL d   1      26.872 -14.253   0.218  0.00  0.00     0.169 C 
BRANCH  12  13
ATOM     13  C   UNL d   1      27.517 -14.538   1.566  0.00  0.00     0.030 C 
BRANCH  13  14
ATOM     14  C   UNL d   1      27.036 -13.529   2.626  0.00  0.00    -0.021 C 
ATOM     15  C   UNL d   1      27.815 -13.654   3.942  0.00  0.00     0.009 C 
ATOM     16  C   UNL d   1      27.172 -12.106   2.093  0.00  0.00     0.009 C 
ENDBRANCH  13  14
ENDBRANCH  12  13
ENDBRANCH  11  12
ENDBRANCH   9  11
ENDBRANCH   6   9
ENDBRANCH   3   5
BRANCH   1  17
ATOM     17  C   UNL d   1      20.981 -18.956   0.289  0.00  0.00     0.066 A 
ATOM     18  C   UNL d   1      20.685 -19.207   1.639  0.00  0.00     0.020 A 
ATOM     19  C   UNL d   1      19.630 -20.063   2.008  0.00  0.00     0.008 A 
ATOM     20  C   UNL d   1      18.838 -20.681   1.038  0.00  0.00    -0.059 A 
ATOM     21  C   UNL d   1      17.691 -21.581   1.400  0.00  0.00     0.048 C 
ATOM     22  C   UNL d   1      19.130 -20.448  -0.308  0.00  0.00     0.044 A 
ATOM     23  C   UNL d   1      20.187 -19.606  -0.678  0.00  0.00     0.082 A 
BRANCH  23  24
ATOM     24  O   UNL d   1      20.372 -19.481  -2.031  0.00  0.00    -0.360 OA
ATOM     25  H   UNL d   1      21.099 -18.841  -2.185  0.00  0.00     0.217 HD
ENDBRANCH  23  24
ENDBRANCH   1  17
TORSDOF 8
ENDMDL
MODEL 4
REMARK VINA RESULT:    -6.460      5.158      8.685
REMARK INTER + INTRA:         -10.984
REMARK INTER:                  -8.846
REMARK INTRA:                  -2.138
REMARK CONF_INDEPENDENT:        2.386
REMARK UNBOUND:                -2.138
REMARK  8 active torsions:
REMARK  status: ('A' for Active; 'I' for Inactive)
REMARK    1  A    between atoms: C_5  and  C_6 
REMARK       I    between atoms: C_6  and  N_8 
REMARK    2  A    between atoms: N_8  and  N_9 
REMARK       I    between atoms: N_9  and  C_10 
REMARK    3  A    between atoms: C_10  and  C_12 
REMARK    4  A    between atoms: C_12  and  O_14 
REMARK    5  A    between atoms: O_14  and  C_15 
REMARK    6  A    between atoms: C_15  and  C_16 
REMARK    7  A    between atoms: C_16  and  C_17 
REMARK    8  A    between atoms: C_20  and  O_21 
ROOT
ATOM      1  C   UNL d   1      27.365 -13.427   2.947  0.00  0.00     0.272 C 
ATOM      2  O   UNL d   1      26.702 -12.497   2.472  0.00  0.00    -0.266 OA
ATOM      3  N   UNL d   1      27.591 -14.602   2.242  0.00  0.00    -0.263 N 
ATOM      4  H   UNL d   1      28.130 -15.396   2.583  0.00  0.00     0.190 HD
ENDROOT
BRANCH   3   5
ATOM      5  N   UNL d   1      27.060 -14.773   0.940  0.00  0.00    -0.265 N 
ATOM      6  C   UNL d   1      27.139 -16.034   0.356  0.00  0.00     0.264 C 
ATOM      7  O   UNL d   1      27.625 -16.983   0.980  0.00  0.00    -0.269 OA
ATOM      8  H   UNL d   1      26.670 -13.947   0.490  0.00  0.00     0.190 HD
BRANCH   6   9
ATOM      9  C   UNL d   1      26.565 -16.156  -1.086  0.00  0.00     0.210 C 
ATOM     10  C   UNL d   1      27.683 -15.950  -2.114  0.00  0.00     0.050 C 
BRANCH   9  11
ATOM     11  O   UNL d   1      25.927 -17.434  -1.271  0.00  0.00    -0.377 OA
BRANCH  11  12
ATOM     12  C   UNL d   1      25.123 -17.822  -0.161  0.00  0.00     0.169 C 
BRANCH  12  13
ATOM     13  C   UNL d   1      23.916 -18.641  -0.593  0.00  0.00     0.030 C 
BRANCH  13  14
ATOM     14  C   UNL d   1      22.608 -17.978  -0.118  0.00  0.00    -0.021 C 
ATOM     15  C   UNL d   1      22.527 -16.501  -0.524  0.00  0.00     0.009 C 
ATOM     16  C   UNL d   1      21.406 -18.724  -0.689  0.00  0.00     0.009 C 
ENDBRANCH  13  14
ENDBRANCH  12  13
ENDBRANCH  11  12
ENDBRANCH   9  11
ENDBRANCH   6   9
ENDBRANCH   3   5
BRANCH   1  17
ATOM     17  C   UNL d   1      27.946 -13.285   4.331  0.00  0.00     0.066 A 
ATOM     18  C   UNL d   1      28.168 -12.030   4.920  0.00  0.00     0.020 A 
ATOM     19  C   UNL d   1      28.698 -11.918   6.219  0.00  0.00     0.008 A 
ATOM     20  C   UNL d   1      29.008 -13.056   6.967  0.00  0.00    -0.059 A 
ATOM     21  C   UNL d   1      29.552 -12.969   8.364  0.00  0.00     0.048 C 
ATOM     22  C   UNL d   1      28.801 -14.310   6.387  0.00  0.00     0.044 A 
ATOM     23  C   UNL d   1      28.285 -14.424   5.089  0.00  0.00     0.082 A 
BRANCH  23  24
ATOM     24  O   UNL d   1      28.150 -15.713   4.638  0.00  0.00    -0.360 OA
ATOM     25  H   UNL d   1      28.902 -15.910   4.040  0.00  0.00     0.217 HD
ENDBRANCH  23  24
ENDBRANCH   1  17
TORSDOF 8
ENDMDL
MODEL 5
REMARK VINA RESULT:    -6.328      2.246      9.053
REMARK INTER + INTRA:         -10.821
REMARK INTER:                  -8.715
REMARK INTRA:                  -2.106
REMARK CONF_INDEPENDENT:        2.386
REMARK UNBOUND:                -2.106
REMARK  8 active torsions:
REMARK  status: ('A' for Active; 'I' for Inactive)
REMARK    1  A    between atoms: C_5  and  C_6 
REMARK       I    between atoms: C_6  and  N_8 
REMARK    2  A    between atoms: N_8  and  N_9 
REMARK       I    between atoms: N_9  and  C_10 
REMARK    3  A    between atoms: C_10  and  C_12 
REMARK    4  A    between atoms: C_12  and  O_14 
REMARK    5  A    between atoms: O_14  and  C_15 
REMARK    6  A    between atoms: C_15  and  C_16 
REMARK    7  A    between atoms: C_16  and  C_17 
REMARK    8  A    between atoms: C_20  and  O_21 
ROOT
ATOM      1  C   UNL d   1      26.190 -15.184  -3.487  0.00  0.00     0.272 C 
ATOM      2  O   UNL d   1      27.158 -15.950  -3.580  0.00  0.00    -0.266 OA
ATOM      3  N   UNL d   1      25.007 -15.568  -2.871  0.00  0.00    -0.263 N 
ATOM      4  H   UNL d   1      24.183 -14.979  -2.764  0.00  0.00     0.190 HD
ENDROOT
BRANCH   3   5
ATOM      5  N   UNL d   1      24.868 -16.869  -2.325  0.00  0.00    -0.265 N 
ATOM      6  C   UNL d   1      23.783 -17.121  -1.491  0.00  0.00     0.264 C 
ATOM      7  O   UNL d   1      22.945 -16.241  -1.270  0.00  0.00    -0.269 OA
ATOM      8  H   UNL d   1      25.595 -17.544  -2.556  0.00  0.00     0.190 HD
BRANCH   6   9
ATOM      9  C   UNL d   1      23.698 -18.559  -0.898  0.00  0.00     0.210 C 
ATOM     10  C   UNL d   1      23.981 -18.521   0.607  0.00  0.00     0.050 C 
BRANCH   9  11
ATOM     11  O   UNL d   1      22.408 -19.140  -1.164  0.00  0.00    -0.377 OA
BRANCH  11  12
ATOM     12  C   UNL d   1      21.453 -18.872  -0.144  0.00  0.00     0.169 C 
BRANCH  12  13
ATOM     13  C   UNL d   1      20.126 -19.570  -0.409  0.00  0.00     0.030 C 
BRANCH  13  14
ATOM     14  C   UNL d   1      19.791 -20.555   0.728  0.00  0.00    -0.021 C 
ATOM     15  C   UNL d   1      19.899 -19.902   2.111  0.00  0.00     0.009 C 
ATOM     16  C   UNL d   1      18.382 -21.108   0.541  0.00  0.00     0.009 C 
ENDBRANCH  13  14
ENDBRANCH  12  13
ENDBRANCH  11  12
ENDBRANCH   9  11
ENDBRANCH   6   9
ENDBRANCH   3   5
BRANCH   1  17
ATOM     17  C   UNL d   1      26.297 -13.792  -4.056  0.00  0.00     0.066 A 
ATOM     18  C   UNL d   1      25.798 -12.669  -3.376  0.00  0.00     0.020 A 
ATOM     19  C   UNL d   1      25.920 -11.375  -3.917  0.00  0.00     0.008 A 
ATOM     20  C   UNL d   1      26.553 -11.170  -5.146  0.00  0.00    -0.059 A 
ATOM     21  C   UNL d   1      26.719  -9.800  -5.738  0.00  0.00     0.048 C 
ATOM     22  C   UNL d   1      27.043 -12.281  -5.836  0.00  0.00     0.044 A 
ATOM     23  C   UNL d   1      26.912 -13.571  -5.305  0.00  0.00     0.082 A 
BRANCH  23  24
ATOM     24  O   UNL d   1      27.421 -14.570  -6.096  0.00  0.00    -0.360 OA
ATOM     25  H   UNL d   1      27.510 -15.380  -5.550  0.00  0.00     0.217 HD
ENDBRANCH  23  24
ENDBRANCH   1  17
TORSDOF 8
ENDMDL
MODEL 6
REMARK VINA RESULT:    -6.275      4.405      9.916
REMARK INTER + INTRA:         -10.973
REMARK INTER:                  -8.662
REMARK INTRA:                  -2.311
REMARK CONF_INDEPENDENT:        2.386
REMARK UNBOUND:                -2.311
REMARK  8 active torsions:
REMARK  status: ('A' for Active; 'I' for Inactive)
REMARK    1  A    between atoms: C_5  and  C_6 
REMARK       I    between atoms: C_6  and  N_8 
REMARK    2  A    between atoms: N_8  and  N_9 
REMARK       I    between atoms: N_9  and  C_10 
REMARK    3  A    between atoms: C_10  and  C_12 
REMARK    4  A    between atoms: C_12  and  O_14 
REMARK    5  A    between atoms: O_14  and  C_15 
REMARK    6  A    between atoms: C_15  and  C_16 
REMARK    7  A    between atoms: C_16  and  C_17 
REMARK    8  A    between atoms: C_20  and  O_21 
ROOT
ATOM      1  C   UNL d   1      25.872 -10.737  -3.390  0.00  0.00     0.272 C 
ATOM      2  O   UNL d   1      26.578 -10.598  -2.384  0.00  0.00    -0.266 OA
ATOM      3  N   UNL d   1      25.375 -11.975  -3.774  0.00  0.00    -0.263 N 
ATOM      4  H   UNL d   1      24.789 -12.146  -4.588  0.00  0.00     0.190 HD
ENDROOT
BRANCH   3   5
ATOM      5  N   UNL d   1      25.670 -13.135  -3.014  0.00  0.00    -0.265 N 
ATOM      6  C   UNL d   1      25.303 -14.373  -3.534  0.00  0.00     0.264 C 
ATOM      7  O   UNL d   1      24.772 -14.453  -4.646  0.00  0.00    -0.269 OA
ATOM      8  H   UNL d   1      26.115 -12.991  -2.110  0.00  0.00     0.190 HD
BRANCH   6   9
ATOM      9  C   UNL d   1      25.627 -15.609  -2.643  0.00  0.00     0.210 C 
ATOM     10  C   UNL d   1      27.121 -15.939  -2.728  0.00  0.00     0.050 C 
BRANCH   9  11
ATOM     11  O   UNL d   1      25.231 -15.368  -1.280  0.00  0.00    -0.377 OA
BRANCH  11  12
ATOM     12  C   UNL d   1      25.536 -16.452  -0.409  0.00  0.00     0.169 C 
BRANCH  12  13
ATOM     13  C   UNL d   1      24.777 -17.716  -0.788  0.00  0.00     0.030 C 
BRANCH  13  14
ATOM     14  C   UNL d   1      23.373 -17.721  -0.154  0.00  0.00    -0.021 C 
ATOM     15  C   UNL d   1      22.568 -16.467  -0.519  0.00  0.00     0.009 C 
ATOM     16  C   UNL d   1      22.603 -18.960  -0.598  0.00  0.00     0.009 C 
ENDBRANCH  13  14
ENDBRANCH  12  13
ENDBRANCH  11  12
ENDBRANCH   9  11
ENDBRANCH   6   9
ENDBRANCH   3   5
BRANCH   1  17
ATOM     17  C   UNL d   1      25.537  -9.528  -4.226  0.00  0.00     0.066 A 
ATOM     18  C   UNL d   1      25.496  -8.234  -3.681  0.00  0.00     0.020 A 
ATOM     19  C   UNL d   1      25.197  -7.115  -4.482  0.00  0.00     0.008 A 
ATOM     20  C   UNL d   1      24.940  -7.259  -5.847  0.00  0.00    -0.059 A 
ATOM     21  C   UNL d   1      24.641  -6.083  -6.731  0.00  0.00     0.048 C 
ATOM     22  C   UNL d   1      24.968  -8.543  -6.397  0.00  0.00     0.044 A 
ATOM     23  C   UNL d   1      25.254  -9.660  -5.601  0.00  0.00     0.082 A 
BRANCH  23  24
ATOM     24  O   UNL d   1      25.229 -10.859  -6.266  0.00  0.00    -0.360 OA
ATOM     25  H   UNL d   1      24.523 -11.415  -5.873  0.00  0.00     0.217 HD
ENDBRANCH  23  24
ENDBRANCH   1  17
TORSDOF 8
ENDMDL
MODEL 7
REMARK VINA RESULT:    -5.836      2.541      7.983
REMARK INTER + INTRA:         -11.272
REMARK INTER:                  -8.222
REMARK INTRA:                  -3.050
REMARK CONF_INDEPENDENT:        2.386
REMARK UNBOUND:                -3.050
REMARK  8 active torsions:
REMARK  status: ('A' for Active; 'I' for Inactive)
REMARK    1  A    between atoms: C_5  and  C_6 
REMARK       I    between atoms: C_6  and  N_8 
REMARK    2  A    between atoms: N_8  and  N_9 
REMARK       I    between atoms: N_9  and  C_10 
REMARK    3  A    between atoms: C_10  and  C_12 
REMARK    4  A    between atoms: C_12  and  O_14 
REMARK    5  A    between atoms: O_14  and  C_15 
REMARK    6  A    between atoms: C_15  and  C_16 
REMARK    7  A    between atoms: C_16  and  C_17 
REMARK    8  A    between atoms: C_20  and  O_21 
ROOT
ATOM      1  C   UNL d   1      26.063 -15.377  -2.901  0.00  0.00     0.272 C 
ATOM      2  O   UNL d   1      26.968 -16.208  -2.756  0.00  0.00    -0.266 OA
ATOM      3  N   UNL d   1      24.793 -15.576  -2.376  0.00  0.00    -0.263 N 
ATOM      4  H   UNL d   1      24.014 -14.926  -2.461  0.00  0.00     0.190 HD
ENDROOT
BRANCH   3   5
ATOM      5  N   UNL d   1      24.492 -16.756  -1.650  0.00  0.00    -0.265 N 
ATOM      6  C   UNL d   1      23.275 -16.822  -0.976  0.00  0.00     0.264 C 
ATOM      7  O   UNL d   1      22.469 -15.890  -1.048  0.00  0.00    -0.269 OA
ATOM      8  H   UNL d   1      25.203 -17.484  -1.641  0.00  0.00     0.190 HD
BRANCH   6   9
ATOM      9  C   UNL d   1      23.011 -18.130  -0.173  0.00  0.00     0.210 C 
ATOM     10  C   UNL d   1      21.932 -18.964  -0.871  0.00  0.00     0.050 C 
BRANCH   9  11
ATOM     11  O   UNL d   1      24.228 -18.886  -0.023  0.00  0.00    -0.377 OA
BRANCH  11  12
ATOM     12  C   UNL d   1      25.224 -18.199   0.727  0.00  0.00     0.169 C 
BRANCH  12  13
ATOM     13  C   UNL d   1      26.626 -18.491   0.212  0.00  0.00     0.030 C 
BRANCH  13  14
ATOM     14  C   UNL d   1      27.542 -17.266   0.399  0.00  0.00    -0.021 C 
ATOM     15  C   UNL d   1      28.711 -17.261  -0.595  0.00  0.00     0.009 C 
ATOM     16  C   UNL d   1      26.736 -15.981   0.236  0.00  0.00     0.009 C 
ENDBRANCH  13  14
ENDBRANCH  12  13
ENDBRANCH  11  12
ENDBRANCH   9  11
ENDBRANCH   6   9
ENDBRANCH   3   5
BRANCH   1  17
ATOM     17  C   UNL d   1      26.342 -14.110  -3.669  0.00  0.00     0.066 A 
ATOM     18  C   UNL d   1      27.637 -13.576  -3.779  0.00  0.00     0.020 A 
ATOM     19  C   UNL d   1      27.880 -12.400  -4.513  0.00  0.00     0.008 A 
ATOM     20  C   UNL d   1      26.839 -11.734  -5.164  0.00  0.00    -0.059 A 
ATOM     21  C   UNL d   1      27.071 -10.490  -5.973  0.00  0.00     0.048 C 
ATOM     22  C   UNL d   1      25.546 -12.250  -5.052  0.00  0.00     0.044 A 
ATOM     23  C   UNL d   1      25.299 -13.414  -4.312  0.00  0.00     0.082 A 
BRANCH  23  24
ATOM     24  O   UNL d   1      23.983 -13.797  -4.271  0.00  0.00    -0.360 OA
ATOM     25  H   UNL d   1      23.440 -13.079  -4.661  0.00  0.00     0.217 HD
ENDBRANCH  23  24
ENDBRANCH   1  17
TORSDOF 8
ENDMDL
MODEL 8
REMARK VINA RESULT:    -5.703      4.916      8.121
REMARK INTER + INTRA:         -10.587
REMARK INTER:                  -8.090
REMARK INTRA:                  -2.498
REMARK CONF_INDEPENDENT:        2.386
REMARK UNBOUND:                -2.498
REMARK  8 active torsions:
REMARK  status: ('A' for Active; 'I' for Inactive)
REMARK    1  A    between atoms: C_5  and  C_6 
REMARK       I    between atoms: C_6  and  N_8 
REMARK    2  A    between atoms: N_8  and  N_9 
REMARK       I    between atoms: N_9  and  C_10 
REMARK    3  A    between atoms: C_10  and  C_12 
REMARK    4  A    between atoms: C_12  and  O_14 
REMARK    5  A    between atoms: O_14  and  C_15 
REMARK    6  A    between atoms: C_15  and  C_16 
REMARK    7  A    between atoms: C_16  and  C_17 
REMARK    8  A    between atoms: C_20  and  O_21 
ROOT
ATOM      1  C   UNL d   1      27.325 -13.589   2.505  0.00  0.00     0.272 C 
ATOM      2  O   UNL d   1      26.704 -12.752   1.838  0.00  0.00    -0.266 OA
ATOM      3  N   UNL d   1      27.620 -14.851   2.007  0.00  0.00    -0.263 N 
ATOM      4  H   UNL d   1      28.129 -15.576   2.510  0.00  0.00     0.190 HD
ENDROOT
BRANCH   3   5
ATOM      5  N   UNL d   1      27.209 -15.225   0.703  0.00  0.00    -0.265 N 
ATOM      6  C   UNL d   1      26.961 -16.571   0.451  0.00  0.00     0.264 C 
ATOM      7  O   UNL d   1      27.060 -17.406   1.355  0.00  0.00    -0.269 OA
ATOM      8  H   UNL d   1      27.144 -14.480   0.011  0.00  0.00     0.190 HD
BRANCH   6   9
ATOM      9  C   UNL d   1      26.540 -16.925  -1.007  0.00  0.00     0.210 C 
ATOM     10  C   UNL d   1      25.139 -17.546  -1.010  0.00  0.00     0.050 C 
BRANCH   9  11
ATOM     11  O   UNL d   1      26.586 -15.755  -1.845  0.00  0.00    -0.377 OA
BRANCH  11  12
ATOM     12  C   UNL d   1      25.295 -15.257  -2.179  0.00  0.00     0.169 C 
BRANCH  12  13
ATOM     13  C   UNL d   1      25.362 -13.856  -2.770  0.00  0.00     0.030 C 
BRANCH  13  14
ATOM     14  C   UNL d   1      25.275 -13.907  -4.308  0.00  0.00    -0.021 C 
ATOM     15  C   UNL d   1      25.966 -12.708  -4.968  0.00  0.00     0.009 C 
ATOM     16  C   UNL d   1      25.905 -15.198  -4.824  0.00  0.00     0.009 C 
ENDBRANCH  13  14
ENDBRANCH  12  13
ENDBRANCH  11  12
ENDBRANCH   9  11
ENDBRANCH   6   9
ENDBRANCH   3   5
BRANCH   1  17
ATOM     17  C   UNL d   1      27.778 -13.232   3.897  0.00  0.00     0.066 A 
ATOM     18  C   UNL d   1      27.849 -11.900   4.339  0.00  0.00     0.020 A 
ATOM     19  C   UNL d   1      28.260 -11.587   5.649  0.00  0.00     0.008 A 
ATOM     20  C   UNL d   1      28.600 -12.596   6.553  0.00  0.00    -0.059 A 
ATOM     21  C   UNL d   1      29.020 -12.295   7.963  0.00  0.00     0.048 C 
ATOM     22  C   UNL d   1      28.544 -13.923   6.121  0.00  0.00     0.044 A 
ATOM     23  C   UNL d   1      28.147 -14.237   4.814  0.00  0.00     0.082 A 
BRANCH  23  24
ATOM     24  O   UNL d   1      28.155 -15.577   4.520  0.00  0.00    -0.360 OA
ATOM     25  H   UNL d   1      28.955 -15.770   3.987  0.00  0.00     0.217 HD
ENDBRANCH  23  24
ENDBRANCH   1  17
TORSDOF 8
ENDMDL
MODEL 9
REMARK VINA RESULT:    -5.678      2.927      5.127
REMARK INTER + INTRA:         -10.733
REMARK INTER:                  -8.064
REMARK INTRA:                  -2.669
REMARK CONF_INDEPENDENT:        2.386
REMARK UNBOUND:                -2.669
REMARK  8 active torsions:
REMARK  status: ('A' for Active; 'I' for Inactive)
REMARK    1  A    between atoms: C_5  and  C_6 
REMARK       I    between atoms: C_6  and  N_8 
REMARK    2  A    between atoms: N_8  and  N_9 
REMARK       I    between atoms: N_9  and  C_10 
REMARK    3  A    between atoms: C_10  and  C_12 
REMARK    4  A    between atoms: C_12  and  O_14 
REMARK    5  A    between atoms: O_14  and  C_15 
REMARK    6  A    between atoms: C_15  and  C_16 
REMARK    7  A    between atoms: C_16  and  C_17 
REMARK    8  A    between atoms: C_20  and  O_21 
ROOT
ATOM      1  C   UNL d   1      26.214 -16.265  -1.614  0.00  0.00     0.272 C 
ATOM      2  O   UNL d   1      27.147 -16.014  -0.840  0.00  0.00    -0.266 OA
ATOM      3  N   UNL d   1      26.277 -15.953  -2.965  0.00  0.00    -0.263 N 
ATOM      4  H   UNL d   1      25.543 -16.140  -3.645  0.00  0.00     0.190 HD
ENDROOT
BRANCH   3   5
ATOM      5  N   UNL d   1      27.428 -15.327  -3.506  0.00  0.00    -0.265 N 
ATOM      6  C   UNL d   1      27.511 -15.182  -4.888  0.00  0.00     0.264 C 
ATOM      7  O   UNL d   1      26.584 -15.555  -5.613  0.00  0.00    -0.269 OA
ATOM      8  H   UNL d   1      28.149 -15.040  -2.846  0.00  0.00     0.190 HD
BRANCH   6   9
ATOM      9  C   UNL d   1      28.810 -14.512  -5.427  0.00  0.00     0.210 C 
ATOM     10  C   UNL d   1      29.473 -15.420  -6.468  0.00  0.00     0.050 C 
BRANCH   9  11
ATOM     11  O   UNL d   1      28.517 -13.218  -5.986  0.00  0.00    -0.377 OA
BRANCH  11  12
ATOM     12  C   UNL d   1      27.876 -12.343  -5.064  0.00  0.00     0.169 C 
BRANCH  12  13
ATOM     13  C   UNL d   1      26.404 -12.146  -5.397  0.00  0.00     0.030 C 
BRANCH  13  14
ATOM     14  C   UNL d   1      25.529 -12.357  -4.147  0.00  0.00    -0.021 C 
ATOM     15  C   UNL d   1      24.697 -13.643  -4.233  0.00  0.00     0.009 C 
ATOM     16  C   UNL d   1      26.404 -12.405  -2.898  0.00  0.00     0.009 C 
ENDBRANCH  13  14
ENDBRANCH  12  13
ENDBRANCH  11  12
ENDBRANCH   9  11
ENDBRANCH   6   9
ENDBRANCH   3   5
BRANCH   1  17
ATOM     17  C   UNL d   1      24.972 -16.929  -1.077  0.00  0.00     0.066 A 
ATOM     18  C   UNL d   1      23.686 -16.439  -1.357  0.00  0.00     0.020 A 
ATOM     19  C   UNL d   1      22.536 -17.082  -0.859  0.00  0.00     0.008 A 
ATOM     20  C   UNL d   1      22.643 -18.236  -0.079  0.00  0.00    -0.059 A 
ATOM     21  C   UNL d   1      21.435 -18.957   0.447  0.00  0.00     0.048 C 
ATOM     22  C   UNL d   1      23.918 -18.725   0.215  0.00  0.00     0.044 A 
ATOM     23  C   UNL d   1      25.064 -18.080  -0.269  0.00  0.00     0.082 A 
BRANCH  23  24
ATOM     24  O   UNL d   1      26.249 -18.658   0.111  0.00  0.00    -0.360 OA
ATOM     25  H   UNL d   1      26.961 -17.989   0.017  0.00  0.00     0.217 HD
ENDBRANCH  23  24
ENDBRANCH   1  17
TORSDOF 8
ENDMDL
