MODEL 1
REMARK VINA RESULT:   -10.501      0.000      0.000
REMARK INTER + INTRA:         -13.585
REMARK INTER:                 -11.993
REMARK INTRA:                  -1.592
REMARK CONF_INDEPENDENT:        1.492
REMARK UNBOUND:                -1.592
REMARK  5 active torsions:
REMARK  status: ('A' for Active; 'I' for Inactive)
REMARK    1  A    between atoms: C_2  and  C_3 
REMARK    2  A    between atoms: C_2  and  C_9 
REMARK    3  A    between atoms: C_15  and  N_16 
REMARK       I    between atoms: N_16  and  C_17 
REMARK    4  A    between atoms: C_17  and  C_19 
REMARK    5  A    between atoms: C_22  and  N_23 
ROOT
ATOM      1  N   UNL d   1      27.543 -14.589   0.785  0.00  0.00    -0.322 N 
ATOM      2  C   UNL d   1      27.170 -13.450   1.532  0.00  0.00     0.264 C 
ATOM      3  O   UNL d   1      26.117 -12.876   1.172  0.00  0.00    -0.267 OA
ATOM      4  H   UNL d   1      28.016 -15.338   1.275  0.00  0.00     0.169 HD
ENDROOT
BRANCH   1   5
ATOM      5  C   UNL d   1      27.120 -14.872  -0.603  0.00  0.00     0.049 A 
ATOM      6  C   UNL d   1      27.330 -13.900  -1.610  0.00  0.00     0.032 A 
ATOM      7  C   UNL d   1      26.917 -14.091  -2.961  0.00  0.00     0.026 A 
ATOM      8  C   UNL d   1      26.286 -15.264  -3.349  0.00  0.00     0.035 A 
ATOM      9  C   UNL d   1      25.998 -16.210  -2.389  0.00  0.00     0.041 A 
ATOM     10 CL   UNL d   1      25.905 -15.575  -5.000  0.00  0.00    -0.084 Cl
ATOM     11  C   UNL d   1      26.443 -16.033  -1.050  0.00  0.00     0.043 A 
BRANCH  11  12
ATOM     12  C   UNL d   1      26.007 -17.119  -0.169  0.00  0.00     0.194 C 
ATOM     13  O   UNL d   1      26.801 -17.506   0.685  0.00  0.00    -0.287 OA
BRANCH  12  14
ATOM     14  C   UNL d   1      24.578 -17.558  -0.201  0.00  0.00     0.015 C 
ATOM     15  C   UNL d   1      24.163 -18.901  -0.184  0.00  0.00     0.015 C 
ATOM     16  C   UNL d   1      22.861 -19.219  -0.583  0.00  0.00     0.001 C 
ATOM     17  C   UNL d   1      21.960 -18.199  -0.895  0.00  0.00     0.000 C 
ATOM     18  C   UNL d   1      22.350 -16.864  -0.799  0.00  0.00     0.001 C 
ATOM     19  C   UNL d   1      23.653 -16.546  -0.441  0.00  0.00     0.015 C 
ENDBRANCH  12  14
ENDBRANCH  11  12
ENDBRANCH   1   5
BRANCH   2  20
ATOM     20  C   UNL d   1      27.839 -12.909   2.761  0.00  0.00     0.096 C 
ATOM     21  S   UNL d   1      28.436 -11.308   2.501  0.00  0.00    -0.080 SA
ATOM     22  C   UNL d   1      28.261 -10.881   4.153  0.00  0.00     0.051 C 
ATOM     23  C   UNL d   1      28.008  -9.591   4.676  0.00  0.00     0.120 C 
ATOM     24  C   UNL d   1      28.639 -11.979   4.923  0.00  0.00     0.007 C 
ATOM     25  C   UNL d   1      28.530  -9.225   5.917  0.00  0.00     0.037 C 
ATOM     26  C   UNL d   1      29.183 -10.195   6.660  0.00  0.00     0.003 C 
ATOM     27  C   UNL d   1      29.206 -11.573   6.214  0.00  0.00     0.014 C 
ATOM     28  C   UNL d   1      28.160 -13.216   4.098  0.00  0.00     0.068 C 
ATOM     29 CL   UNL d   1      27.780 -14.771   4.736  0.00  0.00    -0.082 Cl
BRANCH  23  30
ATOM     30  N   UNL d   1      27.082  -8.681   3.996  0.00  0.00    -0.114 N 
ATOM     31  O   UNL d   1      27.169  -7.472   4.248  0.00  0.00    -0.532 OA
ATOM     32  O   UNL d   1      26.203  -9.180   3.284  0.00  0.00    -0.532 OA
ENDBRANCH  23  30
ENDBRANCH   2  20
TORSDOF 5
ENDMDL
MODEL 2
REMARK VINA RESULT:    -8.947      6.102     10.213
REMARK INTER + INTRA:         -12.303
REMARK INTER:                 -10.439
REMARK INTRA:                  -1.864
REMARK CONF_INDEPENDENT:        1.492
REMARK UNBOUND:                -1.864
REMARK  5 active torsions:
REMARK  status: ('A' for Active; 'I' for Inactive)
REMARK    1  A    between atoms: C_2  and  C_3 
REMARK    2  A    between atoms: C_2  and  C_9 
REMARK    3  A    between atoms: C_15  and  N_16 
REMARK       I    between atoms: N_16  and  C_17 
REMARK    4  A    between atoms: C_17  and  C_19 
REMARK    5  A    between atoms: C_22  and  N_23 
ROOT
ATOM      1  N   UNL d   1      27.666 -15.394  -3.362  0.00  0.00    -0.322 N 
ATOM      2  C   UNL d   1      27.811 -15.473  -4.764  0.00  0.00     0.264 C 
ATOM      3  O   UNL d   1      26.750 -15.446  -5.429  0.00  0.00    -0.267 OA
ATOM      4  H   UNL d   1      28.392 -14.919  -2.840  0.00  0.00     0.169 HD
ENDROOT
BRANCH   1   5
ATOM      5  C   UNL d   1      26.449 -15.764  -2.609  0.00  0.00     0.049 A 
ATOM      6  C   UNL d   1      26.481 -16.871  -1.728  0.00  0.00     0.032 A 
ATOM      7  C   UNL d   1      25.336 -17.306  -0.997  0.00  0.00     0.026 A 
ATOM      8  C   UNL d   1      24.124 -16.642  -1.121  0.00  0.00     0.035 A 
ATOM      9  C   UNL d   1      24.027 -15.602  -2.020  0.00  0.00     0.041 A 
ATOM     10 CL   UNL d   1      22.768 -17.061  -0.145  0.00  0.00    -0.084 Cl
ATOM     11  C   UNL d   1      25.178 -15.148  -2.720  0.00  0.00     0.043 A 
BRANCH  11  12
ATOM     12  C   UNL d   1      24.870 -14.065  -3.657  0.00  0.00     0.194 C 
ATOM     13  O   UNL d   1      23.761 -14.075  -4.186  0.00  0.00    -0.287 OA
BRANCH  12  14
ATOM     14  C   UNL d   1      25.808 -12.907  -3.770  0.00  0.00     0.015 C 
ATOM     15  C   UNL d   1      26.424 -12.279  -2.673  0.00  0.00     0.015 C 
ATOM     16  C   UNL d   1      26.976 -11.005  -2.835  0.00  0.00     0.001 C 
ATOM     17  C   UNL d   1      27.001 -10.414  -4.100  0.00  0.00     0.000 C 
ATOM     18  C   UNL d   1      26.488 -11.094  -5.203  0.00  0.00     0.001 C 
ATOM     19  C   UNL d   1      25.904 -12.343  -5.039  0.00  0.00     0.015 C 
ENDBRANCH  12  14
ENDBRANCH  11  12
ENDBRANCH   1   5
BRANCH   2  20
ATOM     20  C   UNL d   1      29.089 -15.487  -5.547  0.00  0.00     0.096 C 
ATOM     21  S   UNL d   1      30.074 -16.843  -5.123  0.00  0.00    -0.080 SA
ATOM     22  C   UNL d   1      30.799 -16.914  -6.677  0.00  0.00     0.051 C 
ATOM     23  C   UNL d   1      31.303 -18.063  -7.327  0.00  0.00     0.120 C 
ATOM     24  C   UNL d   1      31.023 -15.607  -7.106  0.00  0.00     0.007 C 
ATOM     25  C   UNL d   1      32.401 -17.958  -8.183  0.00  0.00     0.037 C 
ATOM     26  C   UNL d   1      32.888 -16.692  -8.463  0.00  0.00     0.003 C 
ATOM     27  C   UNL d   1      32.195 -15.514  -7.984  0.00  0.00     0.014 C 
ATOM     28  C   UNL d   1      29.809 -14.799  -6.546  0.00  0.00     0.068 C 
ATOM     29 CL   UNL d   1      29.182 -13.333  -7.198  0.00  0.00    -0.082 Cl
BRANCH  23  30
ATOM     30  N   UNL d   1      30.596 -19.344  -7.230  0.00  0.00    -0.114 N 
ATOM     31  O   UNL d   1      30.445 -20.002  -8.267  0.00  0.00    -0.532 OA
ATOM     32  O   UNL d   1      30.105 -19.649  -6.137  0.00  0.00    -0.532 OA
ENDBRANCH  23  30
ENDBRANCH   2  20
TORSDOF 5
ENDMDL
MODEL 3
REMARK VINA RESULT:    -8.655      1.972      2.649
REMARK INTER + INTRA:         -11.758
REMARK INTER:                 -10.147
REMARK INTRA:                  -1.611
REMARK CONF_INDEPENDENT:        1.492
REMARK UNBOUND:                -1.611
REMARK  5 active torsions:
REMARK  status: ('A' for Active; 'I' for Inactive)
REMARK    1  A    between atoms: C_2  and  C_3 
REMARK    2  A    between atoms: C_2  and  C_9 
REMARK    3  A    between atoms: C_15  and  N_16 
REMARK       I    between atoms: N_16  and  C_17 
REMARK    4  A    between atoms: C_17  and  C_19 
REMARK    5  A    between atoms: C_22  and  N_23 
ROOT
ATOM      1  N   UNL d   1      28.003 -14.044  -1.238  0.00  0.00    -0.322 N 
ATOM      2  C   UNL d   1      27.684 -12.842  -0.570  0.00  0.00     0.264 C 
ATOM      3  O   UNL d   1      27.050 -11.993  -1.237  0.00  0.00    -0.267 OA
ATOM      4  H   UNL d   1      28.028 -14.895  -0.691  0.00  0.00     0.169 HD
ENDROOT
BRANCH   1   5
ATOM      5  C   UNL d   1      28.101 -14.202  -2.705  0.00  0.00     0.049 A 
ATOM      6  C   UNL d   1      29.311 -13.877  -3.364  0.00  0.00     0.032 A 
ATOM      7  C   UNL d   1      29.467 -13.971  -4.778  0.00  0.00     0.026 A 
ATOM      8  C   UNL d   1      28.417 -14.400  -5.578  0.00  0.00     0.035 A 
ATOM      9  C   UNL d   1      27.198 -14.661  -4.988  0.00  0.00     0.041 A 
ATOM     10 CL   UNL d   1      28.623 -14.655  -7.269  0.00  0.00    -0.084 Cl
ATOM     11  C   UNL d   1      27.057 -14.601  -3.575  0.00  0.00     0.043 A 
BRANCH  11  12
ATOM     12  C   UNL d   1      25.683 -14.868  -3.140  0.00  0.00     0.194 C 
ATOM     13  O   UNL d   1      24.774 -14.450  -3.854  0.00  0.00    -0.287 OA
BRANCH  12  14
ATOM     14  C   UNL d   1      25.448 -15.795  -1.992  0.00  0.00     0.015 C 
ATOM     15  C   UNL d   1      26.444 -16.596  -1.405  0.00  0.00     0.015 C 
ATOM     16  C   UNL d   1      26.068 -17.678  -0.605  0.00  0.00     0.001 C 
ATOM     17  C   UNL d   1      24.719 -17.893  -0.314  0.00  0.00     0.000 C 
ATOM     18  C   UNL d   1      23.747 -17.026  -0.810  0.00  0.00     0.001 C 
ATOM     19  C   UNL d   1      24.114 -15.972  -1.637  0.00  0.00     0.015 C 
ENDBRANCH  12  14
ENDBRANCH  11  12
ENDBRANCH   1   5
BRANCH   2  20
ATOM     20  C   UNL d   1      27.933 -12.510   0.871  0.00  0.00     0.096 C 
ATOM     21  S   UNL d   1      28.244 -10.823   1.085  0.00  0.00    -0.080 SA
ATOM     22  C   UNL d   1      27.614 -10.819   2.680  0.00  0.00     0.051 C 
ATOM     23  C   UNL d   1      26.999  -9.735   3.349  0.00  0.00     0.120 C 
ATOM     24  C   UNL d   1      28.016 -11.999   3.303  0.00  0.00     0.007 C 
ATOM     25  C   UNL d   1      27.139  -9.594   4.730  0.00  0.00     0.037 C 
ATOM     26  C   UNL d   1      27.783 -10.605   5.425  0.00  0.00     0.003 C 
ATOM     27  C   UNL d   1      28.180 -11.824   4.751  0.00  0.00     0.014 C 
ATOM     28  C   UNL d   1      27.993 -13.068   2.164  0.00  0.00     0.068 C 
ATOM     29 CL   UNL d   1      27.793 -14.766   2.375  0.00  0.00    -0.082 Cl
BRANCH  23  30
ATOM     30  N   UNL d   1      26.092  -8.836   2.629  0.00  0.00    -0.114 N 
ATOM     31  O   UNL d   1      26.352  -7.626   2.635  0.00  0.00    -0.532 OA
ATOM     32  O   UNL d   1      25.066  -9.323   2.141  0.00  0.00    -0.532 OA
ENDBRANCH  23  30
ENDBRANCH   2  20
TORSDOF 5
ENDMDL
MODEL 4
REMARK VINA RESULT:    -8.485      4.967      8.532
REMARK INTER + INTRA:         -11.892
REMARK INTER:                  -9.977
REMARK INTRA:                  -1.915
REMARK CONF_INDEPENDENT:        1.492
REMARK UNBOUND:                -1.915
REMARK  5 active torsions:
REMARK  status: ('A' for Active; 'I' for Inactive)
REMARK    1  A    between atoms: C_2  and  C_3 
REMARK    2  A    between atoms: C_2  and  C_9 
REMARK    3  A    between atoms: C_15  and  N_16 
REMARK       I    between atoms: N_16  and  C_17 
REMARK    4  A    between atoms: C_17  and  C_19 
REMARK    5  A    between atoms: C_22  and  N_23 
ROOT
ATOM      1  N   UNL d   1      26.031 -15.635  -1.778  0.00  0.00    -0.322 N 
ATOM      2  C   UNL d   1      26.016 -15.062  -3.068  0.00  0.00     0.264 C 
ATOM      3  O   UNL d   1      24.887 -14.893  -3.583  0.00  0.00    -0.267 OA
ATOM      4  H   UNL d   1      26.763 -15.343  -1.142  0.00  0.00     0.169 HD
ENDROOT
BRANCH   1   5
ATOM      5  C   UNL d   1      24.952 -16.467  -1.204  0.00  0.00     0.049 A 
ATOM      6  C   UNL d   1      23.600 -16.122  -1.445  0.00  0.00     0.032 A 
ATOM      7  C   UNL d   1      22.509 -16.857  -0.895  0.00  0.00     0.026 A 
ATOM      8  C   UNL d   1      22.737 -17.965  -0.091  0.00  0.00     0.035 A 
ATOM      9  C   UNL d   1      24.036 -18.297   0.228  0.00  0.00     0.041 A 
ATOM     10 CL   UNL d   1      21.439 -18.950   0.468  0.00  0.00    -0.084 Cl
ATOM     11  C   UNL d   1      25.121 -17.584  -0.350  0.00  0.00     0.043 A 
BRANCH  11  12
ATOM     12  C   UNL d   1      26.421 -18.053   0.139  0.00  0.00     0.194 C 
ATOM     13  O   UNL d   1      26.585 -19.267   0.230  0.00  0.00    -0.287 OA
BRANCH  12  14
ATOM     14  C   UNL d   1      27.537 -17.072   0.302  0.00  0.00     0.015 C 
ATOM     15  C   UNL d   1      27.419 -15.846   0.980  0.00  0.00     0.015 C 
ATOM     16  C   UNL d   1      28.379 -14.852   0.768  0.00  0.00     0.001 C 
ATOM     17  C   UNL d   1      29.494 -15.121  -0.030  0.00  0.00     0.000 C 
ATOM     18  C   UNL d   1      29.658 -16.379  -0.607  0.00  0.00     0.001 C 
ATOM     19  C   UNL d   1      28.686 -17.356  -0.430  0.00  0.00     0.015 C 
ENDBRANCH  12  14
ENDBRANCH  11  12
ENDBRANCH   1   5
BRANCH   2  20
ATOM     20  C   UNL d   1      27.189 -14.547  -3.848  0.00  0.00     0.096 C 
ATOM     21  S   UNL d   1      28.627 -15.437  -3.485  0.00  0.00    -0.080 SA
ATOM     22  C   UNL d   1      29.299 -15.154  -5.038  0.00  0.00     0.051 C 
ATOM     23  C   UNL d   1      30.196 -15.991  -5.741  0.00  0.00     0.120 C 
ATOM     24  C   UNL d   1      28.996 -13.845  -5.405  0.00  0.00     0.007 C 
ATOM     25  C   UNL d   1      31.156 -15.434  -6.587  0.00  0.00     0.037 C 
ATOM     26  C   UNL d   1      31.113 -14.066  -6.807  0.00  0.00     0.003 C 
ATOM     27  C   UNL d   1      30.028 -13.269  -6.275  0.00  0.00     0.014 C 
ATOM     28  C   UNL d   1      27.573 -13.593  -4.811  0.00  0.00     0.068 C 
ATOM     29 CL   UNL d   1      26.420 -12.454  -5.396  0.00  0.00    -0.082 Cl
BRANCH  23  30
ATOM     30  N   UNL d   1      30.038 -17.448  -5.705  0.00  0.00    -0.114 N 
ATOM     31  O   UNL d   1      29.657 -17.963  -4.647  0.00  0.00    -0.532 OA
ATOM     32  O   UNL d   1      30.389 -18.090  -6.702  0.00  0.00    -0.532 OA
ENDBRANCH  23  30
ENDBRANCH   2  20
TORSDOF 5
ENDMDL
MODEL 5
REMARK VINA RESULT:    -8.210      2.997      4.671
REMARK INTER + INTRA:         -11.431
REMARK INTER:                  -9.702
REMARK INTRA:                  -1.730
REMARK CONF_INDEPENDENT:        1.492
REMARK UNBOUND:                -1.730
REMARK  5 active torsions:
REMARK  status: ('A' for Active; 'I' for Inactive)
REMARK    1  A    between atoms: C_2  and  C_3 
REMARK    2  A    between atoms: C_2  and  C_9 
REMARK    3  A    between atoms: C_15  and  N_16 
REMARK       I    between atoms: N_16  and  C_17 
REMARK    4  A    between atoms: C_17  and  C_19 
REMARK    5  A    between atoms: C_22  and  N_23 
ROOT
ATOM      1  N   UNL d   1      27.159 -14.698  -0.626  0.00  0.00    -0.322 N 
ATOM      2  C   UNL d   1      27.349 -13.786   0.436  0.00  0.00     0.264 C 
ATOM      3  O   UNL d   1      26.929 -14.153   1.557  0.00  0.00    -0.267 OA
ATOM      4  H   UNL d   1      27.860 -14.722  -1.356  0.00  0.00     0.169 HD
ENDROOT
BRANCH   1   5
ATOM      5  C   UNL d   1      26.134 -15.763  -0.660  0.00  0.00     0.049 A 
ATOM      6  C   UNL d   1      26.236 -16.859   0.229  0.00  0.00     0.032 A 
ATOM      7  C   UNL d   1      25.304 -17.938   0.229  0.00  0.00     0.026 A 
ATOM      8  C   UNL d   1      24.237 -17.951  -0.659  0.00  0.00     0.035 A 
ATOM      9  C   UNL d   1      24.137 -16.939  -1.590  0.00  0.00     0.041 A 
ATOM     10 CL   UNL d   1      23.023 -19.170  -0.584  0.00  0.00    -0.084 Cl
ATOM     11  C   UNL d   1      25.046 -15.847  -1.563  0.00  0.00     0.043 A 
BRANCH  11  12
ATOM     12  C   UNL d   1      24.808 -14.896  -2.652  0.00  0.00     0.194 C 
ATOM     13  O   UNL d   1      23.670 -14.450  -2.772  0.00  0.00    -0.287 OA
BRANCH  12  14
ATOM     14  C   UNL d   1      25.972 -14.358  -3.419  0.00  0.00     0.015 C 
ATOM     15  C   UNL d   1      26.456 -13.042  -3.303  0.00  0.00     0.015 C 
ATOM     16  C   UNL d   1      27.287 -12.528  -4.302  0.00  0.00     0.001 C 
ATOM     17  C   UNL d   1      27.710 -13.352  -5.348  0.00  0.00     0.000 C 
ATOM     18  C   UNL d   1      27.314 -14.688  -5.393  0.00  0.00     0.001 C 
ATOM     19  C   UNL d   1      26.457 -15.191  -4.423  0.00  0.00     0.015 C 
ENDBRANCH  12  14
ENDBRANCH  11  12
ENDBRANCH   1   5
BRANCH   2  20
ATOM     20  C   UNL d   1      28.081 -12.478   0.391  0.00  0.00     0.096 C 
ATOM     21  S   UNL d   1      27.035 -11.187  -0.084  0.00  0.00    -0.080 SA
ATOM     22  C   UNL d   1      27.932 -10.019   0.797  0.00  0.00     0.051 C 
ATOM     23  C   UNL d   1      27.437  -8.828   1.377  0.00  0.00     0.120 C 
ATOM     24  C   UNL d   1      29.285 -10.318   0.652  0.00  0.00     0.007 C 
ATOM     25  C   UNL d   1      28.250  -7.696   1.452  0.00  0.00     0.037 C 
ATOM     26  C   UNL d   1      29.573  -7.819   1.061  0.00  0.00     0.003 C 
ATOM     27  C   UNL d   1      30.120  -9.113   0.710  0.00  0.00     0.014 C 
ATOM     28  C   UNL d   1      29.337 -11.879   0.616  0.00  0.00     0.068 C 
ATOM     29 CL   UNL d   1      30.687 -12.856   1.054  0.00  0.00    -0.082 Cl
BRANCH  23  30
ATOM     30  N   UNL d   1      26.127  -8.809   2.035  0.00  0.00    -0.114 N 
ATOM     31  O   UNL d   1      25.161  -8.383   1.390  0.00  0.00    -0.532 OA
ATOM     32  O   UNL d   1      26.078  -9.128   3.229  0.00  0.00    -0.532 OA
ENDBRANCH  23  30
ENDBRANCH   2  20
TORSDOF 5
ENDMDL
MODEL 6
REMARK VINA RESULT:    -8.205      5.151      9.743
REMARK INTER + INTRA:         -11.349
REMARK INTER:                  -9.696
REMARK INTRA:                  -1.652
REMARK CONF_INDEPENDENT:        1.492
REMARK UNBOUND:                -1.652
REMARK  5 active torsions:
REMARK  status: ('A' for Active; 'I' for Inactive)
REMARK    1  A    between atoms: C_2  and  C_3 
REMARK    2  A    between atoms: C_2  and  C_9 
REMARK    3  A    between atoms: C_15  and  N_16 
REMARK       I    between atoms: N_16  and  C_17 
REMARK    4  A    between atoms: C_17  and  C_19 
REMARK    5  A    between atoms: C_22  and  N_23 
ROOT
ATOM      1  N   UNL d   1      28.366 -15.612  -3.048  0.00  0.00    -0.322 N 
ATOM      2  C   UNL d   1      29.463 -16.470  -3.280  0.00  0.00     0.264 C 
ATOM      3  O   UNL d   1      29.857 -17.138  -2.297  0.00  0.00    -0.267 OA
ATOM      4  H   UNL d   1      27.716 -15.463  -3.809  0.00  0.00     0.169 HD
ENDROOT
BRANCH   1   5
ATOM      5  C   UNL d   1      27.970 -15.075  -1.728  0.00  0.00     0.049 A 
ATOM      6  C   UNL d   1      28.960 -14.559  -0.858  0.00  0.00     0.032 A 
ATOM      7  C   UNL d   1      28.655 -14.057   0.442  0.00  0.00     0.026 A 
ATOM      8  C   UNL d   1      27.349 -14.051   0.909  0.00  0.00     0.035 A 
ATOM      9  C   UNL d   1      26.361 -14.607   0.124  0.00  0.00     0.041 A 
ATOM     10 CL   UNL d   1      26.938 -13.323   2.415  0.00  0.00    -0.084 Cl
ATOM     11  C   UNL d   1      26.662 -15.073  -1.185  0.00  0.00     0.043 A 
BRANCH  11  12
ATOM     12  C   UNL d   1      25.497 -15.666  -1.847  0.00  0.00     0.194 C 
ATOM     13  O   UNL d   1      25.383 -15.483  -3.057  0.00  0.00    -0.287 OA
BRANCH  12  14
ATOM     14  C   UNL d   1      24.633 -16.622  -1.089  0.00  0.00     0.015 C 
ATOM     15  C   UNL d   1      25.094 -17.821  -0.517  0.00  0.00     0.015 C 
ATOM     16  C   UNL d   1      24.170 -18.807  -0.160  0.00  0.00     0.001 C 
ATOM     17  C   UNL d   1      22.801 -18.554  -0.279  0.00  0.00     0.000 C 
ATOM     18  C   UNL d   1      22.353 -17.318  -0.742  0.00  0.00     0.001 C 
ATOM     19  C   UNL d   1      23.269 -16.350  -1.134  0.00  0.00     0.015 C 
ENDBRANCH  12  14
ENDBRANCH  11  12
ENDBRANCH   1   5
BRANCH   2  20
ATOM     20  C   UNL d   1      30.144 -16.741  -4.588  0.00  0.00     0.096 C 
ATOM     21  S   UNL d   1      31.336 -17.984  -4.433  0.00  0.00    -0.080 SA
ATOM     22  C   UNL d   1      31.152 -18.485  -6.063  0.00  0.00     0.051 C 
ATOM     23  C   UNL d   1      31.357 -19.785  -6.581  0.00  0.00     0.120 C 
ATOM     24  C   UNL d   1      30.990 -17.345  -6.847  0.00  0.00     0.007 C 
ATOM     25  C   UNL d   1      31.835 -19.953  -7.881  0.00  0.00     0.037 C 
ATOM     26  C   UNL d   1      31.977 -18.824  -8.673  0.00  0.00     0.003 C 
ATOM     27  C   UNL d   1      31.520 -17.533  -8.202  0.00  0.00     0.014 C 
ATOM     28  C   UNL d   1      30.169 -16.367  -5.947  0.00  0.00     0.068 C 
ATOM     29 CL   UNL d   1      29.152 -15.092  -6.503  0.00  0.00    -0.082 Cl
BRANCH  23  30
ATOM     30  N   UNL d   1      30.934 -20.965  -5.820  0.00  0.00    -0.114 N 
ATOM     31  O   UNL d   1      30.030 -20.823  -4.988  0.00  0.00    -0.532 OA
ATOM     32  O   UNL d   1      31.571 -22.012  -5.981  0.00  0.00    -0.532 OA
ENDBRANCH  23  30
ENDBRANCH   2  20
TORSDOF 5
ENDMDL
MODEL 7
REMARK VINA RESULT:    -8.170      5.016      7.071
REMARK INTER + INTRA:         -11.320
REMARK INTER:                  -9.661
REMARK INTRA:                  -1.659
REMARK CONF_INDEPENDENT:        1.492
REMARK UNBOUND:                -1.659
REMARK  5 active torsions:
REMARK  status: ('A' for Active; 'I' for Inactive)
REMARK    1  A    between atoms: C_2  and  C_3 
REMARK    2  A    between atoms: C_2  and  C_9 
REMARK    3  A    between atoms: C_15  and  N_16 
REMARK       I    between atoms: N_16  and  C_17 
REMARK    4  A    between atoms: C_17  and  C_19 
REMARK    5  A    between atoms: C_22  and  N_23 
ROOT
ATOM      1  N   UNL d   1      27.739 -14.729  -2.992  0.00  0.00    -0.322 N 
ATOM      2  C   UNL d   1      27.416 -14.556  -4.356  0.00  0.00     0.264 C 
ATOM      3  O   UNL d   1      27.511 -15.575  -5.078  0.00  0.00    -0.267 OA
ATOM      4  H   UNL d   1      27.233 -14.172  -2.315  0.00  0.00     0.169 HD
ENDROOT
BRANCH   1   5
ATOM      5  C   UNL d   1      28.605 -15.798  -2.452  0.00  0.00     0.049 A 
ATOM      6  C   UNL d   1      29.697 -16.268  -3.220  0.00  0.00     0.032 A 
ATOM      7  C   UNL d   1      30.553 -17.320  -2.777  0.00  0.00     0.026 A 
ATOM      8  C   UNL d   1      30.345 -17.931  -1.549  0.00  0.00     0.035 A 
ATOM      9  C   UNL d   1      29.252 -17.554  -0.798  0.00  0.00     0.041 A 
ATOM     10 CL   UNL d   1      31.445 -19.104  -0.933  0.00  0.00    -0.084 Cl
ATOM     11  C   UNL d   1      28.423 -16.482  -1.224  0.00  0.00     0.043 A 
BRANCH  11  12
ATOM     12  C   UNL d   1      27.292 -16.256  -0.320  0.00  0.00     0.194 C 
ATOM     13  O   UNL d   1      27.458 -15.463   0.603  0.00  0.00    -0.287 OA
BRANCH  12  14
ATOM     14  C   UNL d   1      25.953 -16.820  -0.670  0.00  0.00     0.015 C 
ATOM     15  C   UNL d   1      24.935 -16.097  -1.315  0.00  0.00     0.015 C 
ATOM     16  C   UNL d   1      23.622 -16.574  -1.269  0.00  0.00     0.001 C 
ATOM     17  C   UNL d   1      23.351 -17.808  -0.674  0.00  0.00     0.000 C 
ATOM     18  C   UNL d   1      24.386 -18.571  -0.135  0.00  0.00     0.001 C 
ATOM     19  C   UNL d   1      25.686 -18.081  -0.145  0.00  0.00     0.015 C 
ENDBRANCH  12  14
ENDBRANCH  11  12
ENDBRANCH   1   5
BRANCH   2  20
ATOM     20  C   UNL d   1      26.882 -13.319  -5.014  0.00  0.00     0.096 C 
ATOM     21  S   UNL d   1      25.596 -12.620  -4.093  0.00  0.00    -0.080 SA
ATOM     22  C   UNL d   1      25.941 -11.035  -4.652  0.00  0.00     0.051 C 
ATOM     23  C   UNL d   1      25.710  -9.822  -3.962  0.00  0.00     0.120 C 
ATOM     24  C   UNL d   1      26.276 -11.118  -6.001  0.00  0.00     0.007 C 
ATOM     25  C   UNL d   1      25.382  -8.665  -4.671  0.00  0.00     0.037 C 
ATOM     26  C   UNL d   1      25.417  -8.719  -6.055  0.00  0.00     0.003 C 
ATOM     27  C   UNL d   1      25.903  -9.903  -6.734  0.00  0.00     0.014 C 
ATOM     28  C   UNL d   1      27.048 -12.471  -6.128  0.00  0.00     0.068 C 
ATOM     29 CL   UNL d   1      28.212 -12.862  -7.337  0.00  0.00    -0.082 Cl
BRANCH  23  30
ATOM     30  N   UNL d   1      25.953  -9.728  -2.519  0.00  0.00    -0.114 N 
ATOM     31  O   UNL d   1      25.523  -8.732  -1.923  0.00  0.00    -0.532 OA
ATOM     32  O   UNL d   1      26.658 -10.599  -1.997  0.00  0.00    -0.532 OA
ENDBRANCH  23  30
ENDBRANCH   2  20
TORSDOF 5
ENDMDL
MODEL 8
REMARK VINA RESULT:    -8.033      2.990      4.055
REMARK INTER + INTRA:         -11.495
REMARK INTER:                  -9.524
REMARK INTRA:                  -1.970
REMARK CONF_INDEPENDENT:        1.492
REMARK UNBOUND:                -1.970
REMARK  5 active torsions:
REMARK  status: ('A' for Active; 'I' for Inactive)
REMARK    1  A    between atoms: C_2  and  C_3 
REMARK    2  A    between atoms: C_2  and  C_9 
REMARK    3  A    between atoms: C_15  and  N_16 
REMARK       I    between atoms: N_16  and  C_17 
REMARK    4  A    between atoms: C_17  and  C_19 
REMARK    5  A    between atoms: C_22  and  N_23 
ROOT
ATOM      1  N   UNL d   1      28.034 -12.652  -2.712  0.00  0.00    -0.322 N 
ATOM      2  C   UNL d   1      27.326 -11.895  -1.753  0.00  0.00     0.264 C 
ATOM      3  O   UNL d   1      26.338 -11.253  -2.178  0.00  0.00    -0.267 OA
ATOM      4  H   UNL d   1      28.457 -13.519  -2.407  0.00  0.00     0.169 HD
ENDROOT
BRANCH   1   5
ATOM      5  C   UNL d   1      28.037 -12.392  -4.167  0.00  0.00     0.049 A 
ATOM      6  C   UNL d   1      28.387 -11.107  -4.647  0.00  0.00     0.032 A 
ATOM      7  C   UNL d   1      28.379 -10.775  -6.034  0.00  0.00     0.026 A 
ATOM      8  C   UNL d   1      28.025 -11.721  -6.985  0.00  0.00     0.035 A 
ATOM      9  C   UNL d   1      27.609 -12.965  -6.560  0.00  0.00     0.041 A 
ATOM     10 CL   UNL d   1      28.141 -11.386  -8.671  0.00  0.00    -0.084 Cl
ATOM     11  C   UNL d   1      27.654 -13.304  -5.181  0.00  0.00     0.043 A 
BRANCH  11  12
ATOM     12  C   UNL d   1      27.135 -14.650  -4.920  0.00  0.00     0.194 C 
ATOM     13  O   UNL d   1      27.407 -15.527  -5.736  0.00  0.00    -0.287 OA
BRANCH  12  14
ATOM     14  C   UNL d   1      26.496 -14.943  -3.601  0.00  0.00     0.015 C 
ATOM     15  C   UNL d   1      27.022 -15.833  -2.648  0.00  0.00     0.015 C 
ATOM     16  C   UNL d   1      26.192 -16.318  -1.633  0.00  0.00     0.001 C 
ATOM     17  C   UNL d   1      24.885 -15.839  -1.515  0.00  0.00     0.000 C 
ATOM     18  C   UNL d   1      24.410 -14.871  -2.398  0.00  0.00     0.001 C 
ATOM     19  C   UNL d   1      25.219 -14.416  -3.432  0.00  0.00     0.015 C 
ENDBRANCH  12  14
ENDBRANCH  11  12
ENDBRANCH   1   5
BRANCH   2  20
ATOM     20  C   UNL d   1      27.565 -11.851  -0.273  0.00  0.00     0.096 C 
ATOM     21  S   UNL d   1      27.968 -10.254   0.253  0.00  0.00    -0.080 SA
ATOM     22  C   UNL d   1      27.308 -10.508   1.817  0.00  0.00     0.051 C 
ATOM     23  C   UNL d   1      26.743  -9.532   2.669  0.00  0.00     0.120 C 
ATOM     24  C   UNL d   1      27.630 -11.805   2.213  0.00  0.00     0.007 C 
ATOM     25  C   UNL d   1      26.864  -9.658   4.054  0.00  0.00     0.037 C 
ATOM     26  C   UNL d   1      27.435 -10.817   4.554  0.00  0.00     0.003 C 
ATOM     27  C   UNL d   1      27.775 -11.912   3.669  0.00  0.00     0.014 C 
ATOM     28  C   UNL d   1      27.568 -12.641   0.894  0.00  0.00     0.068 C 
ATOM     29 CL   UNL d   1      27.267 -14.334   0.783  0.00  0.00    -0.082 Cl
BRANCH  23  30
ATOM     30  N   UNL d   1      25.902  -8.462   2.122  0.00  0.00    -0.114 N 
ATOM     31  O   UNL d   1      26.098  -7.309   2.525  0.00  0.00    -0.532 OA
ATOM     32  O   UNL d   1      24.982  -8.785   1.363  0.00  0.00    -0.532 OA
ENDBRANCH  23  30
ENDBRANCH   2  20
TORSDOF 5
ENDMDL
