MODEL 1
REMARK VINA RESULT:    -9.962      0.000      0.000
REMARK INTER + INTRA:         -12.673
REMARK INTER:                 -11.751
REMARK INTRA:                  -0.921
REMARK CONF_INDEPENDENT:        1.790
REMARK UNBOUND:                -0.921
REMARK  6 active torsions:
REMARK  status: ('A' for Active; 'I' for Inactive)
REMARK    1  A    between atoms: C_6  and  N_7 
REMARK       I    between atoms: N_7  and  C_8 
REMARK    2  A    between atoms: C_8  and  C_10 
REMARK       I    between atoms: C_10  and  N_12 
REMARK    3  A    between atoms: N_12  and  C_13 
REMARK    4  A    between atoms: C_13  and  C_14 
REMARK    5  A    between atoms: C_18  and  N_19 
REMARK       I    between atoms: N_19  and  C_20 
REMARK    6  A    between atoms: C_20  and  C_22 
ROOT
ATOM      1  C   UNL d   1      27.257 -14.542   1.389  0.00  0.00     0.309 C 
ATOM      2  O   UNL d   1      26.489 -14.063   0.569  0.00  0.00    -0.262 OA
ATOM      3  N   UNL d   1      27.877 -15.767   1.331  0.00  0.00    -0.349 N 
ATOM      4  H   UNL d   1      28.504 -15.961   2.103  0.00  0.00     0.163 HD
ENDROOT
BRANCH   3   5
ATOM      5  C   UNL d   1      27.711 -16.706   0.258  0.00  0.00     0.161 C 
BRANCH   5   6
ATOM      6  C   UNL d   1      26.493 -16.478  -0.611  0.00  0.00    -0.038 A 
ATOM      7  C   UNL d   1      26.415 -15.601  -1.692  0.00  0.00     0.009 A 
ATOM      8  C   UNL d   1      25.188 -15.354  -2.314  0.00  0.00     0.003 A 
ATOM      9  C   UNL d   1      24.033 -16.046  -1.921  0.00  0.00     0.029 A 
ATOM     10  C   UNL d   1      24.091 -16.962  -0.865  0.00  0.00     0.035 A 
ATOM     11  C   UNL d   1      25.327 -17.163  -0.242  0.00  0.00     0.038 A 
BRANCH  10  12
ATOM     12  N   UNL d   1      22.916 -17.634  -0.433  0.00  0.00    -0.321 N 
ATOM     13  C   UNL d   1      22.357 -18.761  -1.045  0.00  0.00     0.279 C 
ATOM     14  O   UNL d   1      22.817 -19.324  -2.041  0.00  0.00    -0.265 OA
ATOM     15  H   UNL d   1      22.504 -17.323   0.439  0.00  0.00     0.169 HD
BRANCH  13  16
ATOM     16  C   UNL d   1      21.150 -19.271  -0.437  0.00  0.00     0.142 A 
ATOM     17  C   UNL d   1      20.720 -19.325   0.874  0.00  0.00     0.045 A 
ATOM     18  C   UNL d   1      19.392 -19.817   0.844  0.00  0.00     0.027 A 
ATOM     19  C   UNL d   1      19.091 -20.041  -0.478  0.00  0.00     0.143 A 
ATOM     20  O   UNL d   1      20.144 -19.703  -1.262  0.00  0.00    -0.317 OA
ENDBRANCH  13  16
ENDBRANCH  10  12
ENDBRANCH   5   6
ENDBRANCH   3   5
BRANCH   1  21
ATOM     21  C   UNL d   1      27.645 -13.775   2.671  0.00  0.00     0.314 C 
ATOM     22  N   UNL d   1      28.460 -14.465   3.559  0.00  0.00    -0.318 N 
ATOM     23  H   UNL d   1      28.705 -15.404   3.265  0.00  0.00     0.169 HD
ATOM     24  O   UNL d   1      27.190 -12.638   2.764  0.00  0.00    -0.262 OA
BRANCH  22  25
ATOM     25  C   UNL d   1      28.951 -13.970   4.802  0.00  0.00     0.041 A 
ATOM     26  C   UNL d   1      28.526 -14.557   6.004  0.00  0.00     0.030 A 
ATOM     27  C   UNL d   1      28.985 -14.135   7.247  0.00  0.00     0.003 A 
ATOM     28  C   UNL d   1      29.874 -13.081   7.327  0.00  0.00     0.007 A 
ATOM     29  C   UNL d   1      30.317 -12.442   6.161  0.00  0.00    -0.054 A 
ATOM     30  C   UNL d   1      31.268 -11.282   6.330  0.00  0.00     0.049 C 
ATOM     31  C   UNL d   1      29.871 -12.891   4.877  0.00  0.00    -0.029 A 
ATOM     32  C   UNL d   1      30.418 -12.189   3.658  0.00  0.00     0.051 C 
ENDBRANCH  22  25
ENDBRANCH   1  21
TORSDOF 6
ENDMDL
MODEL 2
REMARK VINA RESULT:    -9.858      5.400      8.273
REMARK INTER + INTRA:         -14.329
REMARK INTER:                 -11.648
REMARK INTRA:                  -2.681
REMARK CONF_INDEPENDENT:        1.790
REMARK UNBOUND:                -2.681
REMARK  6 active torsions:
REMARK  status: ('A' for Active; 'I' for Inactive)
REMARK    1  A    between atoms: C_6  and  N_7 
REMARK       I    between atoms: N_7  and  C_8 
REMARK    2  A    between atoms: C_8  and  C_10 
REMARK       I    between atoms: C_10  and  N_12 
REMARK    3  A    between atoms: N_12  and  C_13 
REMARK    4  A    between atoms: C_13  and  C_14 
REMARK    5  A    between atoms: C_18  and  N_19 
REMARK       I    between atoms: N_19  and  C_20 
REMARK    6  A    between atoms: C_20  and  C_22 
ROOT
ATOM      1  C   UNL d   1      25.584 -14.114  -4.346  0.00  0.00     0.309 C 
ATOM      2  O   UNL d   1      24.808 -13.180  -4.481  0.00  0.00    -0.262 OA
ATOM      3  N   UNL d   1      25.527 -15.112  -3.404  0.00  0.00    -0.349 N 
ATOM      4  H   UNL d   1      26.253 -15.814  -3.486  0.00  0.00     0.163 HD
ENDROOT
BRANCH   3   5
ATOM      5  C   UNL d   1      24.510 -15.213  -2.395  0.00  0.00     0.161 C 
BRANCH   5   6
ATOM      6  C   UNL d   1      24.711 -16.328  -1.392  0.00  0.00    -0.038 A 
ATOM      7  C   UNL d   1      25.939 -16.856  -0.995  0.00  0.00     0.009 A 
ATOM      8  C   UNL d   1      25.989 -17.995  -0.187  0.00  0.00     0.003 A 
ATOM      9  C   UNL d   1      24.813 -18.575   0.310  0.00  0.00     0.029 A 
ATOM     10  C   UNL d   1      23.568 -18.042  -0.040  0.00  0.00     0.035 A 
ATOM     11  C   UNL d   1      23.549 -16.921  -0.877  0.00  0.00     0.038 A 
BRANCH  10  12
ATOM     12  N   UNL d   1      22.371 -18.650   0.424  0.00  0.00    -0.321 N 
ATOM     13  C   UNL d   1      21.369 -19.190  -0.390  0.00  0.00     0.279 C 
ATOM     14  O   UNL d   1      21.399 -19.215  -1.623  0.00  0.00    -0.265 OA
ATOM     15  H   UNL d   1      22.280 -18.779   1.425  0.00  0.00     0.169 HD
BRANCH  13  16
ATOM     16  C   UNL d   1      20.231 -19.748   0.302  0.00  0.00     0.142 A 
ATOM     17  C   UNL d   1      19.087 -20.378  -0.145  0.00  0.00     0.045 A 
ATOM     18  C   UNL d   1      18.395 -20.825   1.007  0.00  0.00     0.027 A 
ATOM     19  C   UNL d   1      19.150 -20.437   2.088  0.00  0.00     0.143 A 
ATOM     20  O   UNL d   1      20.268 -19.795   1.672  0.00  0.00    -0.317 OA
ENDBRANCH  13  16
ENDBRANCH  10  12
ENDBRANCH   5   6
ENDBRANCH   3   5
BRANCH   1  21
ATOM     21  C   UNL d   1      26.798 -14.292  -5.282  0.00  0.00     0.314 C 
ATOM     22  N   UNL d   1      27.276 -13.130  -5.872  0.00  0.00    -0.318 N 
ATOM     23  H   UNL d   1      26.766 -12.289  -5.624  0.00  0.00     0.169 HD
ATOM     24  O   UNL d   1      27.208 -15.444  -5.401  0.00  0.00    -0.262 OA
BRANCH  22  25
ATOM     25  C   UNL d   1      28.382 -13.039  -6.766  0.00  0.00     0.041 A 
ATOM     26  C   UNL d   1      29.550 -13.776  -6.509  0.00  0.00     0.030 A 
ATOM     27  C   UNL d   1      30.654 -13.747  -7.354  0.00  0.00     0.003 A 
ATOM     28  C   UNL d   1      30.634 -12.948  -8.480  0.00  0.00     0.007 A 
ATOM     29  C   UNL d   1      29.503 -12.175  -8.777  0.00  0.00    -0.054 A 
ATOM     30  C   UNL d   1      29.566 -11.309 -10.012  0.00  0.00     0.049 C 
ATOM     31  C   UNL d   1      28.353 -12.223  -7.927  0.00  0.00    -0.029 A 
ATOM     32  C   UNL d   1      27.152 -11.398  -8.324  0.00  0.00     0.051 C 
ENDBRANCH  22  25
ENDBRANCH   1  21
TORSDOF 6
ENDMDL
MODEL 3
REMARK VINA RESULT:    -9.786      5.223      7.879
REMARK INTER + INTRA:         -14.366
REMARK INTER:                 -11.576
REMARK INTRA:                  -2.789
REMARK CONF_INDEPENDENT:        1.790
REMARK UNBOUND:                -2.789
REMARK  6 active torsions:
REMARK  status: ('A' for Active; 'I' for Inactive)
REMARK    1  A    between atoms: C_6  and  N_7 
REMARK       I    between atoms: N_7  and  C_8 
REMARK    2  A    between atoms: C_8  and  C_10 
REMARK       I    between atoms: C_10  and  N_12 
REMARK    3  A    between atoms: N_12  and  C_13 
REMARK    4  A    between atoms: C_13  and  C_14 
REMARK    5  A    between atoms: C_18  and  N_19 
REMARK       I    between atoms: N_19  and  C_20 
REMARK    6  A    between atoms: C_20  and  C_22 
ROOT
ATOM      1  C   UNL d   1      27.061 -15.039  -3.473  0.00  0.00     0.309 C 
ATOM      2  O   UNL d   1      27.631 -14.636  -2.470  0.00  0.00    -0.262 OA
ATOM      3  N   UNL d   1      25.736 -15.380  -3.594  0.00  0.00    -0.349 N 
ATOM      4  H   UNL d   1      25.454 -15.661  -4.527  0.00  0.00     0.163 HD
ENDROOT
BRANCH   3   5
ATOM      5  C   UNL d   1      24.783 -15.313  -2.522  0.00  0.00     0.161 C 
BRANCH   5   6
ATOM      6  C   UNL d   1      24.936 -16.381  -1.462  0.00  0.00    -0.038 A 
ATOM      7  C   UNL d   1      26.143 -16.912  -1.008  0.00  0.00     0.009 A 
ATOM      8  C   UNL d   1      26.150 -18.011  -0.144  0.00  0.00     0.003 A 
ATOM      9  C   UNL d   1      24.950 -18.544   0.349  0.00  0.00     0.029 A 
ATOM     10  C   UNL d   1      23.725 -18.005  -0.059  0.00  0.00     0.035 A 
ATOM     11  C   UNL d   1      23.750 -16.926  -0.949  0.00  0.00     0.038 A 
BRANCH  10  12
ATOM     12  N   UNL d   1      22.505 -18.567   0.402  0.00  0.00    -0.321 N 
ATOM     13  C   UNL d   1      21.453 -18.999  -0.413  0.00  0.00     0.279 C 
ATOM     14  O   UNL d   1      21.451 -18.953  -1.645  0.00  0.00    -0.265 OA
ATOM     15  H   UNL d   1      22.430 -18.749   1.397  0.00  0.00     0.169 HD
BRANCH  13  16
ATOM     16  C   UNL d   1      20.300 -19.527   0.278  0.00  0.00     0.142 A 
ATOM     17  C   UNL d   1      19.153 -20.152  -0.170  0.00  0.00     0.045 A 
ATOM     18  C   UNL d   1      18.442 -20.567   0.984  0.00  0.00     0.027 A 
ATOM     19  C   UNL d   1      19.189 -20.166   2.065  0.00  0.00     0.143 A 
ATOM     20  O   UNL d   1      20.321 -19.546   1.649  0.00  0.00    -0.317 OA
ENDBRANCH  13  16
ENDBRANCH  10  12
ENDBRANCH   5   6
ENDBRANCH   3   5
BRANCH   1  21
ATOM     21  C   UNL d   1      27.814 -15.222  -4.807  0.00  0.00     0.314 C 
ATOM     22  N   UNL d   1      29.188 -15.391  -4.702  0.00  0.00    -0.318 N 
ATOM     23  H   UNL d   1      29.545 -15.369  -3.753  0.00  0.00     0.169 HD
ATOM     24  O   UNL d   1      27.114 -15.200  -5.816  0.00  0.00    -0.262 OA
BRANCH  22  25
ATOM     25  C   UNL d   1      30.094 -15.582  -5.786  0.00  0.00     0.041 A 
ATOM     26  C   UNL d   1      30.464 -14.489  -6.586  0.00  0.00     0.030 A 
ATOM     27  C   UNL d   1      31.360 -14.605  -7.643  0.00  0.00     0.003 A 
ATOM     28  C   UNL d   1      31.898 -15.839  -7.953  0.00  0.00     0.007 A 
ATOM     29  C   UNL d   1      31.549 -16.969  -7.201  0.00  0.00    -0.054 A 
ATOM     30  C   UNL d   1      32.158 -18.286  -7.616  0.00  0.00     0.049 C 
ATOM     31  C   UNL d   1      30.650 -16.851  -6.094  0.00  0.00    -0.029 A 
ATOM     32  C   UNL d   1      30.347 -18.098  -5.299  0.00  0.00     0.051 C 
ENDBRANCH  22  25
ENDBRANCH   1  21
TORSDOF 6
ENDMDL
MODEL 4
REMARK VINA RESULT:    -9.704      5.321      7.963
REMARK INTER + INTRA:         -14.398
REMARK INTER:                 -11.494
REMARK INTRA:                  -2.904
REMARK CONF_INDEPENDENT:        1.790
REMARK UNBOUND:                -2.904
REMARK  6 active torsions:
REMARK  status: ('A' for Active; 'I' for Inactive)
REMARK    1  A    between atoms: C_6  and  N_7 
REMARK       I    between atoms: N_7  and  C_8 
REMARK    2  A    between atoms: C_8  and  C_10 
REMARK       I    between atoms: C_10  and  N_12 
REMARK    3  A    between atoms: N_12  and  C_13 
REMARK    4  A    between atoms: C_13  and  C_14 
REMARK    5  A    between atoms: C_18  and  N_19 
REMARK       I    between atoms: N_19  and  C_20 
REMARK    6  A    between atoms: C_20  and  C_22 
ROOT
ATOM      1  C   UNL d   1      26.051 -15.101  -4.373  0.00  0.00     0.309 C 
ATOM      2  O   UNL d   1      25.419 -15.870  -5.083  0.00  0.00    -0.262 OA
ATOM      3  N   UNL d   1      25.725 -14.683  -3.106  0.00  0.00    -0.349 N 
ATOM      4  H   UNL d   1      26.404 -14.066  -2.676  0.00  0.00     0.163 HD
ENDROOT
BRANCH   3   5
ATOM      5  C   UNL d   1      24.548 -15.100  -2.395  0.00  0.00     0.161 C 
BRANCH   5   6
ATOM      6  C   UNL d   1      24.758 -16.238  -1.421  0.00  0.00    -0.038 A 
ATOM      7  C   UNL d   1      25.988 -16.787  -1.060  0.00  0.00     0.009 A 
ATOM      8  C   UNL d   1      26.042 -17.944  -0.278  0.00  0.00     0.003 A 
ATOM      9  C   UNL d   1      24.870 -18.523   0.230  0.00  0.00     0.029 A 
ATOM     10  C   UNL d   1      23.625 -17.969  -0.083  0.00  0.00     0.035 A 
ATOM     11  C   UNL d   1      23.601 -16.830  -0.895  0.00  0.00     0.038 A 
BRANCH  10  12
ATOM     12  N   UNL d   1      22.430 -18.575   0.392  0.00  0.00    -0.321 N 
ATOM     13  C   UNL d   1      21.401 -19.076  -0.412  0.00  0.00     0.279 C 
ATOM     14  O   UNL d   1      21.400 -19.063  -1.645  0.00  0.00    -0.265 OA
ATOM     15  H   UNL d   1      22.362 -18.734   1.391  0.00  0.00     0.169 HD
BRANCH  13  16
ATOM     16  C   UNL d   1      20.273 -19.639   0.292  0.00  0.00     0.142 A 
ATOM     17  C   UNL d   1      19.117 -20.256  -0.145  0.00  0.00     0.045 A 
ATOM     18  C   UNL d   1      18.443 -20.719   1.012  0.00  0.00     0.027 A 
ATOM     19  C   UNL d   1      19.219 -20.352   2.085  0.00  0.00     0.143 A 
ATOM     20  O   UNL d   1      20.334 -19.709   1.660  0.00  0.00    -0.317 OA
ENDBRANCH  13  16
ENDBRANCH  10  12
ENDBRANCH   5   6
ENDBRANCH   3   5
BRANCH   1  21
ATOM     21  C   UNL d   1      27.376 -14.470  -4.850  0.00  0.00     0.314 C 
ATOM     22  N   UNL d   1      27.766 -14.800  -6.142  0.00  0.00    -0.318 N 
ATOM     23  H   UNL d   1      27.135 -15.429  -6.626  0.00  0.00     0.169 HD
ATOM     24  O   UNL d   1      27.938 -13.744  -4.036  0.00  0.00    -0.262 OA
BRANCH  22  25
ATOM     25  C   UNL d   1      28.942 -14.343  -6.803  0.00  0.00     0.041 A 
ATOM     26  C   UNL d   1      28.937 -13.099  -7.455  0.00  0.00     0.030 A 
ATOM     27  C   UNL d   1      30.058 -12.586  -8.099  0.00  0.00     0.003 A 
ATOM     28  C   UNL d   1      31.224 -13.324  -8.135  0.00  0.00     0.007 A 
ATOM     29  C   UNL d   1      31.283 -14.582  -7.519  0.00  0.00    -0.054 A 
ATOM     30  C   UNL d   1      32.584 -15.339  -7.621  0.00  0.00     0.049 C 
ATOM     31  C   UNL d   1      30.141 -15.102  -6.829  0.00  0.00    -0.029 A 
ATOM     32  C   UNL d   1      30.282 -16.443  -6.151  0.00  0.00     0.051 C 
ENDBRANCH  22  25
ENDBRANCH   1  21
TORSDOF 6
ENDMDL
MODEL 5
REMARK VINA RESULT:    -9.483      4.773      7.128
REMARK INTER + INTRA:         -14.026
REMARK INTER:                 -11.273
REMARK INTRA:                  -2.753
REMARK CONF_INDEPENDENT:        1.790
REMARK UNBOUND:                -2.753
REMARK  6 active torsions:
REMARK  status: ('A' for Active; 'I' for Inactive)
REMARK    1  A    between atoms: C_6  and  N_7 
REMARK       I    between atoms: N_7  and  C_8 
REMARK    2  A    between atoms: C_8  and  C_10 
REMARK       I    between atoms: C_10  and  N_12 
REMARK    3  A    between atoms: N_12  and  C_13 
REMARK    4  A    between atoms: C_13  and  C_14 
REMARK    5  A    between atoms: C_18  and  N_19 
REMARK       I    between atoms: N_19  and  C_20 
REMARK    6  A    between atoms: C_20  and  C_22 
ROOT
ATOM      1  C   UNL d   1      25.461 -13.824  -3.683  0.00  0.00     0.309 C 
ATOM      2  O   UNL d   1      24.774 -14.071  -4.662  0.00  0.00    -0.262 OA
ATOM      3  N   UNL d   1      25.914 -14.715  -2.740  0.00  0.00    -0.349 N 
ATOM      4  H   UNL d   1      26.501 -14.309  -2.021  0.00  0.00     0.163 HD
ENDROOT
BRANCH   3   5
ATOM      5  C   UNL d   1      25.637 -16.124  -2.762  0.00  0.00     0.161 C 
BRANCH   5   6
ATOM      6  C   UNL d   1      25.573 -16.785  -1.402  0.00  0.00    -0.038 A 
ATOM      7  C   UNL d   1      26.652 -16.995  -0.546  0.00  0.00     0.009 A 
ATOM      8  C   UNL d   1      26.495 -17.765   0.611  0.00  0.00     0.003 A 
ATOM      9  C   UNL d   1      25.237 -18.264   0.976  0.00  0.00     0.029 A 
ATOM     10  C   UNL d   1      24.128 -18.034   0.155  0.00  0.00     0.035 A 
ATOM     11  C   UNL d   1      24.323 -17.288  -1.013  0.00  0.00     0.038 A 
BRANCH  10  12
ATOM     12  N   UNL d   1      22.859 -18.574   0.495  0.00  0.00    -0.321 N 
ATOM     13  C   UNL d   1      21.885 -18.991  -0.419  0.00  0.00     0.279 C 
ATOM     14  O   UNL d   1      22.005 -18.950  -1.645  0.00  0.00    -0.265 OA
ATOM     15  H   UNL d   1      22.684 -18.750   1.478  0.00  0.00     0.169 HD
BRANCH  13  16
ATOM     16  C   UNL d   1      20.661 -19.497   0.157  0.00  0.00     0.142 A 
ATOM     17  C   UNL d   1      19.538 -20.074  -0.403  0.00  0.00     0.045 A 
ATOM     18  C   UNL d   1      18.718 -20.491   0.674  0.00  0.00     0.027 A 
ATOM     19  C   UNL d   1      19.381 -20.140   1.825  0.00  0.00     0.143 A 
ATOM     20  O   UNL d   1      20.562 -19.548   1.524  0.00  0.00    -0.317 OA
ENDBRANCH  13  16
ENDBRANCH  10  12
ENDBRANCH   5   6
ENDBRANCH   3   5
BRANCH   1  21
ATOM     21  C   UNL d   1      25.932 -12.388  -3.372  0.00  0.00     0.314 C 
ATOM     22  N   UNL d   1      25.459 -11.403  -4.229  0.00  0.00    -0.318 N 
ATOM     23  H   UNL d   1      24.857 -11.743  -4.971  0.00  0.00     0.169 HD
ATOM     24  O   UNL d   1      26.673 -12.274  -2.399  0.00  0.00    -0.262 OA
BRANCH  22  25
ATOM     25  C   UNL d   1      25.749 -10.010  -4.145  0.00  0.00     0.041 A 
ATOM     26  C   UNL d   1      25.834  -9.390  -2.888  0.00  0.00     0.030 A 
ATOM     27  C   UNL d   1      26.136  -8.041  -2.738  0.00  0.00     0.003 A 
ATOM     28  C   UNL d   1      26.336  -7.255  -3.856  0.00  0.00     0.007 A 
ATOM     29  C   UNL d   1      26.243  -7.816  -5.138  0.00  0.00    -0.054 A 
ATOM     30  C   UNL d   1      26.450  -6.889  -6.311  0.00  0.00     0.049 C 
ATOM     31  C   UNL d   1      25.962  -9.210  -5.297  0.00  0.00    -0.029 A 
ATOM     32  C   UNL d   1      25.916  -9.760  -6.702  0.00  0.00     0.051 C 
ENDBRANCH  22  25
ENDBRANCH   1  21
TORSDOF 6
ENDMDL
MODEL 6
REMARK VINA RESULT:    -9.447      5.029      8.197
REMARK INTER + INTRA:         -13.430
REMARK INTER:                 -11.236
REMARK INTRA:                  -2.194
REMARK CONF_INDEPENDENT:        1.790
REMARK UNBOUND:                -2.194
REMARK  6 active torsions:
REMARK  status: ('A' for Active; 'I' for Inactive)
REMARK    1  A    between atoms: C_6  and  N_7 
REMARK       I    between atoms: N_7  and  C_8 
REMARK    2  A    between atoms: C_8  and  C_10 
REMARK       I    between atoms: C_10  and  N_12 
REMARK    3  A    between atoms: N_12  and  C_13 
REMARK    4  A    between atoms: C_13  and  C_14 
REMARK    5  A    between atoms: C_18  and  N_19 
REMARK       I    between atoms: N_19  and  C_20 
REMARK    6  A    between atoms: C_20  and  C_22 
ROOT
ATOM      1  C   UNL d   1      27.083 -15.457  -4.876  0.00  0.00     0.309 C 
ATOM      2  O   UNL d   1      26.270 -15.623  -5.773  0.00  0.00    -0.262 OA
ATOM      3  N   UNL d   1      26.837 -15.443  -3.525  0.00  0.00    -0.349 N 
ATOM      4  H   UNL d   1      27.660 -15.321  -2.946  0.00  0.00     0.163 HD
ENDROOT
BRANCH   3   5
ATOM      5  C   UNL d   1      25.540 -15.627  -2.937  0.00  0.00     0.161 C 
BRANCH   5   6
ATOM      6  C   UNL d   1      25.523 -16.450  -1.668  0.00  0.00    -0.038 A 
ATOM      7  C   UNL d   1      26.589 -16.609  -0.785  0.00  0.00     0.009 A 
ATOM      8  C   UNL d   1      26.505 -17.528   0.266  0.00  0.00     0.003 A 
ATOM      9  C   UNL d   1      25.320 -18.239   0.504  0.00  0.00     0.029 A 
ATOM     10  C   UNL d   1      24.220 -18.069  -0.343  0.00  0.00     0.035 A 
ATOM     11  C   UNL d   1      24.346 -17.167  -1.406  0.00  0.00     0.038 A 
BRANCH  10  12
ATOM     12  N   UNL d   1      23.031 -18.818  -0.135  0.00  0.00    -0.321 N 
ATOM     13  C   UNL d   1      21.755 -18.451  -0.575  0.00  0.00     0.279 C 
ATOM     14  O   UNL d   1      21.496 -17.426  -1.209  0.00  0.00    -0.265 OA
ATOM     15  H   UNL d   1      23.134 -19.733   0.289  0.00  0.00     0.169 HD
BRANCH  13  16
ATOM     16  C   UNL d   1      20.688 -19.364  -0.238  0.00  0.00     0.142 A 
ATOM     17  C   UNL d   1      20.575 -20.348   0.725  0.00  0.00     0.045 A 
ATOM     18  C   UNL d   1      19.242 -20.825   0.661  0.00  0.00     0.027 A 
ATOM     19  C   UNL d   1      18.623 -20.113  -0.338  0.00  0.00     0.143 A 
ATOM     20  O   UNL d   1      19.485 -19.219  -0.880  0.00  0.00    -0.317 OA
ENDBRANCH  13  16
ENDBRANCH  10  12
ENDBRANCH   5   6
ENDBRANCH   3   5
BRANCH   1  21
ATOM     21  C   UNL d   1      28.579 -15.228  -5.179  0.00  0.00     0.314 C 
ATOM     22  N   UNL d   1      28.920 -15.191  -6.525  0.00  0.00    -0.318 N 
ATOM     23  H   UNL d   1      28.141 -15.326  -7.161  0.00  0.00     0.169 HD
ATOM     24  O   UNL d   1      29.303 -15.102  -4.195  0.00  0.00    -0.262 OA
BRANCH  22  25
ATOM     25  C   UNL d   1      30.228 -14.991  -7.052  0.00  0.00     0.041 A 
ATOM     26  C   UNL d   1      30.606 -13.721  -7.517  0.00  0.00     0.030 A 
ATOM     27  C   UNL d   1      31.875 -13.456  -8.021  0.00  0.00     0.003 A 
ATOM     28  C   UNL d   1      32.806 -14.472  -8.102  0.00  0.00     0.007 A 
ATOM     29  C   UNL d   1      32.478 -15.765  -7.671  0.00  0.00    -0.054 A 
ATOM     30  C   UNL d   1      33.540 -16.828  -7.814  0.00  0.00     0.049 C 
ATOM     31  C   UNL d   1      31.185 -16.038  -7.124  0.00  0.00    -0.029 A 
ATOM     32  C   UNL d   1      30.908 -17.440  -6.639  0.00  0.00     0.051 C 
ENDBRANCH  22  25
ENDBRANCH   1  21
TORSDOF 6
ENDMDL
MODEL 7
REMARK VINA RESULT:    -9.399      1.497      2.056
REMARK INTER + INTRA:         -13.556
REMARK INTER:                 -11.189
REMARK INTRA:                  -2.367
REMARK CONF_INDEPENDENT:        1.790
REMARK UNBOUND:                -2.367
REMARK  6 active torsions:
REMARK  status: ('A' for Active; 'I' for Inactive)
REMARK    1  A    between atoms: C_6  and  N_7 
REMARK       I    between atoms: N_7  and  C_8 
REMARK    2  A    between atoms: C_8  and  C_10 
REMARK       I    between atoms: C_10  and  N_12 
REMARK    3  A    between atoms: N_12  and  C_13 
REMARK    4  A    between atoms: C_13  and  C_14 
REMARK    5  A    between atoms: C_18  and  N_19 
REMARK       I    between atoms: N_19  and  C_20 
REMARK    6  A    between atoms: C_20  and  C_22 
ROOT
ATOM      1  C   UNL d   1      27.343 -15.276   1.083  0.00  0.00     0.309 C 
ATOM      2  O   UNL d   1      26.308 -14.876   0.573  0.00  0.00    -0.262 OA
ATOM      3  N   UNL d   1      27.983 -16.467   0.839  0.00  0.00    -0.349 N 
ATOM      4  H   UNL d   1      28.852 -16.593   1.346  0.00  0.00     0.163 HD
ENDROOT
BRANCH   3   5
ATOM      5  C   UNL d   1      27.516 -17.461  -0.086  0.00  0.00     0.161 C 
BRANCH   5   6
ATOM      6  C   UNL d   1      26.146 -17.197  -0.672  0.00  0.00    -0.038 A 
ATOM      7  C   UNL d   1      25.855 -16.289  -1.688  0.00  0.00     0.009 A 
ATOM      8  C   UNL d   1      24.527 -16.014  -2.030  0.00  0.00     0.003 A 
ATOM      9  C   UNL d   1      23.471 -16.707  -1.421  0.00  0.00     0.029 A 
ATOM     10  C   UNL d   1      23.737 -17.653  -0.426  0.00  0.00     0.035 A 
ATOM     11  C   UNL d   1      25.074 -17.883  -0.083  0.00  0.00     0.038 A 
BRANCH  10  12
ATOM     12  N   UNL d   1      22.670 -18.328   0.227  0.00  0.00    -0.321 N 
ATOM     13  C   UNL d   1      21.585 -18.936  -0.413  0.00  0.00     0.279 C 
ATOM     14  O   UNL d   1      21.415 -18.969  -1.634  0.00  0.00    -0.265 OA
ATOM     15  H   UNL d   1      22.752 -18.454   1.229  0.00  0.00     0.169 HD
BRANCH  13  16
ATOM     16  C   UNL d   1      20.611 -19.555   0.456  0.00  0.00     0.142 A 
ATOM     17  C   UNL d   1      19.598 -20.463   0.220  0.00  0.00     0.045 A 
ATOM     18  C   UNL d   1      19.058 -20.804   1.484  0.00  0.00     0.027 A 
ATOM     19  C   UNL d   1      19.764 -20.080   2.415  0.00  0.00     0.143 A 
ATOM     20  O   UNL d   1      20.713 -19.330   1.804  0.00  0.00    -0.317 OA
ENDBRANCH  13  16
ENDBRANCH  10  12
ENDBRANCH   5   6
ENDBRANCH   3   5
BRANCH   1  21
ATOM     21  C   UNL d   1      28.102 -14.433   2.129  0.00  0.00     0.314 C 
ATOM     22  N   UNL d   1      27.310 -13.639   2.949  0.00  0.00    -0.318 N 
ATOM     23  H   UNL d   1      26.315 -13.699   2.761  0.00  0.00     0.169 HD
ATOM     24  O   UNL d   1      29.324 -14.559   2.123  0.00  0.00    -0.262 OA
BRANCH  22  25
ATOM     25  C   UNL d   1      27.776 -12.781   3.986  0.00  0.00     0.041 A 
ATOM     26  C   UNL d   1      27.763 -11.389   3.799  0.00  0.00     0.030 A 
ATOM     27  C   UNL d   1      28.183 -10.498   4.781  0.00  0.00     0.003 A 
ATOM     28  C   UNL d   1      28.661 -10.979   5.984  0.00  0.00     0.007 A 
ATOM     29  C   UNL d   1      28.716 -12.360   6.219  0.00  0.00    -0.054 A 
ATOM     30  C   UNL d   1      29.273 -12.810   7.548  0.00  0.00     0.049 C 
ATOM     31  C   UNL d   1      28.258 -13.281   5.224  0.00  0.00    -0.029 A 
ATOM     32  C   UNL d   1      28.305 -14.753   5.556  0.00  0.00     0.051 C 
ENDBRANCH  22  25
ENDBRANCH   1  21
TORSDOF 6
ENDMDL
MODEL 8
REMARK VINA RESULT:    -8.596      5.613      9.233
REMARK INTER + INTRA:         -13.414
REMARK INTER:                 -10.386
REMARK INTRA:                  -3.029
REMARK CONF_INDEPENDENT:        1.790
REMARK UNBOUND:                -3.029
REMARK  6 active torsions:
REMARK  status: ('A' for Active; 'I' for Inactive)
REMARK    1  A    between atoms: C_6  and  N_7 
REMARK       I    between atoms: N_7  and  C_8 
REMARK    2  A    between atoms: C_8  and  C_10 
REMARK       I    between atoms: C_10  and  N_12 
REMARK    3  A    between atoms: N_12  and  C_13 
REMARK    4  A    between atoms: C_13  and  C_14 
REMARK    5  A    between atoms: C_18  and  N_19 
REMARK       I    between atoms: N_19  and  C_20 
REMARK    6  A    between atoms: C_20  and  C_22 
ROOT
ATOM      1  C   UNL d   1      26.238 -12.718  -3.987  0.00  0.00     0.309 C 
ATOM      2  O   UNL d   1      27.346 -12.403  -3.582  0.00  0.00    -0.262 OA
ATOM      3  N   UNL d   1      25.530 -12.133  -5.009  0.00  0.00    -0.349 N 
ATOM      4  H   UNL d   1      24.637 -12.568  -5.209  0.00  0.00     0.163 HD
ENDROOT
BRANCH   3   5
ATOM      5  C   UNL d   1      26.002 -11.021  -5.786  0.00  0.00     0.161 C 
BRANCH   5   6
ATOM      6  C   UNL d   1      26.956 -11.380  -6.904  0.00  0.00    -0.038 A 
ATOM      7  C   UNL d   1      27.042 -10.740  -8.139  0.00  0.00     0.009 A 
ATOM      8  C   UNL d   1      27.848 -11.267  -9.153  0.00  0.00     0.003 A 
ATOM      9  C   UNL d   1      28.649 -12.394  -8.919  0.00  0.00     0.029 A 
ATOM     10  C   UNL d   1      28.612 -13.032  -7.675  0.00  0.00     0.035 A 
ATOM     11  C   UNL d   1      27.772 -12.500  -6.692  0.00  0.00     0.038 A 
BRANCH  10  12
ATOM     12  N   UNL d   1      29.388 -14.200  -7.445  0.00  0.00    -0.321 N 
ATOM     13  C   UNL d   1      29.090 -15.200  -6.513  0.00  0.00     0.279 C 
ATOM     14  O   UNL d   1      28.106 -15.200  -5.770  0.00  0.00    -0.265 OA
ATOM     15  H   UNL d   1      30.171 -14.362  -8.069  0.00  0.00     0.169 HD
BRANCH  13  16
ATOM     16  C   UNL d   1      30.030 -16.294  -6.443  0.00  0.00     0.142 A 
ATOM     17  C   UNL d   1      30.121 -17.391  -5.610  0.00  0.00     0.045 A 
ATOM     18  C   UNL d   1      31.181 -18.190  -6.107  0.00  0.00     0.027 A 
ATOM     19  C   UNL d   1      31.679 -17.532  -7.206  0.00  0.00     0.143 A 
ATOM     20  O   UNL d   1      30.983 -16.390  -7.425  0.00  0.00    -0.317 OA
ENDBRANCH  13  16
ENDBRANCH  10  12
ENDBRANCH   5   6
ENDBRANCH   3   5
BRANCH   1  21
ATOM     21  C   UNL d   1      25.453 -13.886  -3.356  0.00  0.00     0.314 C 
ATOM     22  N   UNL d   1      26.112 -14.576  -2.347  0.00  0.00    -0.318 N 
ATOM     23  H   UNL d   1      27.045 -14.235  -2.142  0.00  0.00     0.169 HD
ATOM     24  O   UNL d   1      24.329 -14.077  -3.814  0.00  0.00    -0.262 OA
BRANCH  22  25
ATOM     25  C   UNL d   1      25.596 -15.684  -1.614  0.00  0.00     0.041 A 
ATOM     26  C   UNL d   1      24.217 -15.953  -1.635  0.00  0.00     0.030 A 
ATOM     27  C   UNL d   1      23.655 -17.031  -0.960  0.00  0.00     0.003 A 
ATOM     28  C   UNL d   1      24.461 -17.866  -0.211  0.00  0.00     0.007 A 
ATOM     29  C   UNL d   1      25.841 -17.634  -0.137  0.00  0.00    -0.054 A 
ATOM     30  C   UNL d   1      26.652 -18.575   0.721  0.00  0.00     0.049 C 
ATOM     31  C   UNL d   1      26.430 -16.544  -0.853  0.00  0.00    -0.029 A 
ATOM     32  C   UNL d   1      27.927 -16.374  -0.766  0.00  0.00     0.051 C 
ENDBRANCH  22  25
ENDBRANCH   1  21
TORSDOF 6
ENDMDL
MODEL 9
REMARK VINA RESULT:    -8.174      7.522     10.484
REMARK INTER + INTRA:         -12.740
REMARK INTER:                  -9.964
REMARK INTRA:                  -2.777
REMARK CONF_INDEPENDENT:        1.790
REMARK UNBOUND:                -2.777
REMARK  6 active torsions:
REMARK  status: ('A' for Active; 'I' for Inactive)
REMARK    1  A    between atoms: C_6  and  N_7 
REMARK       I    between atoms: N_7  and  C_8 
REMARK    2  A    between atoms: C_8  and  C_10 
REMARK       I    between atoms: C_10  and  N_12 
REMARK    3  A    between atoms: N_12  and  C_13 
REMARK    4  A    between atoms: C_13  and  C_14 
REMARK    5  A    between atoms: C_18  and  N_19 
REMARK       I    between atoms: N_19  and  C_20 
REMARK    6  A    between atoms: C_20  and  C_22 
ROOT
ATOM      1  C   UNL d   1      26.298 -12.842  -4.144  0.00  0.00     0.309 C 
ATOM      2  O   UNL d   1      27.464 -12.622  -3.851  0.00  0.00    -0.262 OA
ATOM      3  N   UNL d   1      25.530 -12.163  -5.059  0.00  0.00    -0.349 N 
ATOM      4  H   UNL d   1      24.591 -12.527  -5.176  0.00  0.00     0.163 HD
ENDROOT
BRANCH   3   5
ATOM      5  C   UNL d   1      25.996 -11.052  -5.839  0.00  0.00     0.161 C 
BRANCH   5   6
ATOM      6  C   UNL d   1      25.582  -9.690  -5.327  0.00  0.00    -0.038 A 
ATOM      7  C   UNL d   1      26.199  -8.984  -4.296  0.00  0.00     0.009 A 
ATOM      8  C   UNL d   1      25.624  -7.810  -3.801  0.00  0.00     0.003 A 
ATOM      9  C   UNL d   1      24.468  -7.275  -4.388  0.00  0.00     0.029 A 
ATOM     10  C   UNL d   1      23.850  -7.941  -5.451  0.00  0.00     0.035 A 
ATOM     11  C   UNL d   1      24.431  -9.131  -5.902  0.00  0.00     0.038 A 
BRANCH  10  12
ATOM     12  N   UNL d   1      22.655  -7.429  -6.022  0.00  0.00    -0.321 N 
ATOM     13  C   UNL d   1      22.576  -6.687  -7.206  0.00  0.00     0.279 C 
ATOM     14  O   UNL d   1      23.539  -6.385  -7.914  0.00  0.00    -0.265 OA
ATOM     15  H   UNL d   1      21.783  -7.699  -5.581  0.00  0.00     0.169 HD
BRANCH  13  16
ATOM     16  C   UNL d   1      21.252  -6.258  -7.590  0.00  0.00     0.142 A 
ATOM     17  C   UNL d   1      20.759  -5.680  -8.744  0.00  0.00     0.045 A 
ATOM     18  C   UNL d   1      19.353  -5.606  -8.590  0.00  0.00     0.027 A 
ATOM     19  C   UNL d   1      19.069  -6.134  -7.353  0.00  0.00     0.143 A 
ATOM     20  O   UNL d   1      20.210  -6.542  -6.745  0.00  0.00    -0.317 OA
ENDBRANCH  13  16
ENDBRANCH  10  12
ENDBRANCH   5   6
ENDBRANCH   3   5
BRANCH   1  21
ATOM     21  C   UNL d   1      25.502 -13.981  -3.475  0.00  0.00     0.314 C 
ATOM     22  N   UNL d   1      26.149 -14.636  -2.435  0.00  0.00    -0.318 N 
ATOM     23  H   UNL d   1      27.083 -14.292  -2.236  0.00  0.00     0.169 HD
ATOM     24  O   UNL d   1      24.380 -14.182  -3.934  0.00  0.00    -0.262 OA
BRANCH  22  25
ATOM     25  C   UNL d   1      25.621 -15.712  -1.666  0.00  0.00     0.041 A 
ATOM     26  C   UNL d   1      24.236 -15.946  -1.651  0.00  0.00     0.030 A 
ATOM     27  C   UNL d   1      23.662 -16.993  -0.938  0.00  0.00     0.003 A 
ATOM     28  C   UNL d   1      24.461 -17.831  -0.187  0.00  0.00     0.007 A 
ATOM     29  C   UNL d   1      25.849 -17.633  -0.147  0.00  0.00    -0.054 A 
ATOM     30  C   UNL d   1      26.654 -18.575   0.715  0.00  0.00     0.049 C 
ATOM     31  C   UNL d   1      26.449 -16.576  -0.902  0.00  0.00    -0.029 A 
ATOM     32  C   UNL d   1      27.952 -16.443  -0.850  0.00  0.00     0.051 C 
ENDBRANCH  22  25
ENDBRANCH   1  21
TORSDOF 6
ENDMDL
