MODEL 1
REMARK VINA RESULT:    -6.791      0.000      0.000
REMARK INTER + INTRA:         -10.347
REMARK INTER:                  -9.178
REMARK INTRA:                  -1.170
REMARK CONF_INDEPENDENT:        2.386
REMARK UNBOUND:                -1.170
REMARK  8 active torsions:
REMARK  status: ('A' for Active; 'I' for Inactive)
REMARK    1  A    between atoms: C_2  and  C_3 
REMARK       I    between atoms: C_2  and  N_13 
REMARK    2  A    between atoms: C_3  and  C_4 
REMARK    3  A    between atoms: C_4  and  C_5 
REMARK    4  A    between atoms: C_5  and  O_6 
REMARK    5  A    between atoms: O_6  and  C_7 
REMARK    6  A    between atoms: N_13  and  N_14 
REMARK       I    between atoms: N_14  and  C_15 
REMARK       I    between atoms: C_15  and  N_17 
REMARK    7  A    between atoms: N_17  and  C_18 
REMARK    8  A    between atoms: C_18  and  C_19 
ROOT
ATOM      1  O   UNL d   1      24.777 -17.397  -2.642  0.00  0.00    -0.272 OA
ATOM      2  C   UNL d   1      24.345 -17.645  -1.517  0.00  0.00     0.236 C 
ATOM      3  N   UNL d   1      23.223 -18.430  -1.373  0.00  0.00    -0.266 N 
ATOM      4  H   UNL d   1      22.785 -18.779  -2.228  0.00  0.00     0.190 HD
ENDROOT
BRANCH   2   5
ATOM      5  C   UNL d   1      25.020 -17.109  -0.263  0.00  0.00     0.106 C 
BRANCH   5   6
ATOM      6  C   UNL d   1      26.418 -17.711  -0.041  0.00  0.00     0.036 C 
BRANCH   6   7
ATOM      7  C   UNL d   1      27.457 -17.073  -0.964  0.00  0.00     0.176 C 
BRANCH   7   8
ATOM      8  O   UNL d   1      27.063 -15.731  -1.286  0.00  0.00    -0.351 OA
BRANCH   8   9
ATOM      9  C   UNL d   1      27.106 -15.442  -2.627  0.00  0.00     0.068 A 
ATOM     10  C   UNL d   1      28.351 -15.504  -3.260  0.00  0.00     0.037 A 
ATOM     11  C   UNL d   1      28.471 -15.155  -4.611  0.00  0.00     0.003 A 
ATOM     12  C   UNL d   1      27.341 -14.796  -5.345  0.00  0.00     0.000 A 
ATOM     13  C   UNL d   1      26.105 -14.716  -4.711  0.00  0.00     0.003 A 
ATOM     14  C   UNL d   1      25.993 -15.013  -3.352  0.00  0.00     0.037 A 
ENDBRANCH   8   9
ENDBRANCH   7   8
ENDBRANCH   6   7
ENDBRANCH   5   6
ENDBRANCH   2   5
BRANCH   3  15
ATOM     15  N   UNL d   1      22.611 -18.816  -0.167  0.00  0.00    -0.249 N 
ATOM     16  C   UNL d   1      21.239 -19.029  -0.160  0.00  0.00     0.334 C 
ATOM     17  O   UNL d   1      20.533 -18.898  -1.159  0.00  0.00    -0.246 OA
ATOM     18  N   UNL d   1      20.751 -19.395   1.070  0.00  0.00    -0.341 N 
ATOM     19  H   UNL d   1      21.396 -19.537   1.826  0.00  0.00     0.164 HD
ATOM     20  H   UNL d   1      23.171 -18.907   0.668  0.00  0.00     0.192 HD
BRANCH  18  21
ATOM     21  C   UNL d   1      19.339 -19.663   1.295  0.00  0.00     0.129 C 
BRANCH  21  22
ATOM     22  C   UNL d   1      18.883 -21.005   0.787  0.00  0.00     0.003 A 
ATOM     23  C   UNL d   1      17.655 -21.679   1.351  0.00  0.00     0.007 A 
ATOM     24  C   UNL d   1      17.659 -21.203  -0.079  0.00  0.00     0.007 A 
ENDBRANCH  21  22
ENDBRANCH  18  21
ENDBRANCH   3  15
TORSDOF 8
ENDMDL
MODEL 2
REMARK VINA RESULT:    -6.661      2.363      8.949
REMARK INTER + INTRA:         -10.180
REMARK INTER:                  -9.047
REMARK INTRA:                  -1.132
REMARK CONF_INDEPENDENT:        2.386
REMARK UNBOUND:                -1.132
REMARK  8 active torsions:
REMARK  status: ('A' for Active; 'I' for Inactive)
REMARK    1  A    between atoms: C_2  and  C_3 
REMARK       I    between atoms: C_2  and  N_13 
REMARK    2  A    between atoms: C_3  and  C_4 
REMARK    3  A    between atoms: C_4  and  C_5 
REMARK    4  A    between atoms: C_5  and  O_6 
REMARK    5  A    between atoms: O_6  and  C_7 
REMARK    6  A    between atoms: N_13  and  N_14 
REMARK       I    between atoms: N_14  and  C_15 
REMARK       I    between atoms: C_15  and  N_17 
REMARK    7  A    between atoms: N_17  and  C_18 
REMARK    8  A    between atoms: C_18  and  C_19 
ROOT
ATOM      1  O   UNL d   1      25.303 -18.835  -0.069  0.00  0.00    -0.272 OA
ATOM      2  C   UNL d   1      24.665 -17.854  -0.452  0.00  0.00     0.236 C 
ATOM      3  N   UNL d   1      25.149 -17.087  -1.488  0.00  0.00    -0.266 N 
ATOM      4  H   UNL d   1      26.039 -17.371  -1.903  0.00  0.00     0.190 HD
ENDROOT
BRANCH   2   5
ATOM      5  C   UNL d   1      23.344 -17.457   0.188  0.00  0.00     0.106 C 
BRANCH   5   6
ATOM      6  C   UNL d   1      22.166 -17.522  -0.800  0.00  0.00     0.036 C 
BRANCH   6   7
ATOM      7  C   UNL d   1      21.881 -18.960  -1.238  0.00  0.00     0.176 C 
BRANCH   7   8
ATOM      8  O   UNL d   1      20.466 -19.156  -1.370  0.00  0.00    -0.351 OA
BRANCH   8   9
ATOM      9  C   UNL d   1      19.864 -19.671  -0.248  0.00  0.00     0.068 A 
ATOM     10  C   UNL d   1      20.503 -19.464   0.977  0.00  0.00     0.037 A 
ATOM     11  C   UNL d   1      19.974 -20.020   2.149  0.00  0.00     0.003 A 
ATOM     12  C   UNL d   1      18.779 -20.738   2.105  0.00  0.00     0.000 A 
ATOM     13  C   UNL d   1      18.152 -20.960   0.883  0.00  0.00     0.003 A 
ATOM     14  C   UNL d   1      18.707 -20.450  -0.292  0.00  0.00     0.037 A 
ENDBRANCH   8   9
ENDBRANCH   7   8
ENDBRANCH   6   7
ENDBRANCH   5   6
ENDBRANCH   2   5
BRANCH   3  15
ATOM     15  N   UNL d   1      24.544 -15.950  -2.052  0.00  0.00    -0.249 N 
ATOM     16  C   UNL d   1      25.270 -15.199  -2.966  0.00  0.00     0.334 C 
ATOM     17  O   UNL d   1      26.417 -15.482  -3.309  0.00  0.00    -0.246 OA
ATOM     18  N   UNL d   1      24.583 -14.111  -3.445  0.00  0.00    -0.341 N 
ATOM     19  H   UNL d   1      23.629 -13.975  -3.162  0.00  0.00     0.164 HD
ATOM     20  H   UNL d   1      23.611 -15.690  -1.766  0.00  0.00     0.192 HD
BRANCH  18  21
ATOM     21  C   UNL d   1      25.163 -13.191  -4.411  0.00  0.00     0.129 C 
BRANCH  21  22
ATOM     22  C   UNL d   1      25.811 -11.981  -3.790  0.00  0.00     0.003 A 
ATOM     23  C   UNL d   1      27.204 -11.552  -4.184  0.00  0.00     0.007 A 
ATOM     24  C   UNL d   1      26.025 -10.675  -4.522  0.00  0.00     0.007 A 
ENDBRANCH  21  22
ENDBRANCH  18  21
ENDBRANCH   3  15
TORSDOF 8
ENDMDL
MODEL 3
REMARK VINA RESULT:    -6.632      1.872      2.748
REMARK INTER + INTRA:          -9.959
REMARK INTER:                  -9.019
REMARK INTRA:                  -0.941
REMARK CONF_INDEPENDENT:        2.386
REMARK UNBOUND:                -0.941
REMARK  8 active torsions:
REMARK  status: ('A' for Active; 'I' for Inactive)
REMARK    1  A    between atoms: C_2  and  C_3 
REMARK       I    between atoms: C_2  and  N_13 
REMARK    2  A    between atoms: C_3  and  C_4 
REMARK    3  A    between atoms: C_4  and  C_5 
REMARK    4  A    between atoms: C_5  and  O_6 
REMARK    5  A    between atoms: O_6  and  C_7 
REMARK    6  A    between atoms: N_13  and  N_14 
REMARK       I    between atoms: N_14  and  C_15 
REMARK       I    between atoms: C_15  and  N_17 
REMARK    7  A    between atoms: N_17  and  C_18 
REMARK    8  A    between atoms: C_18  and  C_19 
ROOT
ATOM      1  O   UNL d   1      27.211 -17.346  -1.175  0.00  0.00    -0.272 OA
ATOM      2  C   UNL d   1      26.066 -17.093  -0.801  0.00  0.00     0.236 C 
ATOM      3  N   UNL d   1      25.260 -18.107  -0.334  0.00  0.00    -0.266 N 
ATOM      4  H   UNL d   1      25.656 -19.049  -0.320  0.00  0.00     0.190 HD
ENDROOT
BRANCH   2   5
ATOM      5  C   UNL d   1      25.504 -15.679  -0.837  0.00  0.00     0.106 C 
BRANCH   5   6
ATOM      6  C   UNL d   1      24.869 -15.331  -2.195  0.00  0.00     0.036 C 
BRANCH   6   7
ATOM      7  C   UNL d   1      25.803 -15.675  -3.356  0.00  0.00     0.176 C 
BRANCH   7   8
ATOM      8  O   UNL d   1      25.335 -15.048  -4.559  0.00  0.00    -0.351 OA
BRANCH   8   9
ATOM      9  C   UNL d   1      26.045 -13.930  -4.920  0.00  0.00     0.068 A 
ATOM     10  C   UNL d   1      25.531 -12.688  -4.536  0.00  0.00     0.037 A 
ATOM     11  C   UNL d   1      26.173 -11.508  -4.931  0.00  0.00     0.003 A 
ATOM     12  C   UNL d   1      27.358 -11.568  -5.663  0.00  0.00     0.000 A 
ATOM     13  C   UNL d   1      27.861 -12.802  -6.061  0.00  0.00     0.003 A 
ATOM     14  C   UNL d   1      27.194 -13.977  -5.712  0.00  0.00     0.037 A 
ENDBRANCH   8   9
ENDBRANCH   7   8
ENDBRANCH   6   7
ENDBRANCH   5   6
ENDBRANCH   2   5
BRANCH   3  15
ATOM     15  N   UNL d   1      23.941 -17.988   0.139  0.00  0.00    -0.249 N 
ATOM     16  C   UNL d   1      22.927 -18.630  -0.560  0.00  0.00     0.334 C 
ATOM     17  O   UNL d   1      23.128 -19.299  -1.572  0.00  0.00    -0.246 OA
ATOM     18  N   UNL d   1      21.683 -18.439  -0.012  0.00  0.00    -0.341 N 
ATOM     19  H   UNL d   1      21.603 -17.926   0.847  0.00  0.00     0.164 HD
ATOM     20  H   UNL d   1      23.754 -17.424   0.955  0.00  0.00     0.192 HD
BRANCH  18  21
ATOM     21  C   UNL d   1      20.483 -19.023  -0.591  0.00  0.00     0.129 C 
BRANCH  21  22
ATOM     22  C   UNL d   1      20.011 -20.270   0.109  0.00  0.00     0.003 A 
ATOM     23  C   UNL d   1      19.318 -20.200   1.449  0.00  0.00     0.007 A 
ATOM     24  C   UNL d   1      18.556 -20.664   0.234  0.00  0.00     0.007 A 
ENDBRANCH  21  22
ENDBRANCH  18  21
ENDBRANCH   3  15
TORSDOF 8
ENDMDL
MODEL 4
REMARK VINA RESULT:    -6.621      3.562      8.833
REMARK INTER + INTRA:          -9.790
REMARK INTER:                  -9.007
REMARK INTRA:                  -0.783
REMARK CONF_INDEPENDENT:        2.386
REMARK UNBOUND:                -0.783
REMARK  8 active torsions:
REMARK  status: ('A' for Active; 'I' for Inactive)
REMARK    1  A    between atoms: C_2  and  C_3 
REMARK       I    between atoms: C_2  and  N_13 
REMARK    2  A    between atoms: C_3  and  C_4 
REMARK    3  A    between atoms: C_4  and  C_5 
REMARK    4  A    between atoms: C_5  and  O_6 
REMARK    5  A    between atoms: O_6  and  C_7 
REMARK    6  A    between atoms: N_13  and  N_14 
REMARK       I    between atoms: N_14  and  C_15 
REMARK       I    between atoms: C_15  and  N_17 
REMARK    7  A    between atoms: N_17  and  C_18 
REMARK    8  A    between atoms: C_18  and  C_19 
ROOT
ATOM      1  O   UNL d   1      25.001 -16.978  -2.686  0.00  0.00    -0.272 OA
ATOM      2  C   UNL d   1      25.341 -17.018  -1.504  0.00  0.00     0.236 C 
ATOM      3  N   UNL d   1      26.526 -16.435  -1.114  0.00  0.00    -0.266 N 
ATOM      4  H   UNL d   1      27.087 -15.987  -1.841  0.00  0.00     0.190 HD
ENDROOT
BRANCH   2   5
ATOM      5  C   UNL d   1      24.484 -17.696  -0.446  0.00  0.00     0.106 C 
BRANCH   5   6
ATOM      6  C   UNL d   1      23.078 -17.080  -0.340  0.00  0.00     0.036 C 
BRANCH   6   7
ATOM      7  C   UNL d   1      21.989 -18.118  -0.617  0.00  0.00     0.176 C 
BRANCH   7   8
ATOM      8  O   UNL d   1      21.893 -19.029   0.487  0.00  0.00    -0.351 OA
BRANCH   8   9
ATOM      9  C   UNL d   1      20.640 -19.558   0.669  0.00  0.00     0.068 A 
ATOM     10  C   UNL d   1      20.244 -19.843   1.978  0.00  0.00     0.037 A 
ATOM     11  C   UNL d   1      19.003 -20.445   2.223  0.00  0.00     0.003 A 
ATOM     12  C   UNL d   1      18.135 -20.714   1.166  0.00  0.00     0.000 A 
ATOM     13  C   UNL d   1      18.535 -20.448  -0.139  0.00  0.00     0.003 A 
ATOM     14  C   UNL d   1      19.792 -19.896  -0.388  0.00  0.00     0.037 A 
ENDBRANCH   8   9
ENDBRANCH   7   8
ENDBRANCH   6   7
ENDBRANCH   5   6
ENDBRANCH   2   5
BRANCH   3  15
ATOM     15  N   UNL d   1      27.052 -16.381   0.189  0.00  0.00    -0.249 N 
ATOM     16  C   UNL d   1      27.255 -15.135   0.769  0.00  0.00     0.334 C 
ATOM     17  O   UNL d   1      26.995 -14.077   0.197  0.00  0.00    -0.246 OA
ATOM     18  N   UNL d   1      27.777 -15.203   2.037  0.00  0.00    -0.341 N 
ATOM     19  H   UNL d   1      27.910 -16.104   2.460  0.00  0.00     0.164 HD
ATOM     20  H   UNL d   1      27.292 -17.238   0.665  0.00  0.00     0.192 HD
BRANCH  18  21
ATOM     21  C   UNL d   1      28.068 -14.013   2.820  0.00  0.00     0.129 C 
BRANCH  21  22
ATOM     22  C   UNL d   1      27.593 -14.089   4.248  0.00  0.00     0.003 A 
ATOM     23  C   UNL d   1      28.560 -14.335   5.381  0.00  0.00     0.007 A 
ATOM     24  C   UNL d   1      27.848 -13.010   5.276  0.00  0.00     0.007 A 
ENDBRANCH  21  22
ENDBRANCH  18  21
ENDBRANCH   3  15
TORSDOF 8
ENDMDL
MODEL 5
REMARK VINA RESULT:    -6.598      2.555      9.207
REMARK INTER + INTRA:         -10.081
REMARK INTER:                  -8.985
REMARK INTRA:                  -1.097
REMARK CONF_INDEPENDENT:        2.386
REMARK UNBOUND:                -1.097
REMARK  8 active torsions:
REMARK  status: ('A' for Active; 'I' for Inactive)
REMARK    1  A    between atoms: C_2  and  C_3 
REMARK       I    between atoms: C_2  and  N_13 
REMARK    2  A    between atoms: C_3  and  C_4 
REMARK    3  A    between atoms: C_4  and  C_5 
REMARK    4  A    between atoms: C_5  and  O_6 
REMARK    5  A    between atoms: O_6  and  C_7 
REMARK    6  A    between atoms: N_13  and  N_14 
REMARK       I    between atoms: N_14  and  C_15 
REMARK       I    between atoms: C_15  and  N_17 
REMARK    7  A    between atoms: N_17  and  C_18 
REMARK    8  A    between atoms: C_18  and  C_19 
ROOT
ATOM      1  O   UNL d   1      22.164 -15.819  -0.960  0.00  0.00    -0.272 OA
ATOM      2  C   UNL d   1      23.336 -16.082  -1.228  0.00  0.00     0.236 C 
ATOM      3  N   UNL d   1      24.017 -15.312  -2.144  0.00  0.00    -0.266 N 
ATOM      4  H   UNL d   1      23.507 -14.538  -2.574  0.00  0.00     0.190 HD
ENDROOT
BRANCH   2   5
ATOM      5  C   UNL d   1      24.067 -17.243  -0.572  0.00  0.00     0.106 C 
BRANCH   5   6
ATOM      6  C   UNL d   1      23.773 -18.589  -1.256  0.00  0.00     0.036 C 
BRANCH   6   7
ATOM      7  C   UNL d   1      22.304 -18.988  -1.102  0.00  0.00     0.176 C 
BRANCH   7   8
ATOM      8  O   UNL d   1      21.874 -18.749   0.246  0.00  0.00    -0.351 OA
BRANCH   8   9
ATOM      9  C   UNL d   1      20.713 -19.397   0.587  0.00  0.00     0.068 A 
ATOM     10  C   UNL d   1      19.883 -19.823  -0.453  0.00  0.00     0.037 A 
ATOM     11  C   UNL d   1      18.654 -20.431  -0.169  0.00  0.00     0.003 A 
ATOM     12  C   UNL d   1      18.277 -20.662   1.154  0.00  0.00     0.000 A 
ATOM     13  C   UNL d   1      19.093 -20.222   2.190  0.00  0.00     0.003 A 
ATOM     14  C   UNL d   1      20.294 -19.570   1.908  0.00  0.00     0.037 A 
ENDBRANCH   8   9
ENDBRANCH   7   8
ENDBRANCH   6   7
ENDBRANCH   5   6
ENDBRANCH   2   5
BRANCH   3  15
ATOM     15  N   UNL d   1      25.354 -15.468  -2.552  0.00  0.00    -0.249 N 
ATOM     16  C   UNL d   1      25.722 -15.000  -3.807  0.00  0.00     0.334 C 
ATOM     17  O   UNL d   1      24.935 -14.453  -4.577  0.00  0.00    -0.246 OA
ATOM     18  N   UNL d   1      27.046 -15.212  -4.100  0.00  0.00    -0.341 N 
ATOM     19  H   UNL d   1      27.641 -15.614  -3.398  0.00  0.00     0.164 HD
ATOM     20  H   UNL d   1      26.009 -15.935  -1.941  0.00  0.00     0.192 HD
BRANCH  18  21
ATOM     21  C   UNL d   1      27.636 -14.800  -5.364  0.00  0.00     0.129 C 
BRANCH  21  22
ATOM     22  C   UNL d   1      28.881 -15.563  -5.735  0.00  0.00     0.003 A 
ATOM     23  C   UNL d   1      29.888 -14.992  -6.704  0.00  0.00     0.007 A 
ATOM     24  C   UNL d   1      30.267 -15.190  -5.259  0.00  0.00     0.007 A 
ENDBRANCH  21  22
ENDBRANCH  18  21
ENDBRANCH   3  15
TORSDOF 8
ENDMDL
MODEL 6
REMARK VINA RESULT:    -6.585      2.460      8.678
REMARK INTER + INTRA:          -9.797
REMARK INTER:                  -8.972
REMARK INTRA:                  -0.826
REMARK CONF_INDEPENDENT:        2.386
REMARK UNBOUND:                -0.826
REMARK  8 active torsions:
REMARK  status: ('A' for Active; 'I' for Inactive)
REMARK    1  A    between atoms: C_2  and  C_3 
REMARK       I    between atoms: C_2  and  N_13 
REMARK    2  A    between atoms: C_3  and  C_4 
REMARK    3  A    between atoms: C_4  and  C_5 
REMARK    4  A    between atoms: C_5  and  O_6 
REMARK    5  A    between atoms: O_6  and  C_7 
REMARK    6  A    between atoms: N_13  and  N_14 
REMARK       I    between atoms: N_14  and  C_15 
REMARK       I    between atoms: C_15  and  N_17 
REMARK    7  A    between atoms: N_17  and  C_18 
REMARK    8  A    between atoms: C_18  and  C_19 
ROOT
ATOM      1  O   UNL d   1      25.263 -18.679   0.449  0.00  0.00    -0.272 OA
ATOM      2  C   UNL d   1      25.359 -17.488   0.151  0.00  0.00     0.236 C 
ATOM      3  N   UNL d   1      26.526 -16.809   0.418  0.00  0.00    -0.266 N 
ATOM      4  H   UNL d   1      27.280 -17.334   0.865  0.00  0.00     0.190 HD
ENDROOT
BRANCH   2   5
ATOM      5  C   UNL d   1      24.217 -16.733  -0.512  0.00  0.00     0.106 C 
BRANCH   5   6
ATOM      6  C   UNL d   1      23.167 -17.673  -1.130  0.00  0.00     0.036 C 
BRANCH   6   7
ATOM      7  C   UNL d   1      22.190 -18.194  -0.074  0.00  0.00     0.176 C 
BRANCH   7   8
ATOM      8  O   UNL d   1      20.970 -18.610  -0.703  0.00  0.00    -0.351 OA
BRANCH   8   9
ATOM      9  C   UNL d   1      20.160 -19.377   0.097  0.00  0.00     0.068 A 
ATOM     10  C   UNL d   1      19.119 -20.076  -0.520  0.00  0.00     0.037 A 
ATOM     11  C   UNL d   1      18.219 -20.822   0.250  0.00  0.00     0.003 A 
ATOM     12  C   UNL d   1      18.389 -20.915   1.631  0.00  0.00     0.000 A 
ATOM     13  C   UNL d   1      19.413 -20.205   2.249  0.00  0.00     0.003 A 
ATOM     14  C   UNL d   1      20.279 -19.419   1.487  0.00  0.00     0.037 A 
ENDBRANCH   8   9
ENDBRANCH   7   8
ENDBRANCH   6   7
ENDBRANCH   5   6
ENDBRANCH   2   5
BRANCH   3  15
ATOM     15  N   UNL d   1      26.803 -15.460   0.133  0.00  0.00    -0.249 N 
ATOM     16  C   UNL d   1      26.789 -15.048  -1.193  0.00  0.00     0.334 C 
ATOM     17  O   UNL d   1      26.543 -15.806  -2.130  0.00  0.00    -0.246 OA
ATOM     18  N   UNL d   1      27.078 -13.715  -1.353  0.00  0.00    -0.341 N 
ATOM     19  H   UNL d   1      27.212 -13.146  -0.537  0.00  0.00     0.164 HD
ATOM     20  H   UNL d   1      27.028 -14.827   0.887  0.00  0.00     0.192 HD
BRANCH  18  21
ATOM     21  C   UNL d   1      27.118 -13.082  -2.662  0.00  0.00     0.129 C 
BRANCH  21  22
ATOM     22  C   UNL d   1      25.768 -12.947  -3.316  0.00  0.00     0.003 A 
ATOM     23  C   UNL d   1      25.630 -12.894  -4.819  0.00  0.00     0.007 A 
ATOM     24  C   UNL d   1      25.078 -14.071  -4.056  0.00  0.00     0.007 A 
ENDBRANCH  21  22
ENDBRANCH  18  21
ENDBRANCH   3  15
TORSDOF 8
ENDMDL
MODEL 7
REMARK VINA RESULT:    -6.537      2.780      3.744
REMARK INTER + INTRA:         -10.109
REMARK INTER:                  -8.924
REMARK INTRA:                  -1.185
REMARK CONF_INDEPENDENT:        2.386
REMARK UNBOUND:                -1.185
REMARK  8 active torsions:
REMARK  status: ('A' for Active; 'I' for Inactive)
REMARK    1  A    between atoms: C_2  and  C_3 
REMARK       I    between atoms: C_2  and  N_13 
REMARK    2  A    between atoms: C_3  and  C_4 
REMARK    3  A    between atoms: C_4  and  C_5 
REMARK    4  A    between atoms: C_5  and  O_6 
REMARK    5  A    between atoms: O_6  and  C_7 
REMARK    6  A    between atoms: N_13  and  N_14 
REMARK       I    between atoms: N_14  and  C_15 
REMARK       I    between atoms: C_15  and  N_17 
REMARK    7  A    between atoms: N_17  and  C_18 
REMARK    8  A    between atoms: C_18  and  C_19 
ROOT
ATOM      1  O   UNL d   1      25.103 -15.657  -1.502  0.00  0.00    -0.272 OA
ATOM      2  C   UNL d   1      24.789 -16.763  -1.062  0.00  0.00     0.236 C 
ATOM      3  N   UNL d   1      23.460 -17.071  -0.875  0.00  0.00    -0.266 N 
ATOM      4  H   UNL d   1      22.776 -16.350  -1.112  0.00  0.00     0.190 HD
ENDROOT
BRANCH   2   5
ATOM      5  C   UNL d   1      25.832 -17.815  -0.717  0.00  0.00     0.106 C 
BRANCH   5   6
ATOM      6  C   UNL d   1      26.564 -17.510   0.602  0.00  0.00     0.036 C 
BRANCH   6   7
ATOM      7  C   UNL d   1      27.791 -16.627   0.371  0.00  0.00     0.176 C 
BRANCH   7   8
ATOM      8  O   UNL d   1      27.377 -15.309  -0.015  0.00  0.00    -0.351 OA
BRANCH   8   9
ATOM      9  C   UNL d   1      27.371 -14.400   1.014  0.00  0.00     0.068 A 
ATOM     10  C   UNL d   1      27.883 -14.817   2.245  0.00  0.00     0.037 A 
ATOM     11  C   UNL d   1      27.844 -13.959   3.351  0.00  0.00     0.003 A 
ATOM     12  C   UNL d   1      27.344 -12.664   3.214  0.00  0.00     0.000 A 
ATOM     13  C   UNL d   1      26.818 -12.254   1.994  0.00  0.00     0.003 A 
ATOM     14  C   UNL d   1      26.809 -13.127   0.906  0.00  0.00     0.037 A 
ENDBRANCH   8   9
ENDBRANCH   7   8
ENDBRANCH   6   7
ENDBRANCH   5   6
ENDBRANCH   2   5
BRANCH   3  15
ATOM     15  N   UNL d   1      22.933 -18.284  -0.398  0.00  0.00    -0.249 N 
ATOM     16  C   UNL d   1      21.591 -18.560  -0.628  0.00  0.00     0.334 C 
ATOM     17  O   UNL d   1      20.842 -17.794  -1.233  0.00  0.00    -0.246 OA
ATOM     18  N   UNL d   1      21.187 -19.766  -0.113  0.00  0.00    -0.341 N 
ATOM     19  H   UNL d   1      21.868 -20.363   0.319  0.00  0.00     0.164 HD
ATOM     20  H   UNL d   1      23.527 -18.915   0.120  0.00  0.00     0.192 HD
BRANCH  18  21
ATOM     21  C   UNL d   1      19.819 -20.245  -0.242  0.00  0.00     0.129 C 
BRANCH  21  22
ATOM     22  C   UNL d   1      18.979 -20.032   0.990  0.00  0.00     0.003 A 
ATOM     23  C   UNL d   1      18.301 -21.190   1.683  0.00  0.00     0.007 A 
ATOM     24  C   UNL d   1      19.409 -20.443   2.380  0.00  0.00     0.007 A 
ENDBRANCH  21  22
ENDBRANCH  18  21
ENDBRANCH   3  15
TORSDOF 8
ENDMDL
MODEL 8
REMARK VINA RESULT:    -6.438      5.135      8.310
REMARK INTER + INTRA:         -10.252
REMARK INTER:                  -8.824
REMARK INTRA:                  -1.428
REMARK CONF_INDEPENDENT:        2.386
REMARK UNBOUND:                -1.428
REMARK  8 active torsions:
REMARK  status: ('A' for Active; 'I' for Inactive)
REMARK    1  A    between atoms: C_2  and  C_3 
REMARK       I    between atoms: C_2  and  N_13 
REMARK    2  A    between atoms: C_3  and  C_4 
REMARK    3  A    between atoms: C_4  and  C_5 
REMARK    4  A    between atoms: C_5  and  O_6 
REMARK    5  A    between atoms: O_6  and  C_7 
REMARK    6  A    between atoms: N_13  and  N_14 
REMARK       I    between atoms: N_14  and  C_15 
REMARK       I    between atoms: C_15  and  N_17 
REMARK    7  A    between atoms: N_17  and  C_18 
REMARK    8  A    between atoms: C_18  and  C_19 
ROOT
ATOM      1  O   UNL d   1      26.397 -14.419  -0.559  0.00  0.00    -0.272 OA
ATOM      2  C   UNL d   1      27.277 -14.843   0.190  0.00  0.00     0.236 C 
ATOM      3  N   UNL d   1      27.260 -14.503   1.525  0.00  0.00    -0.266 N 
ATOM      4  H   UNL d   1      26.501 -13.896   1.842  0.00  0.00     0.190 HD
ENDROOT
BRANCH   2   5
ATOM      5  C   UNL d   1      28.395 -15.743  -0.314  0.00  0.00     0.106 C 
BRANCH   5   6
ATOM      6  C   UNL d   1      27.956 -17.212  -0.446  0.00  0.00     0.036 C 
BRANCH   6   7
ATOM      7  C   UNL d   1      26.937 -17.591   0.630  0.00  0.00     0.176 C 
BRANCH   7   8
ATOM      8  O   UNL d   1      26.031 -18.578   0.116  0.00  0.00    -0.351 OA
BRANCH   8   9
ATOM      9  C   UNL d   1      24.795 -18.083  -0.218  0.00  0.00     0.068 A 
ATOM     10  C   UNL d   1      24.753 -16.897  -0.955  0.00  0.00     0.037 A 
ATOM     11  C   UNL d   1      23.523 -16.307  -1.269  0.00  0.00     0.003 A 
ATOM     12  C   UNL d   1      22.333 -16.929  -0.895  0.00  0.00     0.000 A 
ATOM     13  C   UNL d   1      22.373 -18.100  -0.145  0.00  0.00     0.003 A 
ATOM     14  C   UNL d   1      23.599 -18.661   0.213  0.00  0.00     0.037 A 
ENDBRANCH   8   9
ENDBRANCH   7   8
ENDBRANCH   6   7
ENDBRANCH   5   6
ENDBRANCH   2   5
BRANCH   3  15
ATOM     15  N   UNL d   1      28.176 -14.909   2.511  0.00  0.00    -0.249 N 
ATOM     16  C   UNL d   1      27.919 -14.569   3.833  0.00  0.00     0.334 C 
ATOM     17  O   UNL d   1      26.927 -13.931   4.182  0.00  0.00    -0.246 OA
ATOM     18  N   UNL d   1      28.881 -15.011   4.706  0.00  0.00    -0.341 N 
ATOM     19  H   UNL d   1      29.634 -15.575   4.355  0.00  0.00     0.164 HD
ATOM     20  H   UNL d   1      29.007 -15.414   2.241  0.00  0.00     0.192 HD
BRANCH  18  21
ATOM     21  C   UNL d   1      28.805 -14.759   6.137  0.00  0.00     0.129 C 
BRANCH  21  22
ATOM     22  C   UNL d   1      29.221 -13.367   6.535  0.00  0.00     0.003 A 
ATOM     23  C   UNL d   1      28.425 -12.159   6.102  0.00  0.00     0.007 A 
ATOM     24  C   UNL d   1      28.487 -12.533   7.561  0.00  0.00     0.007 A 
ENDBRANCH  21  22
ENDBRANCH  18  21
ENDBRANCH   3  15
TORSDOF 8
ENDMDL
MODEL 9
REMARK VINA RESULT:    -4.890      3.929      7.496
REMARK INTER + INTRA:         -10.073
REMARK INTER:                  -7.276
REMARK INTRA:                  -2.797
REMARK CONF_INDEPENDENT:        2.386
REMARK UNBOUND:                -2.797
REMARK  8 active torsions:
REMARK  status: ('A' for Active; 'I' for Inactive)
REMARK    1  A    between atoms: C_2  and  C_3 
REMARK       I    between atoms: C_2  and  N_13 
REMARK    2  A    between atoms: C_3  and  C_4 
REMARK    3  A    between atoms: C_4  and  C_5 
REMARK    4  A    between atoms: C_5  and  O_6 
REMARK    5  A    between atoms: O_6  and  C_7 
REMARK    6  A    between atoms: N_13  and  N_14 
REMARK       I    between atoms: N_14  and  C_15 
REMARK       I    between atoms: C_15  and  N_17 
REMARK    7  A    between atoms: N_17  and  C_18 
REMARK    8  A    between atoms: C_18  and  C_19 
ROOT
ATOM      1  O   UNL d   1      27.792 -15.190  -6.101  0.00  0.00    -0.272 OA
ATOM      2  C   UNL d   1      27.222 -15.242  -5.011  0.00  0.00     0.236 C 
ATOM      3  N   UNL d   1      27.954 -15.471  -3.867  0.00  0.00    -0.266 N 
ATOM      4  H   UNL d   1      28.962 -15.594  -3.976  0.00  0.00     0.190 HD
ENDROOT
BRANCH   2   5
ATOM      5  C   UNL d   1      25.717 -15.057  -4.883  0.00  0.00     0.106 C 
BRANCH   5   6
ATOM      6  C   UNL d   1      25.338 -14.030  -3.802  0.00  0.00     0.036 C 
BRANCH   6   7
ATOM      7  C   UNL d   1      24.386 -14.631  -2.767  0.00  0.00     0.176 C 
BRANCH   7   8
ATOM      8  O   UNL d   1      25.140 -15.247  -1.713  0.00  0.00    -0.351 OA
BRANCH   8   9
ATOM      9  C   UNL d   1      24.506 -16.311  -1.119  0.00  0.00     0.068 A 
ATOM     10  C   UNL d   1      25.299 -17.382  -0.701  0.00  0.00     0.037 A 
ATOM     11  C   UNL d   1      24.705 -18.524  -0.149  0.00  0.00     0.003 A 
ATOM     12  C   UNL d   1      23.324 -18.575   0.035  0.00  0.00     0.000 A 
ATOM     13  C   UNL d   1      22.532 -17.517  -0.398  0.00  0.00     0.003 A 
ATOM     14  C   UNL d   1      23.118 -16.401  -0.996  0.00  0.00     0.037 A 
ENDBRANCH   8   9
ENDBRANCH   7   8
ENDBRANCH   6   7
ENDBRANCH   5   6
ENDBRANCH   2   5
BRANCH   3  15
ATOM     15  N   UNL d   1      27.463 -15.547  -2.552  0.00  0.00    -0.249 N 
ATOM     16  C   UNL d   1      28.330 -15.259  -1.505  0.00  0.00     0.334 C 
ATOM     17  O   UNL d   1      29.505 -14.939  -1.674  0.00  0.00    -0.246 OA
ATOM     18  N   UNL d   1      27.746 -15.372  -0.268  0.00  0.00    -0.341 N 
ATOM     19  H   UNL d   1      26.766 -15.583  -0.210  0.00  0.00     0.164 HD
ATOM     20  H   UNL d   1      26.508 -15.830  -2.392  0.00  0.00     0.192 HD
BRANCH  18  21
ATOM     21  C   UNL d   1      28.479 -15.116   0.962  0.00  0.00     0.129 C 
BRANCH  21  22
ATOM     22  C   UNL d   1      28.126 -13.810   1.624  0.00  0.00     0.003 A 
ATOM     23  C   UNL d   1      26.698 -13.321   1.675  0.00  0.00     0.007 A 
ATOM     24  C   UNL d   1      27.403 -13.709   2.949  0.00  0.00     0.007 A 
ENDBRANCH  21  22
ENDBRANCH  18  21
ENDBRANCH   3  15
TORSDOF 8
ENDMDL
