MODEL 1
REMARK VINA RESULT:    -8.617      0.000      0.000
REMARK INTER + INTRA:         -10.432
REMARK INTER:                  -9.512
REMARK INTRA:                  -0.921
REMARK CONF_INDEPENDENT:        0.895
REMARK UNBOUND:                -0.921
REMARK  3 active torsions:
REMARK  status: ('A' for Active; 'I' for Inactive)
REMARK    1  A    between atoms: C_2  and  N_3 
REMARK    2  A    between atoms: C_5  and  C_6 
REMARK       I    between atoms: C_6  and  N_8 
REMARK    3  A    between atoms: C_21  and  N_22 
ROOT
ATOM      1  N   UNL d   1      26.586 -15.936  -0.397  0.00  0.00    -0.355 N 
ATOM      2  C   UNL d   1      26.127 -15.563  -1.656  0.00  0.00     0.112 C 
ATOM      3  C   UNL d   1      26.048 -14.329  -2.185  0.00  0.00     0.100 C 
ATOM      4  C   UNL d   1      26.655 -13.250  -1.358  0.00  0.00     0.201 C 
ATOM      5  O   UNL d   1      26.657 -12.070  -1.687  0.00  0.00    -0.286 OA
ATOM      6  C   UNL d   1      27.260 -13.626  -0.050  0.00  0.00     0.045 C 
ATOM      7  C   UNL d   1      27.831 -12.620   0.734  0.00  0.00     0.062 C 
ATOM      8  C   UNL d   1      28.228 -12.919   2.030  0.00  0.00     0.143 C 
ATOM      9  F   UNL d   1      28.637 -11.916   2.823  0.00  0.00    -0.204 F 
ATOM     10  C   UNL d   1      28.204 -14.229   2.534  0.00  0.00     0.071 C 
ATOM     11  C   UNL d   1      27.780 -15.238   1.663  0.00  0.00     0.063 C 
ATOM     12  C   UNL d   1      27.206 -14.960   0.405  0.00  0.00     0.051 C 
ENDROOT
BRANCH   3  13
ATOM     13  C   UNL d   1      25.269 -14.039  -3.449  0.00  0.00     0.284 C 
ATOM     14  O   UNL d   1      24.060 -14.265  -3.519  0.00  0.00    -0.265 OA
ATOM     15  N   UNL d   1      25.976 -13.538  -4.521  0.00  0.00    -0.183 NA
ATOM     16  C   UNL d   1      26.868 -14.292  -5.067  0.00  0.00     0.192 C 
ATOM     17  N   UNL d   1      27.344 -15.531  -4.720  0.00  0.00    -0.254 N 
ATOM     18  S   UNL d   1      27.869 -13.697  -6.399  0.00  0.00    -0.034 SA
ATOM     19  N   UNL d   1      28.530 -15.944  -5.236  0.00  0.00    -0.170 NA
ATOM     20  H   UNL d   1      27.062 -15.951  -3.842  0.00  0.00     0.191 HD
ATOM     21  C   UNL d   1      28.911 -15.084  -6.130  0.00  0.00     0.094 C 
ATOM     22  C   UNL d   1      30.171 -15.281  -6.899  0.00  0.00     0.081 C 
ENDBRANCH   3  13
BRANCH   1  23
ATOM     23  C   UNL d   1      26.303 -17.292   0.138  0.00  0.00     0.124 C 
ATOM     24  C   UNL d   1      24.894 -17.763  -0.192  0.00  0.00     0.027 C 
ENDBRANCH   1  23
BRANCH  10  25
ATOM     25  N   UNL d   1      28.451 -14.532   3.861  0.00  0.00    -0.375 N 
ATOM     26  C   UNL d   1      27.356 -14.429   4.826  0.00  0.00     0.150 C 
ATOM     27  C   UNL d   1      27.672 -13.343   5.865  0.00  0.00     0.254 C 
ATOM     28  N   UNL d   1      29.027 -13.622   6.529  0.00  0.00    -0.072 N 
ATOM     29  C   UNL d   1      29.353 -12.567   7.545  0.00  0.00     0.269 C 
ATOM     30  C   UNL d   1      30.142 -13.765   5.480  0.00  0.00     0.254 C 
ATOM     31  H   UNL d   1      28.949 -14.521   7.022  0.00  0.00     0.279 HD
ATOM     32  C   UNL d   1      29.775 -14.825   4.406  0.00  0.00     0.150 C 
ENDBRANCH  10  25
TORSDOF 3
ENDMDL
MODEL 2
REMARK VINA RESULT:    -7.464      1.744      2.009
REMARK INTER + INTRA:          -9.254
REMARK INTER:                  -8.359
REMARK INTRA:                  -0.895
REMARK CONF_INDEPENDENT:        0.895
REMARK UNBOUND:                -0.895
REMARK  3 active torsions:
REMARK  status: ('A' for Active; 'I' for Inactive)
REMARK    1  A    between atoms: C_2  and  N_3 
REMARK    2  A    between atoms: C_5  and  C_6 
REMARK       I    between atoms: C_6  and  N_8 
REMARK    3  A    between atoms: C_21  and  N_22 
ROOT
ATOM      1  N   UNL d   1      27.252 -16.200  -0.616  0.00  0.00    -0.355 N 
ATOM      2  C   UNL d   1      26.804 -15.967  -1.911  0.00  0.00     0.112 C 
ATOM      3  C   UNL d   1      26.331 -14.823  -2.440  0.00  0.00     0.100 C 
ATOM      4  C   UNL d   1      26.430 -13.632  -1.553  0.00  0.00     0.201 C 
ATOM      5  O   UNL d   1      26.035 -12.518  -1.875  0.00  0.00    -0.286 OA
ATOM      6  C   UNL d   1      27.010 -13.817  -0.193  0.00  0.00     0.045 C 
ATOM      7  C   UNL d   1      27.106 -12.706   0.647  0.00  0.00     0.062 C 
ATOM      8  C   UNL d   1      27.466 -12.893   1.975  0.00  0.00     0.143 C 
ATOM      9  F   UNL d   1      27.412 -11.842   2.808  0.00  0.00    -0.204 F 
ATOM     10  C   UNL d   1      27.872 -14.143   2.468  0.00  0.00     0.071 C 
ATOM     11  C   UNL d   1      27.922 -15.202   1.555  0.00  0.00     0.063 C 
ATOM     12  C   UNL d   1      27.402 -15.098   0.248  0.00  0.00     0.051 C 
ENDROOT
BRANCH   3  13
ATOM     13  C   UNL d   1      25.617 -14.783  -3.773  0.00  0.00     0.284 C 
ATOM     14  O   UNL d   1      25.366 -15.817  -4.394  0.00  0.00    -0.265 OA
ATOM     15  N   UNL d   1      25.286 -13.541  -4.271  0.00  0.00    -0.183 NA
ATOM     16  C   UNL d   1      26.245 -12.740  -4.593  0.00  0.00     0.192 C 
ATOM     17  N   UNL d   1      27.605 -12.849  -4.448  0.00  0.00    -0.254 N 
ATOM     18  S   UNL d   1      25.905 -11.102  -5.168  0.00  0.00    -0.034 SA
ATOM     19  N   UNL d   1      28.362 -11.725  -4.527  0.00  0.00    -0.170 NA
ATOM     20  H   UNL d   1      27.995 -13.621  -3.921  0.00  0.00     0.191 HD
ATOM     21  C   UNL d   1      27.603 -10.742  -4.901  0.00  0.00     0.094 C 
ATOM     22  C   UNL d   1      28.157  -9.376  -5.108  0.00  0.00     0.081 C 
ENDBRANCH   3  13
BRANCH   1  23
ATOM     23  C   UNL d   1      27.431 -17.586  -0.118  0.00  0.00     0.124 C 
ATOM     24  C   UNL d   1      26.110 -18.246   0.252  0.00  0.00     0.027 C 
ENDBRANCH   1  23
BRANCH  10  25
ATOM     25  N   UNL d   1      28.092 -14.389   3.811  0.00  0.00    -0.375 N 
ATOM     26  C   UNL d   1      27.033 -14.074   4.770  0.00  0.00     0.150 C 
ATOM     27  C   UNL d   1      27.508 -12.976   5.734  0.00  0.00     0.254 C 
ATOM     28  N   UNL d   1      28.820 -13.394   6.410  0.00  0.00    -0.072 N 
ATOM     29  C   UNL d   1      29.300 -12.329   7.353  0.00  0.00     0.269 C 
ATOM     30  C   UNL d   1      29.892 -13.757   5.369  0.00  0.00     0.254 C 
ATOM     31  H   UNL d   1      28.625 -14.239   6.963  0.00  0.00     0.279 HD
ATOM     32  C   UNL d   1      29.370 -14.825   4.371  0.00  0.00     0.150 C 
ENDBRANCH  10  25
TORSDOF 3
ENDMDL
MODEL 3
REMARK VINA RESULT:    -7.293      1.786      3.007
REMARK INTER + INTRA:          -9.764
REMARK INTER:                  -8.188
REMARK INTRA:                  -1.576
REMARK CONF_INDEPENDENT:        0.895
REMARK UNBOUND:                -1.576
REMARK  3 active torsions:
REMARK  status: ('A' for Active; 'I' for Inactive)
REMARK    1  A    between atoms: C_2  and  N_3 
REMARK    2  A    between atoms: C_5  and  C_6 
REMARK       I    between atoms: C_6  and  N_8 
REMARK    3  A    between atoms: C_21  and  N_22 
ROOT
ATOM      1  N   UNL d   1      27.231 -11.688  -1.392  0.00  0.00    -0.355 N 
ATOM      2  C   UNL d   1      26.439 -12.006  -2.490  0.00  0.00     0.112 C 
ATOM      3  C   UNL d   1      25.830 -13.172  -2.773  0.00  0.00     0.100 C 
ATOM      4  C   UNL d   1      25.915 -14.202  -1.701  0.00  0.00     0.201 C 
ATOM      5  O   UNL d   1      25.427 -15.321  -1.803  0.00  0.00    -0.286 OA
ATOM      6  C   UNL d   1      26.661 -13.860  -0.458  0.00  0.00     0.045 C 
ATOM      7  C   UNL d   1      26.748 -14.821   0.552  0.00  0.00     0.062 C 
ATOM      8  C   UNL d   1      27.591 -14.591   1.631  0.00  0.00     0.143 C 
ATOM      9  F   UNL d   1      27.780 -15.580   2.519  0.00  0.00    -0.204 F 
ATOM     10  C   UNL d   1      28.255 -13.368   1.810  0.00  0.00     0.071 C 
ATOM     11  C   UNL d   1      28.014 -12.368   0.862  0.00  0.00     0.063 C 
ATOM     12  C   UNL d   1      27.309 -12.614  -0.333  0.00  0.00     0.051 C 
ENDROOT
BRANCH   3  13
ATOM     13  C   UNL d   1      25.238 -13.466  -4.133  0.00  0.00     0.284 C 
ATOM     14  O   UNL d   1      24.036 -13.700  -4.270  0.00  0.00    -0.265 OA
ATOM     15  N   UNL d   1      26.106 -13.485  -5.205  0.00  0.00    -0.183 NA
ATOM     16  C   UNL d   1      27.011 -14.403  -5.236  0.00  0.00     0.192 C 
ATOM     17  N   UNL d   1      27.361 -15.364  -4.322  0.00  0.00    -0.254 N 
ATOM     18  S   UNL d   1      28.210 -14.452  -6.537  0.00  0.00    -0.034 SA
ATOM     19  N   UNL d   1      28.575 -15.962  -4.434  0.00  0.00    -0.170 NA
ATOM     20  H   UNL d   1      26.944 -15.357  -3.398  0.00  0.00     0.191 HD
ATOM     21  C   UNL d   1      29.120 -15.581  -5.548  0.00  0.00     0.094 C 
ATOM     22  C   UNL d   1      30.452 -16.096  -5.968  0.00  0.00     0.081 C 
ENDBRANCH   3  13
BRANCH   1  23
ATOM     23  C   UNL d   1      28.080 -10.471  -1.401  0.00  0.00     0.124 C 
ATOM     24  C   UNL d   1      27.259  -9.192  -1.490  0.00  0.00     0.027 C 
ENDBRANCH   1  23
BRANCH  10  25
ATOM     25  N   UNL d   1      29.212 -13.165   2.789  0.00  0.00    -0.375 N 
ATOM     26  C   UNL d   1      30.269 -14.161   2.962  0.00  0.00     0.150 C 
ATOM     27  C   UNL d   1      30.162 -14.804   4.353  0.00  0.00     0.254 C 
ATOM     28  N   UNL d   1      30.179 -13.722   5.440  0.00  0.00    -0.072 N 
ATOM     29  C   UNL d   1      30.071 -14.334   6.806  0.00  0.00     0.269 C 
ATOM     30  C   UNL d   1      29.082 -12.672   5.199  0.00  0.00     0.254 C 
ATOM     31  H   UNL d   1      31.086 -13.241   5.381  0.00  0.00     0.279 HD
ATOM     32  C   UNL d   1      29.173 -12.079   3.767  0.00  0.00     0.150 C 
ENDBRANCH  10  25
TORSDOF 3
ENDMDL
MODEL 4
REMARK VINA RESULT:    -6.723      4.243      7.665
REMARK INTER + INTRA:          -8.987
REMARK INTER:                  -7.618
REMARK INTRA:                  -1.369
REMARK CONF_INDEPENDENT:        0.895
REMARK UNBOUND:                -1.369
REMARK  3 active torsions:
REMARK  status: ('A' for Active; 'I' for Inactive)
REMARK    1  A    between atoms: C_2  and  N_3 
REMARK    2  A    between atoms: C_5  and  C_6 
REMARK       I    between atoms: C_6  and  N_8 
REMARK    3  A    between atoms: C_21  and  N_22 
ROOT
ATOM      1  N   UNL d   1      27.516 -12.972  -0.558  0.00  0.00    -0.355 N 
ATOM      2  C   UNL d   1      27.957 -14.286  -0.448  0.00  0.00     0.112 C 
ATOM      3  C   UNL d   1      27.912 -15.263  -1.372  0.00  0.00     0.100 C 
ATOM      4  C   UNL d   1      27.449 -14.834  -2.720  0.00  0.00     0.201 C 
ATOM      5  O   UNL d   1      27.337 -15.601  -3.669  0.00  0.00    -0.286 OA
ATOM      6  C   UNL d   1      27.073 -13.405  -2.910  0.00  0.00     0.045 C 
ATOM      7  C   UNL d   1      26.636 -12.993  -4.171  0.00  0.00     0.062 C 
ATOM      8  C   UNL d   1      26.106 -11.718  -4.318  0.00  0.00     0.143 C 
ATOM      9  F   UNL d   1      25.555 -11.385  -5.496  0.00  0.00    -0.204 F 
ATOM     10  C   UNL d   1      26.121 -10.780  -3.275  0.00  0.00     0.071 C 
ATOM     11  C   UNL d   1      26.718 -11.175  -2.072  0.00  0.00     0.063 C 
ATOM     12  C   UNL d   1      27.108 -12.507  -1.824  0.00  0.00     0.051 C 
ENDROOT
BRANCH   3  13
ATOM     13  C   UNL d   1      28.164 -16.714  -1.026  0.00  0.00     0.284 C 
ATOM     14  O   UNL d   1      29.130 -17.322  -1.490  0.00  0.00    -0.265 OA
ATOM     15  N   UNL d   1      27.253 -17.329  -0.194  0.00  0.00    -0.183 NA
ATOM     16  C   UNL d   1      26.048 -17.487  -0.624  0.00  0.00     0.192 C 
ATOM     17  N   UNL d   1      25.432 -17.063  -1.774  0.00  0.00    -0.254 N 
ATOM     18  S   UNL d   1      24.801 -18.200   0.411  0.00  0.00    -0.034 SA
ATOM     19  N   UNL d   1      24.075 -17.041  -1.818  0.00  0.00    -0.170 NA
ATOM     20  H   UNL d   1      25.915 -16.431  -2.401  0.00  0.00     0.191 HD
ATOM     21  C   UNL d   1      23.618 -17.610  -0.746  0.00  0.00     0.094 C 
ATOM     22  C   UNL d   1      22.155 -17.766  -0.520  0.00  0.00     0.081 C 
ENDBRANCH   3  13
BRANCH   1  23
ATOM     23  C   UNL d   1      27.348 -12.128   0.651  0.00  0.00     0.124 C 
ATOM     24  C   UNL d   1      27.551 -12.914   1.939  0.00  0.00     0.027 C 
ENDBRANCH   1  23
BRANCH  10  25
ATOM     25  N   UNL d   1      25.470  -9.561  -3.346  0.00  0.00    -0.375 N 
ATOM     26  C   UNL d   1      24.780  -9.200  -4.584  0.00  0.00     0.150 C 
ATOM     27  C   UNL d   1      25.437  -7.959  -5.208  0.00  0.00     0.254 C 
ATOM     28  N   UNL d   1      25.477  -6.812  -4.191  0.00  0.00    -0.072 N 
ATOM     29  C   UNL d   1      26.121  -5.593  -4.785  0.00  0.00     0.269 C 
ATOM     30  C   UNL d   1      26.173  -7.245  -2.890  0.00  0.00     0.254 C 
ATOM     31  H   UNL d   1      24.505  -6.573  -3.958  0.00  0.00     0.279 HD
ATOM     32  C   UNL d   1      25.530  -8.533  -2.309  0.00  0.00     0.150 C 
ENDBRANCH  10  25
TORSDOF 3
ENDMDL
MODEL 5
REMARK VINA RESULT:    -6.681      4.228      5.437
REMARK INTER + INTRA:          -9.146
REMARK INTER:                  -7.576
REMARK INTRA:                  -1.570
REMARK CONF_INDEPENDENT:        0.895
REMARK UNBOUND:                -1.570
REMARK  3 active torsions:
REMARK  status: ('A' for Active; 'I' for Inactive)
REMARK    1  A    between atoms: C_2  and  N_3 
REMARK    2  A    between atoms: C_5  and  C_6 
REMARK       I    between atoms: C_6  and  N_8 
REMARK    3  A    between atoms: C_21  and  N_22 
ROOT
ATOM      1  N   UNL d   1      27.376 -16.202  -1.315  0.00  0.00    -0.355 N 
ATOM      2  C   UNL d   1      26.399 -15.639  -2.129  0.00  0.00     0.112 C 
ATOM      3  C   UNL d   1      26.505 -15.242  -3.410  0.00  0.00     0.100 C 
ATOM      4  C   UNL d   1      27.798 -15.575  -4.067  0.00  0.00     0.201 C 
ATOM      5  O   UNL d   1      28.063 -15.274  -5.225  0.00  0.00    -0.286 OA
ATOM      6  C   UNL d   1      28.833 -16.281  -3.261  0.00  0.00     0.045 C 
ATOM      7  C   UNL d   1      30.051 -16.597  -3.867  0.00  0.00     0.062 C 
ATOM      8  C   UNL d   1      31.089 -17.082  -3.084  0.00  0.00     0.143 C 
ATOM      9  F   UNL d   1      32.297 -17.242  -3.648  0.00  0.00    -0.204 F 
ATOM     10  C   UNL d   1      30.915 -17.398  -1.728  0.00  0.00     0.071 C 
ATOM     11  C   UNL d   1      29.634 -17.224  -1.193  0.00  0.00     0.063 C 
ATOM     12  C   UNL d   1      28.602 -16.573  -1.900  0.00  0.00     0.051 C 
ENDROOT
BRANCH   3  13
ATOM     13  C   UNL d   1      25.451 -14.390  -4.082  0.00  0.00     0.284 C 
ATOM     14  O   UNL d   1      24.780 -14.825  -5.020  0.00  0.00    -0.265 OA
ATOM     15  N   UNL d   1      25.295 -13.102  -3.617  0.00  0.00    -0.183 NA
ATOM     16  C   UNL d   1      26.274 -12.277  -3.773  0.00  0.00     0.192 C 
ATOM     17  N   UNL d   1      27.545 -12.458  -4.257  0.00  0.00    -0.254 N 
ATOM     18  S   UNL d   1      26.182 -10.628  -3.138  0.00  0.00    -0.034 SA
ATOM     19  N   UNL d   1      28.491 -11.525  -3.975  0.00  0.00    -0.170 NA
ATOM     20  H   UNL d   1      27.878 -13.393  -4.460  0.00  0.00     0.191 HD
ATOM     21  C   UNL d   1      27.915 -10.516  -3.400  0.00  0.00     0.094 C 
ATOM     22  C   UNL d   1      28.693  -9.313  -2.997  0.00  0.00     0.081 C 
ENDBRANCH   3  13
BRANCH   1  23
ATOM     23  C   UNL d   1      27.181 -16.279   0.154  0.00  0.00     0.124 C 
ATOM     24  C   UNL d   1      26.665 -17.640   0.601  0.00  0.00     0.027 C 
ENDBRANCH   1  23
BRANCH  10  25
ATOM     25  N   UNL d   1      31.963 -17.739  -0.892  0.00  0.00    -0.375 N 
ATOM     26  C   UNL d   1      32.479 -19.108  -0.928  0.00  0.00     0.150 C 
ATOM     27  C   UNL d   1      32.250 -19.791   0.429  0.00  0.00     0.254 C 
ATOM     28  N   UNL d   1      32.866 -18.951   1.556  0.00  0.00    -0.072 N 
ATOM     29  C   UNL d   1      32.647 -19.604   2.890  0.00  0.00     0.269 C 
ATOM     30  C   UNL d   1      32.330 -17.511   1.533  0.00  0.00     0.254 C 
ATOM     31  H   UNL d   1      33.879 -18.908   1.389  0.00  0.00     0.279 HD
ATOM     32  C   UNL d   1      32.517 -16.860   0.136  0.00  0.00     0.150 C 
ENDBRANCH  10  25
TORSDOF 3
ENDMDL
MODEL 6
REMARK VINA RESULT:    -6.650      4.392      8.780
REMARK INTER + INTRA:          -9.153
REMARK INTER:                  -7.545
REMARK INTRA:                  -1.608
REMARK CONF_INDEPENDENT:        0.895
REMARK UNBOUND:                -1.608
REMARK  3 active torsions:
REMARK  status: ('A' for Active; 'I' for Inactive)
REMARK    1  A    between atoms: C_2  and  N_3 
REMARK    2  A    between atoms: C_5  and  C_6 
REMARK       I    between atoms: C_6  and  N_8 
REMARK    3  A    between atoms: C_21  and  N_22 
ROOT
ATOM      1  N   UNL d   1      28.578 -15.659  -3.660  0.00  0.00    -0.355 N 
ATOM      2  C   UNL d   1      27.964 -14.989  -2.608  0.00  0.00     0.112 C 
ATOM      3  C   UNL d   1      28.007 -15.277  -1.294  0.00  0.00     0.100 C 
ATOM      4  C   UNL d   1      28.940 -16.375  -0.922  0.00  0.00     0.201 C 
ATOM      5  O   UNL d   1      29.089 -16.770   0.229  0.00  0.00    -0.286 OA
ATOM      6  C   UNL d   1      29.704 -17.046  -2.010  0.00  0.00     0.045 C 
ATOM      7  C   UNL d   1      30.581 -18.079  -1.670  0.00  0.00     0.062 C 
ATOM      8  C   UNL d   1      31.156 -18.836  -2.682  0.00  0.00     0.143 C 
ATOM      9  F   UNL d   1      31.878 -19.916  -2.343  0.00  0.00    -0.204 F 
ATOM     10  C   UNL d   1      30.995 -18.513  -4.038  0.00  0.00     0.071 C 
ATOM     11  C   UNL d   1      30.243 -17.371  -4.335  0.00  0.00     0.063 C 
ATOM     12  C   UNL d   1      29.501 -16.678  -3.356  0.00  0.00     0.051 C 
ENDROOT
BRANCH   3  13
ATOM     13  C   UNL d   1      27.068 -14.638  -0.296  0.00  0.00     0.284 C 
ATOM     14  O   UNL d   1      27.493 -13.938   0.625  0.00  0.00    -0.265 OA
ATOM     15  N   UNL d   1      25.721 -14.895  -0.446  0.00  0.00    -0.183 NA
ATOM     16  C   UNL d   1      25.312 -16.107  -0.280  0.00  0.00     0.192 C 
ATOM     17  N   UNL d   1      25.999 -17.274  -0.058  0.00  0.00    -0.254 N 
ATOM     18  S   UNL d   1      23.613 -16.534  -0.528  0.00  0.00    -0.034 SA
ATOM     19  N   UNL d   1      25.369 -18.456  -0.285  0.00  0.00    -0.170 NA
ATOM     20  H   UNL d   1      27.010 -17.282  -0.114  0.00  0.00     0.191 HD
ATOM     21  C   UNL d   1      24.119 -18.215  -0.532  0.00  0.00     0.094 C 
ATOM     22  C   UNL d   1      23.159 -19.323  -0.793  0.00  0.00     0.081 C 
ENDBRANCH   3  13
BRANCH   1  23
ATOM     23  C   UNL d   1      28.165 -15.402  -5.062  0.00  0.00     0.124 C 
ATOM     24  C   UNL d   1      26.669 -15.153  -5.190  0.00  0.00     0.027 C 
ENDBRANCH   1  23
BRANCH  10  25
ATOM     25  N   UNL d   1      31.430 -19.331  -5.066  0.00  0.00    -0.375 N 
ATOM     26  C   UNL d   1      32.723 -19.053  -5.691  0.00  0.00     0.150 C 
ATOM     27  C   UNL d   1      32.522 -18.683  -7.169  0.00  0.00     0.254 C 
ATOM     28  N   UNL d   1      31.735 -19.785  -7.890  0.00  0.00    -0.072 N 
ATOM     29  C   UNL d   1      31.527 -19.436  -9.334  0.00  0.00     0.269 C 
ATOM     30  C   UNL d   1      30.404 -20.075  -7.177  0.00  0.00     0.254 C 
ATOM     31  H   UNL d   1      32.301 -20.642  -7.851  0.00  0.00     0.279 HD
ATOM     32  C   UNL d   1      30.625 -20.389  -5.673  0.00  0.00     0.150 C 
ENDBRANCH  10  25
TORSDOF 3
ENDMDL
MODEL 7
REMARK VINA RESULT:    -6.607      2.548      3.959
REMARK INTER + INTRA:          -9.121
REMARK INTER:                  -7.502
REMARK INTRA:                  -1.619
REMARK CONF_INDEPENDENT:        0.895
REMARK UNBOUND:                -1.619
REMARK  3 active torsions:
REMARK  status: ('A' for Active; 'I' for Inactive)
REMARK    1  A    between atoms: C_2  and  N_3 
REMARK    2  A    between atoms: C_5  and  C_6 
REMARK       I    between atoms: C_6  and  N_8 
REMARK    3  A    between atoms: C_21  and  N_22 
ROOT
ATOM      1  N   UNL d   1      28.970 -15.949  -0.757  0.00  0.00    -0.355 N 
ATOM      2  C   UNL d   1      28.147 -15.967  -1.878  0.00  0.00     0.112 C 
ATOM      3  C   UNL d   1      27.080 -15.192  -2.144  0.00  0.00     0.100 C 
ATOM      4  C   UNL d   1      26.840 -14.095  -1.168  0.00  0.00     0.201 C 
ATOM      5  O   UNL d   1      25.905 -13.308  -1.256  0.00  0.00    -0.286 OA
ATOM      6  C   UNL d   1      27.769 -13.971  -0.010  0.00  0.00     0.045 C 
ATOM      7  C   UNL d   1      27.551 -12.945   0.913  0.00  0.00     0.062 C 
ATOM      8  C   UNL d   1      28.286 -12.930   2.091  0.00  0.00     0.143 C 
ATOM      9  F   UNL d   1      27.967 -12.029   3.033  0.00  0.00    -0.204 F 
ATOM     10  C   UNL d   1      29.337 -13.829   2.325  0.00  0.00     0.071 C 
ATOM     11  C   UNL d   1      29.635 -14.740   1.305  0.00  0.00     0.063 C 
ATOM     12  C   UNL d   1      28.809 -14.906   0.174  0.00  0.00     0.051 C 
ENDROOT
BRANCH   3  13
ATOM     13  C   UNL d   1      26.112 -15.507  -3.263  0.00  0.00     0.284 C 
ATOM     14  O   UNL d   1      25.957 -14.734  -4.210  0.00  0.00    -0.265 OA
ATOM     15  N   UNL d   1      25.395 -16.680  -3.161  0.00  0.00    -0.183 NA
ATOM     16  C   UNL d   1      24.546 -16.791  -2.196  0.00  0.00     0.192 C 
ATOM     17  N   UNL d   1      24.262 -15.966  -1.138  0.00  0.00    -0.254 N 
ATOM     18  S   UNL d   1      23.641 -18.292  -1.952  0.00  0.00    -0.034 SA
ATOM     19  N   UNL d   1      23.598 -16.477  -0.070  0.00  0.00    -0.170 NA
ATOM     20  H   UNL d   1      24.842 -15.153  -0.963  0.00  0.00     0.191 HD
ATOM     21  C   UNL d   1      23.211 -17.680  -0.363  0.00  0.00     0.094 C 
ATOM     22  C   UNL d   1      22.425 -18.493   0.605  0.00  0.00     0.081 C 
ENDBRANCH   3  13
BRANCH   1  23
ATOM     23  C   UNL d   1      29.894 -17.078  -0.482  0.00  0.00     0.124 C 
ATOM     24  C   UNL d   1      31.348 -16.715  -0.749  0.00  0.00     0.027 C 
ENDBRANCH   1  23
BRANCH  10  25
ATOM     25  N   UNL d   1      29.985 -13.933   3.543  0.00  0.00    -0.375 N 
ATOM     26  C   UNL d   1      29.434 -14.825   4.563  0.00  0.00     0.150 C 
ATOM     27  C   UNL d   1      28.997 -14.012   5.791  0.00  0.00     0.254 C 
ATOM     28  N   UNL d   1      30.166 -13.163   6.309  0.00  0.00    -0.072 N 
ATOM     29  C   UNL d   1      29.753 -12.359   7.507  0.00  0.00     0.269 C 
ATOM     30  C   UNL d   1      30.742 -12.272   5.196  0.00  0.00     0.254 C 
ATOM     31  H   UNL d   1      30.908 -13.810   6.604  0.00  0.00     0.279 HD
ATOM     32  C   UNL d   1      31.122 -13.107   3.944  0.00  0.00     0.150 C 
ENDBRANCH  10  25
TORSDOF 3
ENDMDL
MODEL 8
REMARK VINA RESULT:    -6.555      3.434      4.171
REMARK INTER + INTRA:          -9.029
REMARK INTER:                  -7.450
REMARK INTRA:                  -1.579
REMARK CONF_INDEPENDENT:        0.895
REMARK UNBOUND:                -1.579
REMARK  3 active torsions:
REMARK  status: ('A' for Active; 'I' for Inactive)
REMARK    1  A    between atoms: C_2  and  N_3 
REMARK    2  A    between atoms: C_5  and  C_6 
REMARK       I    between atoms: C_6  and  N_8 
REMARK    3  A    between atoms: C_21  and  N_22 
ROOT
ATOM      1  N   UNL d   1      27.167 -16.044  -1.182  0.00  0.00    -0.355 N 
ATOM      2  C   UNL d   1      26.534 -15.888  -2.410  0.00  0.00     0.112 C 
ATOM      3  C   UNL d   1      27.070 -15.505  -3.584  0.00  0.00     0.100 C 
ATOM      4  C   UNL d   1      28.551 -15.361  -3.582  0.00  0.00     0.201 C 
ATOM      5  O   UNL d   1      29.195 -15.008  -4.563  0.00  0.00    -0.286 OA
ATOM      6  C   UNL d   1      29.280 -15.630  -2.311  0.00  0.00     0.045 C 
ATOM      7  C   UNL d   1      30.671 -15.496  -2.299  0.00  0.00     0.062 C 
ATOM      8  C   UNL d   1      31.344 -15.557  -1.086  0.00  0.00     0.143 C 
ATOM      9  F   UNL d   1      32.657 -15.281  -1.068  0.00  0.00    -0.204 F 
ATOM     10  C   UNL d   1      30.692 -15.887   0.112  0.00  0.00     0.071 C 
ATOM     11  C   UNL d   1      29.326 -16.177   0.034  0.00  0.00     0.063 C 
ATOM     12  C   UNL d   1      28.572 -15.958  -1.137  0.00  0.00     0.051 C 
ENDROOT
BRANCH   3  13
ATOM     13  C   UNL d   1      26.219 -15.105  -4.769  0.00  0.00     0.284 C 
ATOM     14  O   UNL d   1      26.132 -15.825  -5.765  0.00  0.00    -0.265 OA
ATOM     15  N   UNL d   1      25.569 -13.892  -4.693  0.00  0.00    -0.183 NA
ATOM     16  C   UNL d   1      26.285 -12.820  -4.657  0.00  0.00     0.192 C 
ATOM     17  N   UNL d   1      27.643 -12.638  -4.585  0.00  0.00    -0.254 N 
ATOM     18  S   UNL d   1      25.530 -11.229  -4.485  0.00  0.00    -0.034 SA
ATOM     19  N   UNL d   1      28.121 -11.430  -4.190  0.00  0.00    -0.170 NA
ATOM     20  H   UNL d   1      28.251 -13.435  -4.437  0.00  0.00     0.191 HD
ATOM     21  C   UNL d   1      27.127 -10.601  -4.109  0.00  0.00     0.094 C 
ATOM     22  C   UNL d   1      27.340  -9.179  -3.726  0.00  0.00     0.081 C 
ENDBRANCH   3  13
BRANCH   1  23
ATOM     23  C   UNL d   1      26.372 -16.157   0.066  0.00  0.00     0.124 C 
ATOM     24  C   UNL d   1      25.916 -17.583   0.337  0.00  0.00     0.027 C 
ENDBRANCH   1  23
BRANCH  10  25
ATOM     25  N   UNL d   1      31.304 -15.810   1.350  0.00  0.00    -0.375 N 
ATOM     26  C   UNL d   1      31.008 -14.669   2.216  0.00  0.00     0.150 C 
ATOM     27  C   UNL d   1      32.281 -13.841   2.447  0.00  0.00     0.254 C 
ATOM     28  N   UNL d   1      33.402 -14.732   2.998  0.00  0.00    -0.072 N 
ATOM     29  C   UNL d   1      34.654 -13.937   3.224  0.00  0.00     0.269 C 
ATOM     30  C   UNL d   1      33.653 -15.941   2.081  0.00  0.00     0.254 C 
ATOM     31  H   UNL d   1      33.088 -15.092   3.908  0.00  0.00     0.279 HD
ATOM     32  C   UNL d   1      32.342 -16.729   1.814  0.00  0.00     0.150 C 
ENDBRANCH  10  25
TORSDOF 3
ENDMDL
MODEL 9
REMARK VINA RESULT:    -6.539      2.723      4.291
REMARK INTER + INTRA:          -9.049
REMARK INTER:                  -7.434
REMARK INTRA:                  -1.614
REMARK CONF_INDEPENDENT:        0.895
REMARK UNBOUND:                -1.614
REMARK  3 active torsions:
REMARK  status: ('A' for Active; 'I' for Inactive)
REMARK    1  A    between atoms: C_2  and  N_3 
REMARK    2  A    between atoms: C_5  and  C_6 
REMARK       I    between atoms: C_6  and  N_8 
REMARK    3  A    between atoms: C_21  and  N_22 
ROOT
ATOM      1  N   UNL d   1      27.220 -11.312  -2.532  0.00  0.00    -0.355 N 
ATOM      2  C   UNL d   1      26.736 -10.929  -3.778  0.00  0.00     0.112 C 
ATOM      3  C   UNL d   1      26.133 -11.690  -4.711  0.00  0.00     0.100 C 
ATOM      4  C   UNL d   1      25.836 -13.086  -4.288  0.00  0.00     0.201 C 
ATOM      5  O   UNL d   1      25.304 -13.911  -5.020  0.00  0.00    -0.286 OA
ATOM      6  C   UNL d   1      26.239 -13.504  -2.917  0.00  0.00     0.045 C 
ATOM      7  C   UNL d   1      25.966 -14.813  -2.512  0.00  0.00     0.062 C 
ATOM      8  C   UNL d   1      26.498 -15.273  -1.315  0.00  0.00     0.143 C 
ATOM      9  F   UNL d   1      26.354 -16.572  -1.008  0.00  0.00    -0.204 F 
ATOM     10  C   UNL d   1      27.186 -14.428  -0.431  0.00  0.00     0.071 C 
ATOM     11  C   UNL d   1      27.298 -13.082  -0.794  0.00  0.00     0.063 C 
ATOM     12  C   UNL d   1      26.928 -12.610  -2.071  0.00  0.00     0.051 C 
ENDROOT
BRANCH   3  13
ATOM     13  C   UNL d   1      25.914 -11.208  -6.128  0.00  0.00     0.284 C 
ATOM     14  O   UNL d   1      24.780 -11.091  -6.594  0.00  0.00    -0.265 OA
ATOM     15  N   UNL d   1      27.038 -10.934  -6.878  0.00  0.00    -0.183 NA
ATOM     16  C   UNL d   1      27.824 -11.912  -7.174  0.00  0.00     0.192 C 
ATOM     17  N   UNL d   1      27.814 -13.231  -6.796  0.00  0.00    -0.254 N 
ATOM     18  S   UNL d   1      29.325 -11.632  -8.070  0.00  0.00    -0.034 SA
ATOM     19  N   UNL d   1      28.949 -13.962  -6.944  0.00  0.00    -0.170 NA
ATOM     20  H   UNL d   1      27.161 -13.547  -6.089  0.00  0.00     0.191 HD
ATOM     21  C   UNL d   1      29.814 -13.251  -7.599  0.00  0.00     0.094 C 
ATOM     22  C   UNL d   1      31.155 -13.798  -7.945  0.00  0.00     0.081 C 
ENDBRANCH   3  13
BRANCH   1  23
ATOM     23  C   UNL d   1      28.137 -10.425  -1.774  0.00  0.00     0.124 C 
ATOM     24  C   UNL d   1      29.222  -9.822  -2.655  0.00  0.00     0.027 C 
ENDBRANCH   1  23
BRANCH  10  25
ATOM     25  N   UNL d   1      27.852 -14.890   0.691  0.00  0.00    -0.375 N 
ATOM     26  C   UNL d   1      27.413 -14.435   2.010  0.00  0.00     0.150 C 
ATOM     27  C   UNL d   1      28.532 -13.627   2.685  0.00  0.00     0.254 C 
ATOM     28  N   UNL d   1      29.825 -14.452   2.737  0.00  0.00    -0.072 N 
ATOM     29  C   UNL d   1      30.930 -13.674   3.390  0.00  0.00     0.269 C 
ATOM     30  C   UNL d   1      30.227 -14.946   1.338  0.00  0.00     0.254 C 
ATOM     31  H   UNL d   1      29.638 -15.280   3.317  0.00  0.00     0.279 HD
ATOM     32  C   UNL d   1      29.062 -15.708   0.652  0.00  0.00     0.150 C 
ENDBRANCH  10  25
TORSDOF 3
ENDMDL
