MODEL 1
REMARK VINA RESULT:    -9.550      0.000      0.000
REMARK INTER + INTRA:         -15.758
REMARK INTER:                 -13.129
REMARK INTRA:                  -2.628
REMARK CONF_INDEPENDENT:        3.580
REMARK UNBOUND:                -2.628
REMARK  12 active torsions:
REMARK  status: ('A' for Active; 'I' for Inactive)
REMARK    1  A    between atoms: C_2  and  C_3 
REMARK    2  A    between atoms: C_3  and  N_4 
REMARK       I    between atoms: N_4  and  C_5 
REMARK    3  A    between atoms: C_17  and  N_4 
REMARK    4  A    between atoms: C_5  and  C_7 
REMARK    5  A    between atoms: C_7  and  N_8 
REMARK       I    between atoms: N_8  and  C_9 
REMARK    6  A    between atoms: C_9  and  C_11 
REMARK    7  A    between atoms: C_17  and  C_27 
REMARK    8  A    between atoms: C_17  and  C_18 
REMARK       I    between atoms: C_18  and  N_20 
REMARK    9  A    between atoms: N_20  and  C_21 
REMARK   10  A    between atoms: C_28  and  O_29 
REMARK   11  A    between atoms: C_31  and  O_32 
REMARK   12  A    between atoms: C_34  and  O_35 
ROOT
ATOM      1  C   UNL d   1      27.099 -16.044  -0.167  0.00  0.00     0.218 C 
ENDROOT
BRANCH   1   2
ATOM      2  C   UNL d   1      28.311 -15.945  -1.080  0.00  0.00     0.040 C 
ATOM      3  C   UNL d   1      28.736 -14.783  -1.733  0.00  0.00     0.080 C 
ATOM      4  C   UNL d   1      29.665 -14.841  -2.767  0.00  0.00     0.073 C 
ATOM      5  C   UNL d   1      30.285 -16.040  -3.078  0.00  0.00     0.071 C 
ATOM      6  C   UNL d   1      29.991 -17.190  -2.375  0.00  0.00     0.073 C 
ATOM      7  C   UNL d   1      29.057 -17.118  -1.351  0.00  0.00     0.080 C 
BRANCH   3   8
ATOM      8  O   UNL d   1      28.380 -13.500  -1.431  0.00  0.00    -0.360 OA
ATOM      9  H   UNL d   1      28.859 -13.157  -0.653  0.00  0.00     0.217 HD
ENDBRANCH   3   8
BRANCH   5  10
ATOM     10  O   UNL d   1      31.258 -16.102  -4.027  0.00  0.00    -0.361 OA
ATOM     11  H   UNL d   1      31.201 -15.289  -4.557  0.00  0.00     0.217 HD
ENDBRANCH   5  10
BRANCH   7  12
ATOM     12  O   UNL d   1      28.957 -18.203  -0.521  0.00  0.00    -0.360 OA
ATOM     13  H   UNL d   1      29.516 -18.066   0.265  0.00  0.00     0.217 HD
ENDBRANCH   7  12
ENDBRANCH   1   2
BRANCH   1  14
ATOM     14  C   UNL d   1      27.013 -15.034   0.998  0.00  0.00     0.245 C 
ATOM     15  O   UNL d   1      26.196 -14.113   0.917  0.00  0.00    -0.271 OA
ATOM     16  N   UNL d   1      27.828 -15.201   2.119  0.00  0.00    -0.354 N 
ATOM     17  H   UNL d   1      28.451 -16.017   2.137  0.00  0.00     0.162 HD
BRANCH  16  18
ATOM     18  C   UNL d   1      28.266 -14.071   2.945  0.00  0.00     0.084 C 
ATOM     19  C   UNL d   1      27.428 -14.038   4.229  0.00  0.00     0.025 C 
ATOM     20  C   UNL d   1      27.929 -13.145   5.331  0.00  0.00     0.002 C 
ATOM     21  C   UNL d   1      29.409 -13.410   5.573  0.00  0.00     0.000 C 
ATOM     22  C   UNL d   1      30.214 -13.170   4.301  0.00  0.00     0.002 C 
ATOM     23  C   UNL d   1      29.776 -14.106   3.177  0.00  0.00     0.025 C 
ENDBRANCH  16  18
ENDBRANCH   1  14
BRANCH   1  24
ATOM     24  N   UNL d   1      25.787 -16.285  -0.868  0.00  0.00    -0.333 N 
ATOM     25  C   UNL d   1      24.952 -17.299  -0.381  0.00  0.00     0.238 C 
ATOM     26  O   UNL d   1      25.264 -18.036   0.562  0.00  0.00    -0.272 OA
BRANCH  24  27
ATOM     27  C   UNL d   1      25.460 -15.290  -1.940  0.00  0.00     0.127 C 
BRANCH  27  28
ATOM     28  C   UNL d   1      25.538 -15.747  -3.374  0.00  0.00     0.015 C 
ATOM     29  C   UNL d   1      25.578 -14.716  -4.461  0.00  0.00     0.006 C 
ENDBRANCH  27  28
ENDBRANCH  24  27
BRANCH  25  30
ATOM     30  C   UNL d   1      23.583 -17.529  -1.001  0.00  0.00     0.225 C 
BRANCH  30  31
ATOM     31  N   UNL d   1      22.739 -18.457  -0.315  0.00  0.00    -0.348 N 
ATOM     32  C   UNL d   1      21.388 -18.357  -0.516  0.00  0.00     0.252 C 
ATOM     33  O   UNL d   1      20.862 -17.530  -1.270  0.00  0.00    -0.268 OA
ATOM     34  H   UNL d   1      23.180 -19.174   0.249  0.00  0.00     0.163 HD
BRANCH  32  35
ATOM     35  C   UNL d   1      20.557 -19.295   0.242  0.00  0.00     0.032 A 
ATOM     36  C   UNL d   1      19.616 -20.075  -0.432  0.00  0.00     0.017 A 
ATOM     37  C   UNL d   1      18.736 -20.862   0.303  0.00  0.00     0.001 A 
ATOM     38  C   UNL d   1      18.842 -20.912   1.695  0.00  0.00     0.000 A 
ATOM     39  C   UNL d   1      19.800 -20.144   2.361  0.00  0.00     0.001 A 
ATOM     40  C   UNL d   1      20.655 -19.325   1.636  0.00  0.00     0.017 A 
ENDBRANCH  32  35
ENDBRANCH  30  31
ENDBRANCH  25  30
ENDBRANCH   1  24
TORSDOF 12
ENDMDL
MODEL 2
REMARK VINA RESULT:    -8.401      5.912      9.588
REMARK INTER + INTRA:         -15.984
REMARK INTER:                 -11.981
REMARK INTRA:                  -4.004
REMARK CONF_INDEPENDENT:        3.580
REMARK UNBOUND:                -4.004
REMARK  12 active torsions:
REMARK  status: ('A' for Active; 'I' for Inactive)
REMARK    1  A    between atoms: C_2  and  C_3 
REMARK    2  A    between atoms: C_3  and  N_4 
REMARK       I    between atoms: N_4  and  C_5 
REMARK    3  A    between atoms: C_17  and  N_4 
REMARK    4  A    between atoms: C_5  and  C_7 
REMARK    5  A    between atoms: C_7  and  N_8 
REMARK       I    between atoms: N_8  and  C_9 
REMARK    6  A    between atoms: C_9  and  C_11 
REMARK    7  A    between atoms: C_17  and  C_27 
REMARK    8  A    between atoms: C_17  and  C_18 
REMARK       I    between atoms: C_18  and  N_20 
REMARK    9  A    between atoms: N_20  and  C_21 
REMARK   10  A    between atoms: C_28  and  O_29 
REMARK   11  A    between atoms: C_31  and  O_32 
REMARK   12  A    between atoms: C_34  and  O_35 
ROOT
ATOM      1  C   UNL d   1      32.413 -21.235   1.587  0.00  0.00     0.218 C 
ENDROOT
BRANCH   1   2
ATOM      2  C   UNL d   1      31.973 -21.139   3.040  0.00  0.00     0.040 C 
ATOM      3  C   UNL d   1      32.774 -20.697   4.098  0.00  0.00     0.080 C 
ATOM      4  C   UNL d   1      32.400 -20.913   5.420  0.00  0.00     0.073 C 
ATOM      5  C   UNL d   1      31.159 -21.455   5.711  0.00  0.00     0.071 C 
ATOM      6  C   UNL d   1      30.280 -21.789   4.702  0.00  0.00     0.073 C 
ATOM      7  C   UNL d   1      30.670 -21.574   3.387  0.00  0.00     0.080 C 
BRANCH   3   8
ATOM      8  O   UNL d   1      33.931 -19.976   4.001  0.00  0.00    -0.360 OA
ATOM      9  H   UNL d   1      33.781 -19.086   3.629  0.00  0.00     0.217 HD
ENDBRANCH   3   8
BRANCH   5  10
ATOM     10  O   UNL d   1      30.738 -21.595   6.997  0.00  0.00    -0.361 OA
ATOM     11  H   UNL d   1      30.416 -22.506   7.101  0.00  0.00     0.217 HD
ENDBRANCH   5  10
BRANCH   7  12
ATOM     12  O   UNL d   1      29.705 -21.689   2.423  0.00  0.00    -0.360 OA
ATOM     13  H   UNL d   1      29.635 -20.853   1.928  0.00  0.00     0.217 HD
ENDBRANCH   7  12
ENDBRANCH   1   2
BRANCH   1  14
ATOM     14  C   UNL d   1      32.388 -22.636   0.937  0.00  0.00     0.245 C 
ATOM     15  O   UNL d   1      33.455 -23.133   0.572  0.00  0.00    -0.271 OA
ATOM     16  N   UNL d   1      31.175 -23.316   0.809  0.00  0.00    -0.354 N 
ATOM     17  H   UNL d   1      30.332 -22.859   1.177  0.00  0.00     0.162 HD
BRANCH  16  18
ATOM     18  C   UNL d   1      30.932 -24.291  -0.259  0.00  0.00     0.084 C 
ATOM     19  C   UNL d   1      29.883 -25.302   0.217  0.00  0.00     0.025 C 
ATOM     20  C   UNL d   1      29.282 -26.189  -0.837  0.00  0.00     0.002 C 
ATOM     21  C   UNL d   1      28.824 -25.344  -2.019  0.00  0.00     0.000 C 
ATOM     22  C   UNL d   1      29.992 -24.557  -2.603  0.00  0.00     0.002 C 
ATOM     23  C   UNL d   1      30.587 -23.596  -1.577  0.00  0.00     0.025 C 
ENDBRANCH  16  18
ENDBRANCH   1  14
BRANCH   1  24
ATOM     24  N   UNL d   1      31.909 -20.134   0.691  0.00  0.00    -0.333 N 
ATOM     25  C   UNL d   1      32.296 -18.818   0.976  0.00  0.00     0.238 C 
ATOM     26  O   UNL d   1      32.986 -18.515   1.956  0.00  0.00    -0.272 OA
BRANCH  24  27
ATOM     27  C   UNL d   1      31.153 -20.607  -0.514  0.00  0.00     0.127 C 
BRANCH  27  28
ATOM     28  C   UNL d   1      31.844 -20.540  -1.852  0.00  0.00     0.015 C 
ATOM     29  C   UNL d   1      33.329 -20.735  -1.910  0.00  0.00     0.006 C 
ENDBRANCH  27  28
ENDBRANCH  24  27
BRANCH  25  30
ATOM     30  C   UNL d   1      31.881 -17.681   0.057  0.00  0.00     0.225 C 
BRANCH  30  31
ATOM     31  N   UNL d   1      30.496 -17.329   0.091  0.00  0.00    -0.348 N 
ATOM     32  C   UNL d   1      29.778 -17.460  -1.068  0.00  0.00     0.252 C 
ATOM     33  O   UNL d   1      30.250 -17.886  -2.128  0.00  0.00    -0.268 OA
ATOM     34  H   UNL d   1      30.099 -17.044   0.979  0.00  0.00     0.163 HD
BRANCH  32  35
ATOM     35  C   UNL d   1      28.375 -17.044  -1.002  0.00  0.00     0.032 A 
ATOM     36  C   UNL d   1      27.570 -17.515   0.036  0.00  0.00     0.017 A 
ATOM     37  C   UNL d   1      26.209 -17.230   0.020  0.00  0.00     0.001 A 
ATOM     38  C   UNL d   1      25.675 -16.430  -0.994  0.00  0.00     0.000 A 
ATOM     39  C   UNL d   1      26.491 -15.946  -2.018  0.00  0.00     0.001 A 
ATOM     40  C   UNL d   1      27.844 -16.260  -2.030  0.00  0.00     0.017 A 
ENDBRANCH  32  35
ENDBRANCH  30  31
ENDBRANCH  25  30
ENDBRANCH   1  24
TORSDOF 12
ENDMDL
MODEL 3
REMARK VINA RESULT:    -8.057      2.645      7.900
REMARK INTER + INTRA:         -15.458
REMARK INTER:                 -11.637
REMARK INTRA:                  -3.822
REMARK CONF_INDEPENDENT:        3.580
REMARK UNBOUND:                -3.822
REMARK  12 active torsions:
REMARK  status: ('A' for Active; 'I' for Inactive)
REMARK    1  A    between atoms: C_2  and  C_3 
REMARK    2  A    between atoms: C_3  and  N_4 
REMARK       I    between atoms: N_4  and  C_5 
REMARK    3  A    between atoms: C_17  and  N_4 
REMARK    4  A    between atoms: C_5  and  C_7 
REMARK    5  A    between atoms: C_7  and  N_8 
REMARK       I    between atoms: N_8  and  C_9 
REMARK    6  A    between atoms: C_9  and  C_11 
REMARK    7  A    between atoms: C_17  and  C_27 
REMARK    8  A    between atoms: C_17  and  C_18 
REMARK       I    between atoms: C_18  and  N_20 
REMARK    9  A    between atoms: N_20  and  C_21 
REMARK   10  A    between atoms: C_28  and  O_29 
REMARK   11  A    between atoms: C_31  and  O_32 
REMARK   12  A    between atoms: C_34  and  O_35 
ROOT
ATOM      1  C   UNL d   1      26.364 -16.301  -2.396  0.00  0.00     0.218 C 
ENDROOT
BRANCH   1   2
ATOM      2  C   UNL d   1      25.308 -16.865  -1.457  0.00  0.00     0.040 C 
ATOM      3  C   UNL d   1      25.496 -17.941  -0.583  0.00  0.00     0.080 C 
ATOM      4  C   UNL d   1      24.414 -18.575   0.019  0.00  0.00     0.073 C 
ATOM      5  C   UNL d   1      23.136 -18.062  -0.135  0.00  0.00     0.071 C 
ATOM      6  C   UNL d   1      22.916 -16.925  -0.885  0.00  0.00     0.073 C 
ATOM      7  C   UNL d   1      24.006 -16.308  -1.485  0.00  0.00     0.080 C 
BRANCH   3   8
ATOM      8  O   UNL d   1      26.691 -18.454  -0.166  0.00  0.00    -0.360 OA
ATOM      9  H   UNL d   1      27.209 -17.809   0.352  0.00  0.00     0.217 HD
ENDBRANCH   3   8
BRANCH   5  10
ATOM     10  O   UNL d   1      22.075 -18.615   0.513  0.00  0.00    -0.361 OA
ATOM     11  H   UNL d   1      22.252 -19.566   0.605  0.00  0.00     0.217 HD
ENDBRANCH   5  10
BRANCH   7  12
ATOM     12  O   UNL d   1      23.801 -15.064  -2.020  0.00  0.00    -0.360 OA
ATOM     13  H   UNL d   1      24.459 -14.442  -1.661  0.00  0.00     0.217 HD
ENDBRANCH   7  12
ENDBRANCH   1   2
BRANCH   1  14
ATOM     14  C   UNL d   1      25.867 -15.429  -3.568  0.00  0.00     0.245 C 
ATOM     15  O   UNL d   1      25.750 -15.950  -4.680  0.00  0.00    -0.271 OA
ATOM     16  N   UNL d   1      25.533 -14.092  -3.342  0.00  0.00    -0.354 N 
ATOM     17  H   UNL d   1      25.612 -13.738  -2.381  0.00  0.00     0.162 HD
BRANCH  16  18
ATOM     18  C   UNL d   1      25.640 -13.069  -4.387  0.00  0.00     0.084 C 
ATOM     19  C   UNL d   1      25.530 -11.683  -3.742  0.00  0.00     0.025 C 
ATOM     20  C   UNL d   1      25.919 -10.513  -4.602  0.00  0.00     0.002 C 
ATOM     21  C   UNL d   1      27.272 -10.780  -5.250  0.00  0.00     0.000 C 
ATOM     22  C   UNL d   1      27.224 -12.051  -6.090  0.00  0.00     0.002 C 
ATOM     23  C   UNL d   1      26.894 -13.273  -5.237  0.00  0.00     0.025 C 
ENDBRANCH  16  18
ENDBRANCH   1  14
BRANCH   1  24
ATOM     24  N   UNL d   1      27.604 -15.775  -1.722  0.00  0.00    -0.333 N 
ATOM     25  C   UNL d   1      27.460 -14.753  -0.774  0.00  0.00     0.238 C 
ATOM     26  O   UNL d   1      26.372 -14.231  -0.505  0.00  0.00    -0.272 OA
BRANCH  24  27
ATOM     27  C   UNL d   1      28.859 -16.526  -2.048  0.00  0.00     0.127 C 
BRANCH  27  28
ATOM     28  C   UNL d   1      29.280 -16.602  -3.494  0.00  0.00     0.015 C 
ATOM     29  C   UNL d   1      29.470 -15.328  -4.260  0.00  0.00     0.006 C 
ENDBRANCH  27  28
ENDBRANCH  24  27
BRANCH  25  30
ATOM     30  C   UNL d   1      28.669 -14.243  -0.006  0.00  0.00     0.225 C 
BRANCH  30  31
ATOM     31  N   UNL d   1      28.595 -14.359   1.417  0.00  0.00    -0.348 N 
ATOM     32  C   UNL d   1      27.979 -13.347   2.106  0.00  0.00     0.252 C 
ATOM     33  O   UNL d   1      27.467 -12.359   1.568  0.00  0.00    -0.268 OA
ATOM     34  H   UNL d   1      28.957 -15.202   1.846  0.00  0.00     0.163 HD
BRANCH  32  35
ATOM     35  C   UNL d   1      27.966 -13.481   3.564  0.00  0.00     0.032 A 
ATOM     36  C   UNL d   1      27.791 -12.345   4.355  0.00  0.00     0.017 A 
ATOM     37  C   UNL d   1      27.918 -12.454   5.735  0.00  0.00     0.001 A 
ATOM     38  C   UNL d   1      28.155 -13.702   6.318  0.00  0.00     0.000 A 
ATOM     39  C   UNL d   1      28.309 -14.837   5.520  0.00  0.00     0.001 A 
ATOM     40  C   UNL d   1      28.225 -14.728   4.139  0.00  0.00     0.017 A 
ENDBRANCH  32  35
ENDBRANCH  30  31
ENDBRANCH  25  30
ENDBRANCH   1  24
TORSDOF 12
ENDMDL
MODEL 4
REMARK VINA RESULT:    -8.043      3.503      8.353
REMARK INTER + INTRA:         -15.327
REMARK INTER:                 -11.622
REMARK INTRA:                  -3.704
REMARK CONF_INDEPENDENT:        3.580
REMARK UNBOUND:                -3.704
REMARK  12 active torsions:
REMARK  status: ('A' for Active; 'I' for Inactive)
REMARK    1  A    between atoms: C_2  and  C_3 
REMARK    2  A    between atoms: C_3  and  N_4 
REMARK       I    between atoms: N_4  and  C_5 
REMARK    3  A    between atoms: C_17  and  N_4 
REMARK    4  A    between atoms: C_5  and  C_7 
REMARK    5  A    between atoms: C_7  and  N_8 
REMARK       I    between atoms: N_8  and  C_9 
REMARK    6  A    between atoms: C_9  and  C_11 
REMARK    7  A    between atoms: C_17  and  C_27 
REMARK    8  A    between atoms: C_17  and  C_18 
REMARK       I    between atoms: C_18  and  N_20 
REMARK    9  A    between atoms: N_20  and  C_21 
REMARK   10  A    between atoms: C_28  and  O_29 
REMARK   11  A    between atoms: C_31  and  O_32 
REMARK   12  A    between atoms: C_34  and  O_35 
ROOT
ATOM      1  C   UNL d   1      27.073 -14.979  -2.384  0.00  0.00     0.218 C 
ENDROOT
BRANCH   1   2
ATOM      2  C   UNL d   1      26.472 -13.720  -2.990  0.00  0.00     0.040 C 
ATOM      3  C   UNL d   1      25.549 -13.692  -4.041  0.00  0.00     0.080 C 
ATOM      4  C   UNL d   1      25.275 -12.511  -4.724  0.00  0.00     0.073 C 
ATOM      5  C   UNL d   1      25.816 -11.314  -4.285  0.00  0.00     0.071 C 
ATOM      6  C   UNL d   1      26.632 -11.273  -3.173  0.00  0.00     0.073 C 
ATOM      7  C   UNL d   1      26.901 -12.460  -2.506  0.00  0.00     0.080 C 
BRANCH   3   8
ATOM      8  O   UNL d   1      24.781 -14.732  -4.481  0.00  0.00    -0.360 OA
ATOM      9  H   UNL d   1      25.317 -15.512  -4.718  0.00  0.00     0.217 HD
ENDBRANCH   3   8
BRANCH   5  10
ATOM     10  O   UNL d   1      25.494 -10.136  -4.885  0.00  0.00    -0.361 OA
ATOM     11  H   UNL d   1      24.779 -10.316  -5.517  0.00  0.00     0.217 HD
ENDBRANCH   5  10
BRANCH   7  12
ATOM     12  O   UNL d   1      27.511 -12.364  -1.284  0.00  0.00    -0.360 OA
ATOM     13  H   UNL d   1      27.671 -11.427  -1.071  0.00  0.00     0.217 HD
ENDBRANCH   7  12
ENDBRANCH   1   2
BRANCH   1  14
ATOM     14  C   UNL d   1      26.095 -16.115  -2.011  0.00  0.00     0.245 C 
ATOM     15  O   UNL d   1      25.494 -16.694  -2.919  0.00  0.00    -0.271 OA
ATOM     16  N   UNL d   1      25.937 -16.480  -0.672  0.00  0.00    -0.354 N 
ATOM     17  H   UNL d   1      26.505 -15.984   0.026  0.00  0.00     0.162 HD
BRANCH  16  18
ATOM     18  C   UNL d   1      24.692 -17.057  -0.158  0.00  0.00     0.084 C 
ATOM     19  C   UNL d   1      23.503 -16.319  -0.786  0.00  0.00     0.025 C 
ATOM     20  C   UNL d   1      22.154 -16.961  -0.619  0.00  0.00     0.002 C 
ATOM     21  C   UNL d   1      22.235 -18.432  -1.007  0.00  0.00     0.000 C 
ATOM     22  C   UNL d   1      23.267 -19.158  -0.153  0.00  0.00     0.002 C 
ATOM     23  C   UNL d   1      24.664 -18.574  -0.346  0.00  0.00     0.025 C 
ENDBRANCH  16  18
ENDBRANCH   1  14
BRANCH   1  24
ATOM     24  N   UNL d   1      28.347 -15.455  -3.031  0.00  0.00    -0.333 N 
ATOM     25  C   UNL d   1      28.342 -15.690  -4.411  0.00  0.00     0.238 C 
ATOM     26  O   UNL d   1      27.329 -15.576  -5.112  0.00  0.00    -0.272 OA
BRANCH  24  27
ATOM     27  C   UNL d   1      29.537 -15.482  -2.120  0.00  0.00     0.127 C 
BRANCH  27  28
ATOM     28  C   UNL d   1      29.360 -16.071  -0.744  0.00  0.00     0.015 C 
ATOM     29  C   UNL d   1      28.933 -17.502  -0.619  0.00  0.00     0.006 C 
ENDBRANCH  27  28
ENDBRANCH  24  27
BRANCH  25  30
ATOM     30  C   UNL d   1      29.622 -16.093  -5.126  0.00  0.00     0.225 C 
BRANCH  30  31
ATOM     31  N   UNL d   1      30.017 -17.458  -4.969  0.00  0.00    -0.348 N 
ATOM     32  C   UNL d   1      30.539 -18.099  -6.061  0.00  0.00     0.252 C 
ATOM     33  O   UNL d   1      30.708 -17.561  -7.161  0.00  0.00    -0.268 OA
ATOM     34  H   UNL d   1      29.939 -17.873  -4.048  0.00  0.00     0.163 HD
BRANCH  32  35
ATOM     35  C   UNL d   1      30.887 -19.509  -5.870  0.00  0.00     0.032 A 
ATOM     36  C   UNL d   1      31.023 -20.010  -4.574  0.00  0.00     0.017 A 
ATOM     37  C   UNL d   1      31.487 -21.309  -4.396  0.00  0.00     0.001 A 
ATOM     38  C   UNL d   1      31.751 -22.114  -5.506  0.00  0.00     0.000 A 
ATOM     39  C   UNL d   1      31.593 -21.611  -6.799  0.00  0.00     0.001 A 
ATOM     40  C   UNL d   1      31.169 -20.302  -6.985  0.00  0.00     0.017 A 
ENDBRANCH  32  35
ENDBRANCH  30  31
ENDBRANCH  25  30
ENDBRANCH   1  24
TORSDOF 12
ENDMDL
MODEL 5
REMARK VINA RESULT:    -7.507      5.658      9.393
REMARK INTER + INTRA:         -15.663
REMARK INTER:                 -11.086
REMARK INTRA:                  -4.577
REMARK CONF_INDEPENDENT:        3.580
REMARK UNBOUND:                -4.577
REMARK  12 active torsions:
REMARK  status: ('A' for Active; 'I' for Inactive)
REMARK    1  A    between atoms: C_2  and  C_3 
REMARK    2  A    between atoms: C_3  and  N_4 
REMARK       I    between atoms: N_4  and  C_5 
REMARK    3  A    between atoms: C_17  and  N_4 
REMARK    4  A    between atoms: C_5  and  C_7 
REMARK    5  A    between atoms: C_7  and  N_8 
REMARK       I    between atoms: N_8  and  C_9 
REMARK    6  A    between atoms: C_9  and  C_11 
REMARK    7  A    between atoms: C_17  and  C_27 
REMARK    8  A    between atoms: C_17  and  C_18 
REMARK       I    between atoms: C_18  and  N_20 
REMARK    9  A    between atoms: N_20  and  C_21 
REMARK   10  A    between atoms: C_28  and  O_29 
REMARK   11  A    between atoms: C_31  and  O_32 
REMARK   12  A    between atoms: C_34  and  O_35 
ROOT
ATOM      1  C   UNL d   1      33.057 -20.961   1.494  0.00  0.00     0.218 C 
ENDROOT
BRANCH   1   2
ATOM      2  C   UNL d   1      32.410 -21.275   2.835  0.00  0.00     0.040 C 
ATOM      3  C   UNL d   1      31.056 -21.571   3.028  0.00  0.00     0.080 C 
ATOM      4  C   UNL d   1      30.493 -21.557   4.300  0.00  0.00     0.073 C 
ATOM      5  C   UNL d   1      31.297 -21.377   5.413  0.00  0.00     0.071 C 
ATOM      6  C   UNL d   1      32.659 -21.208   5.281  0.00  0.00     0.073 C 
ATOM      7  C   UNL d   1      33.206 -21.218   4.005  0.00  0.00     0.080 C 
BRANCH   3   8
ATOM      8  O   UNL d   1      30.161 -21.959   2.072  0.00  0.00    -0.360 OA
ATOM      9  H   UNL d   1      29.813 -21.202   1.563  0.00  0.00     0.217 HD
ENDBRANCH   3   8
BRANCH   5  10
ATOM     10  O   UNL d   1      30.780 -21.445   6.670  0.00  0.00    -0.361 OA
ATOM     11  H   UNL d   1      30.070 -22.108   6.659  0.00  0.00     0.217 HD
ENDBRANCH   5  10
BRANCH   7  12
ATOM     12  O   UNL d   1      34.571 -21.286   3.912  0.00  0.00    -0.360 OA
ATOM     13  H   UNL d   1      34.933 -21.694   4.718  0.00  0.00     0.217 HD
ENDBRANCH   7  12
ENDBRANCH   1   2
BRANCH   1  14
ATOM     14  C   UNL d   1      33.160 -22.118   0.477  0.00  0.00     0.245 C 
ATOM     15  O   UNL d   1      34.265 -22.380  -0.004  0.00  0.00    -0.271 OA
ATOM     16  N   UNL d   1      32.021 -22.857   0.152  0.00  0.00    -0.354 N 
ATOM     17  H   UNL d   1      31.143 -22.611   0.626  0.00  0.00     0.162 HD
BRANCH  16  18
ATOM     18  C   UNL d   1      31.856 -23.513  -1.149  0.00  0.00     0.084 C 
ATOM     19  C   UNL d   1      30.520 -24.264  -1.164  0.00  0.00     0.025 C 
ATOM     20  C   UNL d   1      30.036 -24.741  -2.505  0.00  0.00     0.002 C 
ATOM     21  C   UNL d   1      30.107 -23.599  -3.512  0.00  0.00     0.000 C 
ATOM     22  C   UNL d   1      31.532 -23.073  -3.629  0.00  0.00     0.002 C 
ATOM     23  C   UNL d   1      32.036 -22.520  -2.298  0.00  0.00     0.025 C 
ENDBRANCH  16  18
ENDBRANCH   1  14
BRANCH   1  24
ATOM     24  N   UNL d   1      32.659 -19.643   0.885  0.00  0.00    -0.333 N 
ATOM     25  C   UNL d   1      31.529 -19.608   0.058  0.00  0.00     0.238 C 
ATOM     26  O   UNL d   1      30.876 -20.617  -0.234  0.00  0.00    -0.272 OA
BRANCH  24  27
ATOM     27  C   UNL d   1      33.457 -18.467   1.364  0.00  0.00     0.127 C 
BRANCH  27  28
ATOM     28  C   UNL d   1      32.883 -17.634   2.481  0.00  0.00     0.015 C 
ATOM     29  C   UNL d   1      32.282 -16.300   2.155  0.00  0.00     0.006 C 
ENDBRANCH  27  28
ENDBRANCH  24  27
BRANCH  25  30
ATOM     30  C   UNL d   1      31.038 -18.289  -0.516  0.00  0.00     0.225 C 
BRANCH  30  31
ATOM     31  N   UNL d   1      29.619 -18.117  -0.551  0.00  0.00    -0.348 N 
ATOM     32  C   UNL d   1      29.128 -17.014  -1.198  0.00  0.00     0.252 C 
ATOM     33  O   UNL d   1      29.836 -16.178  -1.770  0.00  0.00    -0.268 OA
ATOM     34  H   UNL d   1      29.042 -18.841  -0.139  0.00  0.00     0.163 HD
BRANCH  32  35
ATOM     35  C   UNL d   1      27.673 -16.852  -1.170  0.00  0.00     0.032 A 
ATOM     36  C   UNL d   1      27.072 -15.916  -2.013  0.00  0.00     0.017 A 
ATOM     37  C   UNL d   1      25.709 -15.666  -1.886  0.00  0.00     0.001 A 
ATOM     38  C   UNL d   1      24.950 -16.392  -0.966  0.00  0.00     0.000 A 
ATOM     39  C   UNL d   1      25.555 -17.340  -0.139  0.00  0.00     0.001 A 
ATOM     40  C   UNL d   1      26.922 -17.566  -0.232  0.00  0.00     0.017 A 
ENDBRANCH  32  35
ENDBRANCH  30  31
ENDBRANCH  25  30
ENDBRANCH   1  24
TORSDOF 12
ENDMDL
MODEL 6
REMARK VINA RESULT:    -7.475      3.119      7.431
REMARK INTER + INTRA:         -15.600
REMARK INTER:                 -11.055
REMARK INTRA:                  -4.546
REMARK CONF_INDEPENDENT:        3.580
REMARK UNBOUND:                -4.546
REMARK  12 active torsions:
REMARK  status: ('A' for Active; 'I' for Inactive)
REMARK    1  A    between atoms: C_2  and  C_3 
REMARK    2  A    between atoms: C_3  and  N_4 
REMARK       I    between atoms: N_4  and  C_5 
REMARK    3  A    between atoms: C_17  and  N_4 
REMARK    4  A    between atoms: C_5  and  C_7 
REMARK    5  A    between atoms: C_7  and  N_8 
REMARK       I    between atoms: N_8  and  C_9 
REMARK    6  A    between atoms: C_9  and  C_11 
REMARK    7  A    between atoms: C_17  and  C_27 
REMARK    8  A    between atoms: C_17  and  C_18 
REMARK       I    between atoms: C_18  and  N_20 
REMARK    9  A    between atoms: N_20  and  C_21 
REMARK   10  A    between atoms: C_28  and  O_29 
REMARK   11  A    between atoms: C_31  and  O_32 
REMARK   12  A    between atoms: C_34  and  O_35 
ROOT
ATOM      1  C   UNL d   1      26.572 -13.157  -3.279  0.00  0.00     0.218 C 
ENDROOT
BRANCH   1   2
ATOM      2  C   UNL d   1      27.003 -13.196  -4.737  0.00  0.00     0.040 C 
ATOM      3  C   UNL d   1      27.594 -14.292  -5.375  0.00  0.00     0.080 C 
ATOM      4  C   UNL d   1      28.218 -14.151  -6.611  0.00  0.00     0.073 C 
ATOM      5  C   UNL d   1      28.149 -12.947  -7.291  0.00  0.00     0.071 C 
ATOM      6  C   UNL d   1      27.467 -11.873  -6.758  0.00  0.00     0.073 C 
ATOM      7  C   UNL d   1      26.854 -12.026  -5.522  0.00  0.00     0.080 C 
BRANCH   3   8
ATOM      8  O   UNL d   1      27.588 -15.587  -4.944  0.00  0.00    -0.360 OA
ATOM      9  H   UNL d   1      28.371 -15.799  -4.401  0.00  0.00     0.217 HD
ENDBRANCH   3   8
BRANCH   5  10
ATOM     10  O   UNL d   1      28.678 -12.813  -8.538  0.00  0.00    -0.361 OA
ATOM     11  H   UNL d   1      28.699 -13.697  -8.942  0.00  0.00     0.217 HD
ENDBRANCH   5  10
BRANCH   7  12
ATOM     12  O   UNL d   1      25.994 -11.037  -5.126  0.00  0.00    -0.360 OA
ATOM     13  H   UNL d   1      25.077 -11.362  -5.177  0.00  0.00     0.217 HD
ENDBRANCH   7  12
ENDBRANCH   1   2
BRANCH   1  14
ATOM     14  C   UNL d   1      25.716 -14.336  -2.768  0.00  0.00     0.245 C 
ATOM     15  O   UNL d   1      24.560 -14.445  -3.184  0.00  0.00    -0.271 OA
ATOM     16  N   UNL d   1      26.271 -15.262  -1.883  0.00  0.00    -0.354 N 
ATOM     17  H   UNL d   1      27.255 -15.133  -1.616  0.00  0.00     0.162 HD
BRANCH  16  18
ATOM     18  C   UNL d   1      25.460 -16.004  -0.914  0.00  0.00     0.084 C 
ATOM     19  C   UNL d   1      24.115 -16.362  -1.558  0.00  0.00     0.025 C 
ATOM     20  C   UNL d   1      23.276 -17.378  -0.834  0.00  0.00     0.002 C 
ATOM     21  C   UNL d   1      24.129 -18.591  -0.484  0.00  0.00     0.000 C 
ATOM     22  C   UNL d   1      25.316 -18.184   0.381  0.00  0.00     0.002 C 
ATOM     23  C   UNL d   1      26.227 -17.199  -0.348  0.00  0.00     0.025 C 
ENDBRANCH  16  18
ENDBRANCH   1  14
BRANCH   1  24
ATOM     24  N   UNL d   1      27.634 -12.705  -2.310  0.00  0.00    -0.333 N 
ATOM     25  C   UNL d   1      28.799 -13.474  -2.198  0.00  0.00     0.238 C 
ATOM     26  O   UNL d   1      28.973 -14.531  -2.817  0.00  0.00    -0.272 OA
BRANCH  24  27
ATOM     27  C   UNL d   1      27.371 -11.374  -1.672  0.00  0.00     0.127 C 
BRANCH  27  28
ATOM     28  C   UNL d   1      27.521 -10.141  -2.526  0.00  0.00     0.015 C 
ATOM     29  C   UNL d   1      26.323  -9.269  -2.755  0.00  0.00     0.006 C 
ENDBRANCH  27  28
ENDBRANCH  24  27
BRANCH  25  30
ATOM     30  C   UNL d   1      29.935 -13.019  -1.296  0.00  0.00     0.225 C 
BRANCH  30  31
ATOM     31  N   UNL d   1      29.642 -12.989   0.103  0.00  0.00    -0.348 N 
ATOM     32  C   UNL d   1      28.992 -14.068   0.641  0.00  0.00     0.252 C 
ATOM     33  O   UNL d   1      28.668 -15.070  -0.007  0.00  0.00    -0.268 OA
ATOM     34  H   UNL d   1      29.969 -12.194   0.641  0.00  0.00     0.163 HD
BRANCH  32  35
ATOM     35  C   UNL d   1      28.669 -13.976   2.066  0.00  0.00     0.032 A 
ATOM     36  C   UNL d   1      29.654 -14.269   3.011  0.00  0.00     0.017 A 
ATOM     37  C   UNL d   1      29.308 -14.315   4.357  0.00  0.00     0.001 A 
ATOM     38  C   UNL d   1      28.003 -14.009   4.754  0.00  0.00     0.000 A 
ATOM     39  C   UNL d   1      27.030 -13.697   3.803  0.00  0.00     0.001 A 
ATOM     40  C   UNL d   1      27.358 -13.689   2.454  0.00  0.00     0.017 A 
ENDBRANCH  32  35
ENDBRANCH  30  31
ENDBRANCH  25  30
ENDBRANCH   1  24
TORSDOF 12
ENDMDL
MODEL 7
REMARK VINA RESULT:    -7.273      3.290      8.939
REMARK INTER + INTRA:         -15.269
REMARK INTER:                 -10.852
REMARK INTRA:                  -4.417
REMARK CONF_INDEPENDENT:        3.580
REMARK UNBOUND:                -4.417
REMARK  12 active torsions:
REMARK  status: ('A' for Active; 'I' for Inactive)
REMARK    1  A    between atoms: C_2  and  C_3 
REMARK    2  A    between atoms: C_3  and  N_4 
REMARK       I    between atoms: N_4  and  C_5 
REMARK    3  A    between atoms: C_17  and  N_4 
REMARK    4  A    between atoms: C_5  and  C_7 
REMARK    5  A    between atoms: C_7  and  N_8 
REMARK       I    between atoms: N_8  and  C_9 
REMARK    6  A    between atoms: C_9  and  C_11 
REMARK    7  A    between atoms: C_17  and  C_27 
REMARK    8  A    between atoms: C_17  and  C_18 
REMARK       I    between atoms: C_18  and  N_20 
REMARK    9  A    between atoms: N_20  and  C_21 
REMARK   10  A    between atoms: C_28  and  O_29 
REMARK   11  A    between atoms: C_31  and  O_32 
REMARK   12  A    between atoms: C_34  and  O_35 
ROOT
ATOM      1  C   UNL d   1      26.744 -15.510  -1.551  0.00  0.00     0.218 C 
ENDROOT
BRANCH   1   2
ATOM      2  C   UNL d   1      25.546 -16.372  -1.185  0.00  0.00     0.040 C 
ATOM      3  C   UNL d   1      24.211 -16.062  -1.469  0.00  0.00     0.080 C 
ATOM      4  C   UNL d   1      23.169 -16.745  -0.852  0.00  0.00     0.073 C 
ATOM      5  C   UNL d   1      23.437 -17.837  -0.043  0.00  0.00     0.071 C 
ATOM      6  C   UNL d   1      24.733 -18.260   0.166  0.00  0.00     0.073 C 
ATOM      7  C   UNL d   1      25.763 -17.564  -0.452  0.00  0.00     0.080 C 
BRANCH   3   8
ATOM      8  O   UNL d   1      23.762 -15.151  -2.382  0.00  0.00    -0.360 OA
ATOM      9  H   UNL d   1      24.176 -15.270  -3.258  0.00  0.00     0.217 HD
ENDBRANCH   3   8
BRANCH   5  10
ATOM     10  O   UNL d   1      22.429 -18.572   0.501  0.00  0.00    -0.361 OA
ATOM     11  H   UNL d   1      22.754 -19.482   0.604  0.00  0.00     0.217 HD
ENDBRANCH   5  10
BRANCH   7  12
ATOM     12  O   UNL d   1      27.007 -18.137  -0.424  0.00  0.00    -0.360 OA
ATOM     13  H   UNL d   1      27.684 -17.443  -0.334  0.00  0.00     0.217 HD
ENDBRANCH   7  12
ENDBRANCH   1   2
BRANCH   1  14
ATOM     14  C   UNL d   1      27.822 -16.151  -2.452  0.00  0.00     0.245 C 
ATOM     15  O   UNL d   1      28.507 -17.066  -1.987  0.00  0.00    -0.271 OA
ATOM     16  N   UNL d   1      27.975 -15.711  -3.768  0.00  0.00    -0.354 N 
ATOM     17  H   UNL d   1      27.338 -14.977  -4.101  0.00  0.00     0.162 HD
BRANCH  16  18
ATOM     18  C   UNL d   1      29.257 -15.783  -4.475  0.00  0.00     0.084 C 
ATOM     19  C   UNL d   1      29.771 -17.227  -4.429  0.00  0.00     0.025 C 
ATOM     20  C   UNL d   1      30.909 -17.561  -5.353  0.00  0.00     0.002 C 
ATOM     21  C   UNL d   1      30.590 -17.070  -6.759  0.00  0.00     0.000 C 
ATOM     22  C   UNL d   1      30.341 -15.566  -6.761  0.00  0.00     0.002 C 
ATOM     23  C   UNL d   1      29.148 -15.196  -5.882  0.00  0.00     0.025 C 
ENDBRANCH  16  18
ENDBRANCH   1  14
BRANCH   1  24
ATOM     24  N   UNL d   1      26.421 -14.081  -1.904  0.00  0.00    -0.333 N 
ATOM     25  C   UNL d   1      25.819 -13.825  -3.143  0.00  0.00     0.238 C 
ATOM     26  O   UNL d   1      25.591 -14.708  -3.978  0.00  0.00    -0.272 OA
BRANCH  24  27
ATOM     27  C   UNL d   1      26.655 -13.097  -0.799  0.00  0.00     0.127 C 
BRANCH  27  28
ATOM     28  C   UNL d   1      27.109 -13.629   0.536  0.00  0.00     0.015 C 
ATOM     29  C   UNL d   1      26.630 -12.955   1.786  0.00  0.00     0.006 C 
ENDBRANCH  27  28
ENDBRANCH  24  27
BRANCH  25  30
ATOM     30  C   UNL d   1      25.398 -12.412  -3.514  0.00  0.00     0.225 C 
BRANCH  30  31
ATOM     31  N   UNL d   1      25.700 -12.005  -4.851  0.00  0.00    -0.348 N 
ATOM     32  C   UNL d   1      26.944 -12.304  -5.341  0.00  0.00     0.252 C 
ATOM     33  O   UNL d   1      27.806 -12.921  -4.705  0.00  0.00    -0.268 OA
ATOM     34  H   UNL d   1      24.967 -11.559  -5.389  0.00  0.00     0.163 HD
BRANCH  32  35
ATOM     35  C   UNL d   1      27.229 -11.827  -6.696  0.00  0.00     0.032 A 
ATOM     36  C   UNL d   1      26.479 -10.775  -7.223  0.00  0.00     0.017 A 
ATOM     37  C   UNL d   1      26.656 -10.417  -8.556  0.00  0.00     0.001 A 
ATOM     38  C   UNL d   1      27.620 -11.068  -9.330  0.00  0.00     0.000 A 
ATOM     39  C   UNL d   1      28.380 -12.107  -8.789  0.00  0.00     0.001 A 
ATOM     40  C   UNL d   1      28.179 -12.497  -7.472  0.00  0.00     0.017 A 
ENDBRANCH  32  35
ENDBRANCH  30  31
ENDBRANCH  25  30
ENDBRANCH   1  24
TORSDOF 12
ENDMDL
MODEL 8
REMARK VINA RESULT:    -7.174      3.177      7.924
REMARK INTER + INTRA:         -15.626
REMARK INTER:                 -10.754
REMARK INTRA:                  -4.872
REMARK CONF_INDEPENDENT:        3.580
REMARK UNBOUND:                -4.872
REMARK  12 active torsions:
REMARK  status: ('A' for Active; 'I' for Inactive)
REMARK    1  A    between atoms: C_2  and  C_3 
REMARK    2  A    between atoms: C_3  and  N_4 
REMARK       I    between atoms: N_4  and  C_5 
REMARK    3  A    between atoms: C_17  and  N_4 
REMARK    4  A    between atoms: C_5  and  C_7 
REMARK    5  A    between atoms: C_7  and  N_8 
REMARK       I    between atoms: N_8  and  C_9 
REMARK    6  A    between atoms: C_9  and  C_11 
REMARK    7  A    between atoms: C_17  and  C_27 
REMARK    8  A    between atoms: C_17  and  C_18 
REMARK       I    between atoms: C_18  and  N_20 
REMARK    9  A    between atoms: N_20  and  C_21 
REMARK   10  A    between atoms: C_28  and  O_29 
REMARK   11  A    between atoms: C_31  and  O_32 
REMARK   12  A    between atoms: C_34  and  O_35 
ROOT
ATOM      1  C   UNL d   1      26.688 -14.397  -3.708  0.00  0.00     0.218 C 
ENDROOT
BRANCH   1   2
ATOM      2  C   UNL d   1      26.678 -12.901  -3.432  0.00  0.00     0.040 C 
ATOM      3  C   UNL d   1      27.421 -12.259  -2.435  0.00  0.00     0.080 C 
ATOM      4  C   UNL d   1      27.138 -10.950  -2.060  0.00  0.00     0.073 C 
ATOM      5  C   UNL d   1      26.198 -10.214  -2.763  0.00  0.00     0.071 C 
ATOM      6  C   UNL d   1      25.530 -10.764  -3.837  0.00  0.00     0.073 C 
ATOM      7  C   UNL d   1      25.819 -12.074  -4.195  0.00  0.00     0.080 C 
BRANCH   3   8
ATOM      8  O   UNL d   1      28.504 -12.763  -1.772  0.00  0.00    -0.360 OA
ATOM      9  H   UNL d   1      28.251 -13.422  -1.099  0.00  0.00     0.217 HD
ENDBRANCH   3   8
BRANCH   5  10
ATOM     10  O   UNL d   1      25.968  -8.906  -2.469  0.00  0.00    -0.361 OA
ATOM     11  H   UNL d   1      25.007  -8.765  -2.500  0.00  0.00     0.217 HD
ENDBRANCH   5  10
BRANCH   7  12
ATOM     12  O   UNL d   1      25.325 -12.516  -5.394  0.00  0.00    -0.360 OA
ATOM     13  H   UNL d   1      24.357 -12.604  -5.336  0.00  0.00     0.217 HD
ENDBRANCH   7  12
ENDBRANCH   1   2
BRANCH   1  14
ATOM     14  C   UNL d   1      27.712 -14.913  -4.741  0.00  0.00     0.245 C 
ATOM     15  O   UNL d   1      27.299 -15.571  -5.699  0.00  0.00    -0.271 OA
ATOM     16  N   UNL d   1      29.065 -14.601  -4.591  0.00  0.00    -0.354 N 
ATOM     17  H   UNL d   1      29.330 -14.010  -3.793  0.00  0.00     0.162 HD
BRANCH  16  18
ATOM     18  C   UNL d   1      30.132 -15.469  -5.098  0.00  0.00     0.084 C 
ATOM     19  C   UNL d   1      29.945 -16.878  -4.521  0.00  0.00     0.025 C 
ATOM     20  C   UNL d   1      30.753 -17.973  -5.159  0.00  0.00     0.002 C 
ATOM     21  C   UNL d   1      30.602 -17.907  -6.674  0.00  0.00     0.000 C 
ATOM     22  C   UNL d   1      31.054 -16.551  -7.201  0.00  0.00     0.002 C 
ATOM     23  C   UNL d   1      30.212 -15.416  -6.624  0.00  0.00     0.025 C 
ENDBRANCH  16  18
ENDBRANCH   1  14
BRANCH   1  24
ATOM     24  N   UNL d   1      26.551 -15.273  -2.490  0.00  0.00    -0.333 N 
ATOM     25  C   UNL d   1      27.710 -15.596  -1.772  0.00  0.00     0.238 C 
ATOM     26  O   UNL d   1      28.842 -15.239  -2.121  0.00  0.00    -0.272 OA
BRANCH  24  27
ATOM     27  C   UNL d   1      25.138 -15.582  -2.099  0.00  0.00     0.127 C 
BRANCH  27  28
ATOM     28  C   UNL d   1      24.787 -17.017  -1.798  0.00  0.00     0.015 C 
ATOM     29  C   UNL d   1      24.052 -17.332  -0.529  0.00  0.00     0.006 C 
ENDBRANCH  27  28
ENDBRANCH  24  27
BRANCH  25  30
ATOM     30  C   UNL d   1      27.617 -16.409  -0.491  0.00  0.00     0.225 C 
BRANCH  30  31
ATOM     31  N   UNL d   1      27.902 -15.698   0.717  0.00  0.00    -0.348 N 
ATOM     32  C   UNL d   1      27.302 -14.479   0.894  0.00  0.00     0.252 C 
ATOM     33  O   UNL d   1      26.515 -13.974   0.086  0.00  0.00    -0.268 OA
ATOM     34  H   UNL d   1      28.495 -16.148   1.405  0.00  0.00     0.163 HD
BRANCH  32  35
ATOM     35  C   UNL d   1      27.658 -13.764   2.122  0.00  0.00     0.032 A 
ATOM     36  C   UNL d   1      28.157 -14.481   3.211  0.00  0.00     0.017 A 
ATOM     37  C   UNL d   1      28.364 -13.821   4.418  0.00  0.00     0.001 A 
ATOM     38  C   UNL d   1      28.130 -12.447   4.511  0.00  0.00     0.000 A 
ATOM     39  C   UNL d   1      27.650 -11.734   3.411  0.00  0.00     0.001 A 
ATOM     40  C   UNL d   1      27.403 -12.394   2.215  0.00  0.00     0.017 A 
ENDBRANCH  32  35
ENDBRANCH  30  31
ENDBRANCH  25  30
ENDBRANCH   1  24
TORSDOF 12
ENDMDL
MODEL 9
REMARK VINA RESULT:    -7.043      3.006      7.047
REMARK INTER + INTRA:         -15.446
REMARK INTER:                 -10.622
REMARK INTRA:                  -4.823
REMARK CONF_INDEPENDENT:        3.580
REMARK UNBOUND:                -4.823
REMARK  12 active torsions:
REMARK  status: ('A' for Active; 'I' for Inactive)
REMARK    1  A    between atoms: C_2  and  C_3 
REMARK    2  A    between atoms: C_3  and  N_4 
REMARK       I    between atoms: N_4  and  C_5 
REMARK    3  A    between atoms: C_17  and  N_4 
REMARK    4  A    between atoms: C_5  and  C_7 
REMARK    5  A    between atoms: C_7  and  N_8 
REMARK       I    between atoms: N_8  and  C_9 
REMARK    6  A    between atoms: C_9  and  C_11 
REMARK    7  A    between atoms: C_17  and  C_27 
REMARK    8  A    between atoms: C_17  and  C_18 
REMARK       I    between atoms: C_18  and  N_20 
REMARK    9  A    between atoms: N_20  and  C_21 
REMARK   10  A    between atoms: C_28  and  O_29 
REMARK   11  A    between atoms: C_31  and  O_32 
REMARK   12  A    between atoms: C_34  and  O_35 
ROOT
ATOM      1  C   UNL d   1      26.808 -14.021  -3.234  0.00  0.00     0.218 C 
ENDROOT
BRANCH   1   2
ATOM      2  C   UNL d   1      27.883 -14.277  -4.280  0.00  0.00     0.040 C 
ATOM      3  C   UNL d   1      29.240 -13.972  -4.135  0.00  0.00     0.080 C 
ATOM      4  C   UNL d   1      30.096 -13.965  -5.231  0.00  0.00     0.073 C 
ATOM      5  C   UNL d   1      29.642 -14.392  -6.469  0.00  0.00     0.071 C 
ATOM      6  C   UNL d   1      28.342 -14.825  -6.634  0.00  0.00     0.073 C 
ATOM      7  C   UNL d   1      27.499 -14.819  -5.531  0.00  0.00     0.080 C 
BRANCH   3   8
ATOM      8  O   UNL d   1      29.898 -13.717  -2.965  0.00  0.00    -0.360 OA
ATOM      9  H   UNL d   1      29.805 -14.446  -2.323  0.00  0.00     0.217 HD
ENDBRANCH   3   8
BRANCH   5  10
ATOM     10  O   UNL d   1      30.483 -14.475  -7.535  0.00  0.00    -0.361 OA
ATOM     11  H   UNL d   1      29.940 -14.431  -8.339  0.00  0.00     0.217 HD
ENDBRANCH   5  10
BRANCH   7  12
ATOM     12  O   UNL d   1      26.299 -15.468  -5.661  0.00  0.00    -0.360 OA
ATOM     13  H   UNL d   1      26.214 -16.140  -4.961  0.00  0.00     0.217 HD
ENDBRANCH   7  12
ENDBRANCH   1   2
BRANCH   1  14
ATOM     14  C   UNL d   1      26.222 -15.255  -2.514  0.00  0.00     0.245 C 
ATOM     15  O   UNL d   1      25.924 -16.242  -3.190  0.00  0.00    -0.271 OA
ATOM     16  N   UNL d   1      26.072 -15.239  -1.126  0.00  0.00    -0.354 N 
ATOM     17  H   UNL d   1      26.384 -14.399  -0.623  0.00  0.00     0.162 HD
BRANCH  16  18
ATOM     18  C   UNL d   1      25.040 -16.021  -0.439  0.00  0.00     0.084 C 
ATOM     19  C   UNL d   1      23.742 -15.959  -1.254  0.00  0.00     0.025 C 
ATOM     20  C   UNL d   1      22.667 -16.939  -0.875  0.00  0.00     0.002 C 
ATOM     21  C   UNL d   1      23.261 -18.339  -0.777  0.00  0.00     0.000 C 
ATOM     22  C   UNL d   1      24.386 -18.376   0.251  0.00  0.00     0.002 C 
ATOM     23  C   UNL d   1      25.527 -17.438  -0.135  0.00  0.00     0.025 C 
ENDBRANCH  16  18
ENDBRANCH   1  14
BRANCH   1  24
ATOM     24  N   UNL d   1      27.066 -12.847  -2.326  0.00  0.00    -0.333 N 
ATOM     25  C   UNL d   1      27.902 -13.036  -1.218  0.00  0.00     0.238 C 
ATOM     26  O   UNL d   1      28.393 -14.132  -0.923  0.00  0.00    -0.272 OA
BRANCH  24  27
ATOM     27  C   UNL d   1      26.499 -11.547  -2.812  0.00  0.00     0.127 C 
BRANCH  27  28
ATOM     28  C   UNL d   1      25.849 -11.525  -4.172  0.00  0.00     0.015 C 
ATOM     29  C   UNL d   1      25.669 -10.209  -4.867  0.00  0.00     0.006 C 
ENDBRANCH  27  28
ENDBRANCH  24  27
BRANCH  25  30
ATOM     30  C   UNL d   1      28.259 -11.864  -0.318  0.00  0.00     0.225 C 
BRANCH  30  31
ATOM     31  N   UNL d   1      28.513 -12.189   1.051  0.00  0.00    -0.348 N 
ATOM     32  C   UNL d   1      27.552 -12.893   1.727  0.00  0.00     0.252 C 
ATOM     33  O   UNL d   1      26.496 -13.282   1.217  0.00  0.00    -0.268 OA
ATOM     34  H   UNL d   1      29.409 -11.925   1.444  0.00  0.00     0.163 HD
BRANCH  32  35
ATOM     35  C   UNL d   1      27.832 -13.163   3.139  0.00  0.00     0.032 A 
ATOM     36  C   UNL d   1      28.040 -14.479   3.556  0.00  0.00     0.017 A 
ATOM     37  C   UNL d   1      28.168 -14.746   4.915  0.00  0.00     0.001 A 
ATOM     38  C   UNL d   1      28.149 -13.697   5.837  0.00  0.00     0.000 A 
ATOM     39  C   UNL d   1      27.960 -12.382   5.410  0.00  0.00     0.001 A 
ATOM     40  C   UNL d   1      27.790 -12.112   4.058  0.00  0.00     0.017 A 
ENDBRANCH  32  35
ENDBRANCH  30  31
ENDBRANCH  25  30
ENDBRANCH   1  24
TORSDOF 12
ENDMDL
