MODEL 1
REMARK VINA RESULT:   -30.337      0.000      0.000
REMARK INTER + INTRA:         -35.154
REMARK INTER:                 -33.618
REMARK INTRA:                  -1.537
REMARK CONF_INDEPENDENT:        3.281
REMARK UNBOUND:                -1.537
REMARK  11 active torsions:
REMARK  status: ('A' for Active; 'I' for Inactive)
REMARK    1  A    between atoms: C_2  and  C_3 
REMARK    2  A    between atoms: C_3  and  N_4 
REMARK    3  A    between atoms: C_5  and  S_6 
REMARK    4  A    between atoms: S_6  and  C_7 
REMARK    5  A    between atoms: C_7  and  C_8 
REMARK       I    between atoms: C_8  and  N_10 
REMARK    6  A    between atoms: N_10  and  C_11 
REMARK    7  A    between atoms: C_12  and  C_11 
REMARK    8  A    between atoms: C_12  and  C_22 
REMARK    9  A    between atoms: C_12  and  C_13 
REMARK   10  A    between atoms: C_25  and  O_26 
REMARK   11  A    between atoms: C_32  and  O_33 
ROOT
ATOM      1  C   UNL d   1      26.456 -15.624  -0.459  0.00  0.00     0.068 C 
ENDROOT
BRANCH   1   2
ATOM      2  C   UNL d   1      26.966 -14.568   0.540  0.00  0.00    -0.048 A 
ATOM      3  C   UNL d   1      27.686 -14.915   1.700  0.00  0.00     0.011 A 
ATOM      4  C   UNL d   1      28.316 -13.970   2.495  0.00  0.00     0.037 A 
ATOM      5  C   UNL d   1      28.126 -12.628   2.235  0.00  0.00     0.068 A 
ATOM      6  C   UNL d   1      27.400 -12.239   1.108  0.00  0.00     0.037 A 
ATOM      7  C   UNL d   1      26.797 -13.197   0.286  0.00  0.00     0.011 A 
BRANCH   5   8
ATOM      8  O   UNL d   1      28.655 -11.808   3.185  0.00  0.00    -0.356 OA
ATOM      9  C   UNL d   1      28.901 -12.424   4.438  0.00  0.00     0.210 C 
ENDBRANCH   5   8
ENDBRANCH   1   2
BRANCH   1  10
ATOM     10  C   UNL d   1      27.425 -15.892  -1.602  0.00  0.00    -0.040 C 
ATOM     11  C   UNL d   1      27.168 -15.556  -2.871  0.00  0.00    -0.005 A 
ATOM     12  C   UNL d   1      25.980 -15.116  -3.518  0.00  0.00     0.014 A 
ATOM     13  C   UNL d   1      28.478 -15.470  -3.529  0.00  0.00     0.038 A 
ATOM     14  C   UNL d   1      26.061 -14.600  -4.743  0.00  0.00     0.001 A 
ATOM     15  C   UNL d   1      27.336 -14.494  -5.424  0.00  0.00     0.002 A 
ATOM     16  C   UNL d   1      28.510 -14.898  -4.889  0.00  0.00     0.030 A 
ATOM     17  N   UNL d   1      29.432 -15.850  -2.752  0.00  0.00    -0.385 N 
ATOM     18  C   UNL d   1      28.884 -16.225  -1.422  0.00  0.00     0.155 C 
ATOM     19  H   UNL d   1      30.412 -15.838  -3.020  0.00  0.00     0.160 HD
ENDBRANCH   1  10
BRANCH   1  20
ATOM     20  C   UNL d   1      26.156 -17.065   0.149  0.00  0.00     0.136 C 
BRANCH  20  21
ATOM     21  N   UNL d   1      24.795 -17.586  -0.077  0.00  0.00    -0.359 N 
ATOM     22  C   UNL d   1      24.135 -17.596  -1.284  0.00  0.00     0.227 C 
ATOM     23  O   UNL d   1      24.771 -17.416  -2.327  0.00  0.00    -0.273 OA
ATOM     24  H   UNL d   1      24.344 -18.063   0.690  0.00  0.00     0.162 HD
BRANCH  22  25
ATOM     25  C   UNL d   1      22.580 -17.789  -1.213  0.00  0.00     0.185 C 
BRANCH  25  26
ATOM     26  S   UNL d   1      22.185 -18.920   0.176  0.00  0.00    -0.081 SA
BRANCH  26  27
ATOM     27  C   UNL d   1      20.540 -19.393   0.018  0.00  0.00     0.187 C 
ATOM     28  N   UNL d   1      19.848 -19.954   1.144  0.00  0.00    -0.315 N 
ATOM     29  C   UNL d   1      18.575 -20.434   0.662  0.00  0.00     0.347 C 
ATOM     30  N   UNL d   1      18.607 -19.892  -0.666  0.00  0.00    -0.265 N 
ATOM     31  N   UNL d   1      19.793 -19.324  -1.042  0.00  0.00    -0.150 NA
ATOM     32  H   UNL d   1      17.731 -19.697  -1.144  0.00  0.00     0.187 HD
BRANCH  28  33
ATOM     33  C   UNL d   1      20.194 -19.776   2.556  0.00  0.00     0.129 C 
BRANCH  33  34
ATOM     34  C   UNL d   1      19.531 -20.810   3.472  0.00  0.00     0.015 C 
ATOM     35  C   UNL d   1      19.656 -20.450   4.946  0.00  0.00     0.006 C 
ENDBRANCH  33  34
ENDBRANCH  28  33
BRANCH  29  36
ATOM     36  O   UNL d   1      18.668 -21.827   0.605  0.00  0.00    -0.358 OA
ATOM     37  H   UNL d   1      17.777 -22.114   0.348  0.00  0.00     0.214 HD
ENDBRANCH  29  36
ENDBRANCH  26  27
ENDBRANCH  25  26
ENDBRANCH  22  25
ENDBRANCH  20  21
ENDBRANCH   1  20
TORSDOF 11
ENDMDL
MODEL 2
REMARK VINA RESULT:   -30.314      1.975      4.493
REMARK INTER + INTRA:         -34.852
REMARK INTER:                 -33.595
REMARK INTRA:                  -1.256
REMARK CONF_INDEPENDENT:        3.281
REMARK UNBOUND:                -1.256
REMARK  11 active torsions:
REMARK  status: ('A' for Active; 'I' for Inactive)
REMARK    1  A    between atoms: C_2  and  C_3 
REMARK    2  A    between atoms: C_3  and  N_4 
REMARK    3  A    between atoms: C_5  and  S_6 
REMARK    4  A    between atoms: S_6  and  C_7 
REMARK    5  A    between atoms: C_7  and  C_8 
REMARK       I    between atoms: C_8  and  N_10 
REMARK    6  A    between atoms: N_10  and  C_11 
REMARK    7  A    between atoms: C_12  and  C_11 
REMARK    8  A    between atoms: C_12  and  C_22 
REMARK    9  A    between atoms: C_12  and  C_13 
REMARK   10  A    between atoms: C_25  and  O_26 
REMARK   11  A    between atoms: C_32  and  O_33 
ROOT
ATOM      1  C   UNL d   1      27.046 -15.556  -1.443  0.00  0.00     0.068 C 
ENDROOT
BRANCH   1   2
ATOM      2  C   UNL d   1      26.803 -14.558  -2.590  0.00  0.00    -0.048 A 
ATOM      3  C   UNL d   1      25.881 -14.811  -3.625  0.00  0.00     0.011 A 
ATOM      4  C   UNL d   1      25.513 -13.841  -4.546  0.00  0.00     0.037 A 
ATOM      5  C   UNL d   1      26.165 -12.625  -4.549  0.00  0.00     0.068 A 
ATOM      6  C   UNL d   1      27.102 -12.341  -3.554  0.00  0.00     0.037 A 
ATOM      7  C   UNL d   1      27.444 -13.309  -2.604  0.00  0.00     0.011 A 
BRANCH   5   8
ATOM      8  O   UNL d   1      25.832 -11.830  -5.605  0.00  0.00    -0.356 OA
ATOM      9  C   UNL d   1      26.923 -11.419  -6.412  0.00  0.00     0.210 C 
ENDBRANCH   5   8
ENDBRANCH   1   2
BRANCH   1  10
ATOM     10  C   UNL d   1      28.044 -15.056  -0.408  0.00  0.00    -0.040 C 
ATOM     11  C   UNL d   1      27.740 -14.140   0.518  0.00  0.00    -0.005 A 
ATOM     12  C   UNL d   1      26.618 -13.279   0.673  0.00  0.00     0.014 A 
ATOM     13  C   UNL d   1      28.717 -14.330   1.597  0.00  0.00     0.038 A 
ATOM     14  C   UNL d   1      26.443 -12.642   1.829  0.00  0.00     0.001 A 
ATOM     15  C   UNL d   1      27.383 -12.807   2.920  0.00  0.00     0.002 A 
ATOM     16  C   UNL d   1      28.480 -13.594   2.854  0.00  0.00     0.030 A 
ATOM     17  N   UNL d   1      29.614 -15.201   1.287  0.00  0.00    -0.385 N 
ATOM     18  C   UNL d   1      29.337 -15.752  -0.067  0.00  0.00     0.155 C 
ATOM     19  H   UNL d   1      30.360 -15.485   1.914  0.00  0.00     0.160 HD
ENDBRANCH   1  10
BRANCH   1  20
ATOM     20  C   UNL d   1      25.762 -15.956  -0.589  0.00  0.00     0.136 C 
BRANCH  20  21
ATOM     21  N   UNL d   1      24.926 -17.032  -1.155  0.00  0.00    -0.359 N 
ATOM     22  C   UNL d   1      23.551 -17.043  -1.183  0.00  0.00     0.227 C 
ATOM     23  O   UNL d   1      22.930 -15.996  -0.979  0.00  0.00    -0.273 OA
ATOM     24  H   UNL d   1      25.396 -17.777  -1.649  0.00  0.00     0.162 HD
BRANCH  22  25
ATOM     25  C   UNL d   1      22.882 -18.440  -1.428  0.00  0.00     0.185 C 
BRANCH  25  26
ATOM     26  S   UNL d   1      22.249 -19.084   0.169  0.00  0.00    -0.081 SA
BRANCH  26  27
ATOM     27  C   UNL d   1      20.584 -19.459  -0.037  0.00  0.00     0.187 C 
ATOM     28  N   UNL d   1      19.835 -20.007   1.059  0.00  0.00    -0.315 N 
ATOM     29  C   UNL d   1      18.549 -20.402   0.536  0.00  0.00     0.347 C 
ATOM     30  N   UNL d   1      18.642 -19.829  -0.775  0.00  0.00    -0.265 N 
ATOM     31  N   UNL d   1      19.867 -19.320  -1.111  0.00  0.00    -0.150 NA
ATOM     32  H   UNL d   1      17.789 -19.572  -1.267  0.00  0.00     0.187 HD
BRANCH  28  33
ATOM     33  C   UNL d   1      20.159 -19.886   2.482  0.00  0.00     0.129 C 
BRANCH  33  34
ATOM     34  C   UNL d   1      19.331 -20.824   3.368  0.00  0.00     0.015 C 
ATOM     35  C   UNL d   1      19.530 -20.549   4.852  0.00  0.00     0.006 C 
ENDBRANCH  33  34
ENDBRANCH  28  33
BRANCH  29  36
ATOM     36  O   UNL d   1      18.565 -21.795   0.444  0.00  0.00    -0.358 OA
ATOM     37  H   UNL d   1      17.627 -22.039   0.370  0.00  0.00     0.214 HD
ENDBRANCH  29  36
ENDBRANCH  26  27
ENDBRANCH  25  26
ENDBRANCH  22  25
ENDBRANCH  20  21
ENDBRANCH   1  20
TORSDOF 11
ENDMDL
MODEL 3
REMARK VINA RESULT:   -29.651      1.217      1.816
REMARK INTER + INTRA:         -34.462
REMARK INTER:                 -32.933
REMARK INTRA:                  -1.529
REMARK CONF_INDEPENDENT:        3.281
REMARK UNBOUND:                -1.529
REMARK  11 active torsions:
REMARK  status: ('A' for Active; 'I' for Inactive)
REMARK    1  A    between atoms: C_2  and  C_3 
REMARK    2  A    between atoms: C_3  and  N_4 
REMARK    3  A    between atoms: C_5  and  S_6 
REMARK    4  A    between atoms: S_6  and  C_7 
REMARK    5  A    between atoms: C_7  and  C_8 
REMARK       I    between atoms: C_8  and  N_10 
REMARK    6  A    between atoms: N_10  and  C_11 
REMARK    7  A    between atoms: C_12  and  C_11 
REMARK    8  A    between atoms: C_12  and  C_22 
REMARK    9  A    between atoms: C_12  and  C_13 
REMARK   10  A    between atoms: C_25  and  O_26 
REMARK   11  A    between atoms: C_32  and  O_33 
ROOT
ATOM      1  C   UNL d   1      26.213 -15.453  -1.388  0.00  0.00     0.068 C 
ENDROOT
BRANCH   1   2
ATOM      2  C   UNL d   1      27.018 -14.788  -0.256  0.00  0.00    -0.048 A 
ATOM      3  C   UNL d   1      27.254 -15.428   0.976  0.00  0.00     0.011 A 
ATOM      4  C   UNL d   1      28.138 -14.924   1.919  0.00  0.00     0.037 A 
ATOM      5  C   UNL d   1      28.708 -13.683   1.720  0.00  0.00     0.068 A 
ATOM      6  C   UNL d   1      28.482 -13.004   0.522  0.00  0.00     0.037 A 
ATOM      7  C   UNL d   1      27.620 -13.532  -0.443  0.00  0.00     0.011 A 
BRANCH   5   8
ATOM      8  O   UNL d   1      29.416 -13.230   2.792  0.00  0.00    -0.356 OA
ATOM      9  C   UNL d   1      28.990 -13.734   4.047  0.00  0.00     0.210 C 
ENDBRANCH   5   8
ENDBRANCH   1   2
BRANCH   1  10
ATOM     10  C   UNL d   1      26.761 -15.152  -2.777  0.00  0.00    -0.040 C 
ATOM     11  C   UNL d   1      28.014 -15.439  -3.146  0.00  0.00    -0.005 A 
ATOM     12  C   UNL d   1      29.156 -15.844  -2.401  0.00  0.00     0.014 A 
ATOM     13  C   UNL d   1      27.986 -15.514  -4.612  0.00  0.00     0.038 A 
ATOM     14  C   UNL d   1      30.220 -16.316  -3.049  0.00  0.00     0.001 A 
ATOM     15  C   UNL d   1      30.230 -16.409  -4.495  0.00  0.00     0.002 A 
ATOM     16  C   UNL d   1      29.194 -16.036  -5.280  0.00  0.00     0.030 A 
ATOM     17  N   UNL d   1      26.841 -15.172  -5.090  0.00  0.00    -0.385 N 
ATOM     18  C   UNL d   1      25.908 -14.841  -3.980  0.00  0.00     0.155 C 
ATOM     19  H   UNL d   1      26.621 -15.184  -6.081  0.00  0.00     0.160 HD
ENDBRANCH   1  10
BRANCH   1  20
ATOM     20  C   UNL d   1      26.126 -17.042  -1.336  0.00  0.00     0.136 C 
BRANCH  20  21
ATOM     21  N   UNL d   1      24.886 -17.598  -0.763  0.00  0.00    -0.359 N 
ATOM     22  C   UNL d   1      23.643 -17.013  -0.833  0.00  0.00     0.227 C 
ATOM     23  O   UNL d   1      23.444 -16.101  -1.641  0.00  0.00    -0.273 OA
ATOM     24  H   UNL d   1      24.928 -18.528  -0.372  0.00  0.00     0.162 HD
BRANCH  22  25
ATOM     25  C   UNL d   1      22.577 -17.543   0.189  0.00  0.00     0.185 C 
BRANCH  25  26
ATOM     26  S   UNL d   1      22.266 -19.319  -0.146  0.00  0.00    -0.081 SA
BRANCH  26  27
ATOM     27  C   UNL d   1      20.564 -19.547  -0.239  0.00  0.00     0.187 C 
ATOM     28  N   UNL d   1      19.849 -20.055   0.898  0.00  0.00    -0.315 N 
ATOM     29  C   UNL d   1      18.501 -20.328   0.461  0.00  0.00     0.347 C 
ATOM     30  N   UNL d   1      18.552 -19.736  -0.844  0.00  0.00    -0.265 N 
ATOM     31  N   UNL d   1      19.790 -19.325  -1.257  0.00  0.00    -0.150 NA
ATOM     32  H   UNL d   1      17.693 -19.397  -1.270  0.00  0.00     0.187 HD
BRANCH  28  33
ATOM     33  C   UNL d   1      20.280 -19.992   2.297  0.00  0.00     0.129 C 
BRANCH  33  34
ATOM     34  C   UNL d   1      19.240 -20.558   3.270  0.00  0.00     0.015 C 
ATOM     35  C   UNL d   1      19.819 -20.824   4.653  0.00  0.00     0.006 C 
ENDBRANCH  33  34
ENDBRANCH  28  33
BRANCH  29  36
ATOM     36  O   UNL d   1      18.391 -21.715   0.346  0.00  0.00    -0.358 OA
ATOM     37  H   UNL d   1      18.616 -22.046   1.231  0.00  0.00     0.214 HD
ENDBRANCH  29  36
ENDBRANCH  26  27
ENDBRANCH  25  26
ENDBRANCH  22  25
ENDBRANCH  20  21
ENDBRANCH   1  20
TORSDOF 11
ENDMDL
MODEL 4
REMARK VINA RESULT:   -29.591      2.373      3.159
REMARK INTER + INTRA:         -34.291
REMARK INTER:                 -32.872
REMARK INTRA:                  -1.419
REMARK CONF_INDEPENDENT:        3.281
REMARK UNBOUND:                -1.419
REMARK  11 active torsions:
REMARK  status: ('A' for Active; 'I' for Inactive)
REMARK    1  A    between atoms: C_2  and  C_3 
REMARK    2  A    between atoms: C_3  and  N_4 
REMARK    3  A    between atoms: C_5  and  S_6 
REMARK    4  A    between atoms: S_6  and  C_7 
REMARK    5  A    between atoms: C_7  and  C_8 
REMARK       I    between atoms: C_8  and  N_10 
REMARK    6  A    between atoms: N_10  and  C_11 
REMARK    7  A    between atoms: C_12  and  C_11 
REMARK    8  A    between atoms: C_12  and  C_22 
REMARK    9  A    between atoms: C_12  and  C_13 
REMARK   10  A    between atoms: C_25  and  O_26 
REMARK   11  A    between atoms: C_32  and  O_33 
ROOT
ATOM      1  C   UNL d   1      26.361 -15.672  -2.122  0.00  0.00     0.068 C 
ENDROOT
BRANCH   1   2
ATOM      2  C   UNL d   1      26.244 -14.199  -2.556  0.00  0.00    -0.048 A 
ATOM      3  C   UNL d   1      27.059 -13.187  -2.012  0.00  0.00     0.011 A 
ATOM      4  C   UNL d   1      27.098 -11.903  -2.534  0.00  0.00     0.037 A 
ATOM      5  C   UNL d   1      26.214 -11.547  -3.532  0.00  0.00     0.068 A 
ATOM      6  C   UNL d   1      25.373 -12.514  -4.085  0.00  0.00     0.037 A 
ATOM      7  C   UNL d   1      25.362 -13.819  -3.581  0.00  0.00     0.011 A 
BRANCH   5   8
ATOM      8  O   UNL d   1      26.238 -10.220  -3.836  0.00  0.00    -0.356 OA
ATOM      9  C   UNL d   1      25.419  -9.403  -3.016  0.00  0.00     0.210 C 
ENDBRANCH   5   8
ENDBRANCH   1   2
BRANCH   1  10
ATOM     10  C   UNL d   1      27.744 -16.264  -2.357  0.00  0.00    -0.040 C 
ATOM     11  C   UNL d   1      28.478 -15.996  -3.443  0.00  0.00    -0.005 A 
ATOM     12  C   UNL d   1      28.161 -15.353  -4.672  0.00  0.00     0.014 A 
ATOM     13  C   UNL d   1      29.867 -16.279  -3.059  0.00  0.00     0.038 A 
ATOM     14  C   UNL d   1      29.148 -14.986  -5.486  0.00  0.00     0.001 A 
ATOM     15  C   UNL d   1      30.532 -15.244  -5.141  0.00  0.00     0.002 A 
ATOM     16  C   UNL d   1      30.921 -15.859  -4.002  0.00  0.00     0.030 A 
ATOM     17  N   UNL d   1      29.945 -16.796  -1.883  0.00  0.00    -0.385 N 
ATOM     18  C   UNL d   1      28.588 -16.908  -1.287  0.00  0.00     0.155 C 
ATOM     19  H   UNL d   1      30.824 -17.038  -1.435  0.00  0.00     0.160 HD
ENDBRANCH   1  10
BRANCH   1  20
ATOM     20  C   UNL d   1      26.063 -15.966  -0.585  0.00  0.00     0.136 C 
BRANCH  20  21
ATOM     21  N   UNL d   1      24.747 -16.562  -0.290  0.00  0.00    -0.359 N 
ATOM     22  C   UNL d   1      23.948 -17.222  -1.196  0.00  0.00     0.227 C 
ATOM     23  O   UNL d   1      24.429 -17.603  -2.267  0.00  0.00    -0.273 OA
ATOM     24  H   UNL d   1      24.446 -16.576   0.674  0.00  0.00     0.162 HD
BRANCH  22  25
ATOM     25  C   UNL d   1      22.443 -17.388  -0.789  0.00  0.00     0.185 C 
BRANCH  25  26
ATOM     26  S   UNL d   1      22.214 -19.037  -0.019  0.00  0.00    -0.081 SA
BRANCH  26  27
ATOM     27  C   UNL d   1      20.548 -19.446  -0.136  0.00  0.00     0.187 C 
ATOM     28  N   UNL d   1      19.872 -20.013   0.997  0.00  0.00    -0.315 N 
ATOM     29  C   UNL d   1      18.568 -20.434   0.543  0.00  0.00     0.347 C 
ATOM     30  N   UNL d   1      18.577 -19.856  -0.769  0.00  0.00    -0.265 N 
ATOM     31  N   UNL d   1      19.771 -19.321  -1.169  0.00  0.00    -0.150 NA
ATOM     32  H   UNL d   1      17.694 -19.616  -1.213  0.00  0.00     0.187 HD
BRANCH  28  33
ATOM     33  C   UNL d   1      20.269 -19.888   2.401  0.00  0.00     0.129 C 
BRANCH  33  34
ATOM     34  C   UNL d   1      19.450 -20.783   3.338  0.00  0.00     0.015 C 
ATOM     35  C   UNL d   1      19.726 -20.494   4.808  0.00  0.00     0.006 C 
ENDBRANCH  33  34
ENDBRANCH  28  33
BRANCH  29  36
ATOM     36  O   UNL d   1      18.608 -21.827   0.446  0.00  0.00    -0.358 OA
ATOM     37  H   UNL d   1      17.673 -22.091   0.437  0.00  0.00     0.214 HD
ENDBRANCH  29  36
ENDBRANCH  26  27
ENDBRANCH  25  26
ENDBRANCH  22  25
ENDBRANCH  20  21
ENDBRANCH   1  20
TORSDOF 11
ENDMDL
