MODEL 1
REMARK VINA RESULT:    -9.149      0.000      0.000
REMARK INTER + INTRA:         -12.101
REMARK INTER:                 -11.237
REMARK INTRA:                  -0.864
REMARK CONF_INDEPENDENT:        2.088
REMARK UNBOUND:                -0.864
REMARK  7 active torsions:
REMARK  status: ('A' for Active; 'I' for Inactive)
REMARK    1  A    between atoms: S_2  and  C_3 
REMARK    2  A    between atoms: C_6  and  C_7 
REMARK    3  A    between atoms: C_7  and  N_8 
REMARK       I    between atoms: N_8  and  C_9 
REMARK    4  A    between atoms: C_9  and  C_11 
REMARK       I    between atoms: C_11  and  N_13 
REMARK    5  A    between atoms: N_13  and  C_14 
REMARK    6  A    between atoms: C_17  and  C_18 
REMARK       I    between atoms: C_18  and  N_20 
REMARK    7  A    between atoms: N_20  and  C_21 
ROOT
ATOM      1  C   UNL d   1      27.227 -13.826   1.647  0.00  0.00     0.313 C 
ATOM      2  O   UNL d   1      26.954 -12.640   1.808  0.00  0.00    -0.262 OA
ATOM      3  N   UNL d   1      27.850 -14.668   2.565  0.00  0.00    -0.319 N 
ATOM      4  H   UNL d   1      28.153 -15.579   2.231  0.00  0.00     0.169 HD
ENDROOT
BRANCH   3   5
ATOM      5  C   UNL d   1      28.144 -14.291   3.900  0.00  0.00     0.035 A 
ATOM      6  C   UNL d   1      28.346 -15.233   4.904  0.00  0.00     0.030 A 
ATOM      7  C   UNL d   1      28.597 -14.813   6.233  0.00  0.00     0.020 A 
ATOM      8  C   UNL d   1      28.655 -13.444   6.598  0.00  0.00     0.038 A 
ATOM      9  C   UNL d   1      28.353 -12.505   5.597  0.00  0.00    -0.044 A 
ATOM     10  C   UNL d   1      28.156 -11.032   5.792  0.00  0.00     0.049 C 
ATOM     11  C   UNL d   1      28.157 -12.944   4.263  0.00  0.00     0.037 A 
BRANCH   8  12
ATOM     12  C   UNL d   1      29.020 -13.125   8.040  0.00  0.00     0.252 C 
ATOM     13  O   UNL d   1      28.785 -12.005   8.488  0.00  0.00    -0.268 OA
ATOM     14  N   UNL d   1      29.559 -14.129   8.831  0.00  0.00    -0.353 N 
ATOM     15  H   UNL d   1      29.389 -15.082   8.562  0.00  0.00     0.163 HD
BRANCH  14  16
ATOM     16  C   UNL d   1      29.931 -13.980  10.234  0.00  0.00     0.076 C 
ATOM     17  C   UNL d   1      28.856 -13.185  10.960  0.00  0.00     0.032 C 
ATOM     18  C   UNL d   1      30.067 -15.364  10.886  0.00  0.00     0.032 C 
ENDBRANCH  14  16
ENDBRANCH   8  12
ENDBRANCH   3   5
BRANCH   1  19
ATOM     19  C   UNL d   1      26.904 -14.460   0.259  0.00  0.00     0.309 C 
ATOM     20  N   UNL d   1      26.395 -15.744   0.358  0.00  0.00    -0.349 N 
ATOM     21  H   UNL d   1      26.262 -16.072   1.306  0.00  0.00     0.163 HD
ATOM     22  O   UNL d   1      27.099 -13.844  -0.770  0.00  0.00    -0.262 OA
BRANCH  20  23
ATOM     23  C   UNL d   1      26.014 -16.565  -0.782  0.00  0.00     0.161 C 
BRANCH  23  24
ATOM     24  C   UNL d   1      24.628 -17.191  -0.707  0.00  0.00    -0.040 A 
ATOM     25  C   UNL d   1      24.494 -18.579  -0.520  0.00  0.00     0.010 A 
ATOM     26  C   UNL d   1      23.231 -19.203  -0.584  0.00  0.00     0.019 A 
ATOM     27  C   UNL d   1      22.062 -18.448  -0.744  0.00  0.00    -0.000 A 
ATOM     28  C   UNL d   1      22.193 -17.072  -0.893  0.00  0.00     0.019 A 
ATOM     29  C   UNL d   1      23.449 -16.455  -0.869  0.00  0.00     0.010 A 
BRANCH  27  30
ATOM     30  S   UNL d   1      20.479 -19.283  -0.710  0.00  0.00    -0.134 SA
ATOM     31  C   UNL d   1      20.281 -19.747   1.042  0.00  0.00     0.095 C 
ENDBRANCH  27  30
ENDBRANCH  23  24
ENDBRANCH  20  23
ENDBRANCH   1  19
TORSDOF 7
ENDMDL
MODEL 2
REMARK VINA RESULT:    -8.764      0.564      1.063
REMARK INTER + INTRA:         -11.970
REMARK INTER:                 -10.853
REMARK INTRA:                  -1.117
REMARK CONF_INDEPENDENT:        2.088
REMARK UNBOUND:                -1.117
REMARK  7 active torsions:
REMARK  status: ('A' for Active; 'I' for Inactive)
REMARK    1  A    between atoms: S_2  and  C_3 
REMARK    2  A    between atoms: C_6  and  C_7 
REMARK    3  A    between atoms: C_7  and  N_8 
REMARK       I    between atoms: N_8  and  C_9 
REMARK    4  A    between atoms: C_9  and  C_11 
REMARK       I    between atoms: C_11  and  N_13 
REMARK    5  A    between atoms: N_13  and  C_14 
REMARK    6  A    between atoms: C_17  and  C_18 
REMARK       I    between atoms: C_18  and  N_20 
REMARK    7  A    between atoms: N_20  and  C_21 
ROOT
ATOM      1  C   UNL d   1      27.199 -13.872   1.958  0.00  0.00     0.313 C 
ATOM      2  O   UNL d   1      26.739 -12.772   2.248  0.00  0.00    -0.262 OA
ATOM      3  N   UNL d   1      28.047 -14.652   2.743  0.00  0.00    -0.319 N 
ATOM      4  H   UNL d   1      28.472 -15.464   2.303  0.00  0.00     0.169 HD
ENDROOT
BRANCH   3   5
ATOM      5  C   UNL d   1      28.398 -14.327   4.077  0.00  0.00     0.035 A 
ATOM      6  C   UNL d   1      28.202 -15.219   5.128  0.00  0.00     0.030 A 
ATOM      7  C   UNL d   1      28.529 -14.839   6.452  0.00  0.00     0.020 A 
ATOM      8  C   UNL d   1      29.060 -13.563   6.768  0.00  0.00     0.038 A 
ATOM      9  C   UNL d   1      29.161 -12.638   5.714  0.00  0.00    -0.044 A 
ATOM     10  C   UNL d   1      29.500 -11.183   5.839  0.00  0.00     0.049 C 
ATOM     11  C   UNL d   1      28.880 -13.056   4.388  0.00  0.00     0.037 A 
BRANCH   8  12
ATOM     12  C   UNL d   1      29.451 -13.312   8.216  0.00  0.00     0.252 C 
ATOM     13  O   UNL d   1      29.410 -12.167   8.662  0.00  0.00    -0.268 OA
ATOM     14  N   UNL d   1      29.791 -14.394   9.014  0.00  0.00    -0.353 N 
ATOM     15  H   UNL d   1      29.460 -15.302   8.740  0.00  0.00     0.163 HD
BRANCH  14  16
ATOM     16  C   UNL d   1      30.159 -14.312  10.423  0.00  0.00     0.076 C 
ATOM     17  C   UNL d   1      28.940 -13.911  11.241  0.00  0.00     0.032 C 
ATOM     18  C   UNL d   1      30.671 -15.677  10.908  0.00  0.00     0.032 C 
ENDBRANCH  14  16
ENDBRANCH   8  12
ENDBRANCH   3   5
BRANCH   1  19
ATOM     19  C   UNL d   1      26.860 -14.450   0.550  0.00  0.00     0.309 C 
ATOM     20  N   UNL d   1      26.775 -15.832   0.540  0.00  0.00    -0.349 N 
ATOM     21  H   UNL d   1      26.897 -16.267   1.446  0.00  0.00     0.163 HD
ATOM     22  O   UNL d   1      26.698 -13.716  -0.404  0.00  0.00    -0.262 OA
BRANCH  20  23
ATOM     23  C   UNL d   1      26.475 -16.626  -0.642  0.00  0.00     0.161 C 
BRANCH  23  24
ATOM     24  C   UNL d   1      25.057 -17.175  -0.723  0.00  0.00    -0.040 A 
ATOM     25  C   UNL d   1      23.977 -16.300  -0.946  0.00  0.00     0.010 A 
ATOM     26  C   UNL d   1      22.646 -16.759  -0.891  0.00  0.00     0.019 A 
ATOM     27  C   UNL d   1      22.359 -18.117  -0.702  0.00  0.00    -0.000 A 
ATOM     28  C   UNL d   1      23.428 -18.986  -0.516  0.00  0.00     0.019 A 
ATOM     29  C   UNL d   1      24.750 -18.526  -0.533  0.00  0.00     0.010 A 
BRANCH  27  30
ATOM     30  S   UNL d   1      20.653 -18.659  -0.747  0.00  0.00    -0.134 SA
ATOM     31  C   UNL d   1      20.599 -19.994   0.493  0.00  0.00     0.095 C 
ENDBRANCH  27  30
ENDBRANCH  23  24
ENDBRANCH  20  23
ENDBRANCH   1  19
TORSDOF 7
ENDMDL
MODEL 3
REMARK VINA RESULT:    -8.499      1.083      1.452
REMARK INTER + INTRA:         -12.367
REMARK INTER:                 -10.587
REMARK INTRA:                  -1.780
REMARK CONF_INDEPENDENT:        2.088
REMARK UNBOUND:                -1.780
REMARK  7 active torsions:
REMARK  status: ('A' for Active; 'I' for Inactive)
REMARK    1  A    between atoms: S_2  and  C_3 
REMARK    2  A    between atoms: C_6  and  C_7 
REMARK    3  A    between atoms: C_7  and  N_8 
REMARK       I    between atoms: N_8  and  C_9 
REMARK    4  A    between atoms: C_9  and  C_11 
REMARK       I    between atoms: C_11  and  N_13 
REMARK    5  A    between atoms: N_13  and  C_14 
REMARK    6  A    between atoms: C_17  and  C_18 
REMARK       I    between atoms: C_18  and  N_20 
REMARK    7  A    between atoms: N_20  and  C_21 
ROOT
ATOM      1  C   UNL d   1      27.412 -14.457   2.124  0.00  0.00     0.313 C 
ATOM      2  O   UNL d   1      26.677 -13.473   2.130  0.00  0.00    -0.262 OA
ATOM      3  N   UNL d   1      28.320 -14.823   3.115  0.00  0.00    -0.319 N 
ATOM      4  H   UNL d   1      28.971 -15.572   2.897  0.00  0.00     0.169 HD
ENDROOT
BRANCH   3   5
ATOM      5  C   UNL d   1      28.427 -14.158   4.363  0.00  0.00     0.035 A 
ATOM      6  C   UNL d   1      28.499 -14.856   5.565  0.00  0.00     0.030 A 
ATOM      7  C   UNL d   1      28.564 -14.153   6.792  0.00  0.00     0.020 A 
ATOM      8  C   UNL d   1      28.560 -12.737   6.857  0.00  0.00     0.038 A 
ATOM      9  C   UNL d   1      28.389 -12.045   5.645  0.00  0.00    -0.044 A 
ATOM     10  C   UNL d   1      28.156 -10.572   5.489  0.00  0.00     0.049 C 
ATOM     11  C   UNL d   1      28.380 -12.766   4.424  0.00  0.00     0.037 A 
BRANCH   8  12
ATOM     12  C   UNL d   1      28.723 -12.104   8.231  0.00  0.00     0.252 C 
ATOM     13  O   UNL d   1      28.960 -10.901   8.317  0.00  0.00    -0.268 OA
ATOM     14  N   UNL d   1      28.544 -12.895   9.356  0.00  0.00    -0.353 N 
ATOM     15  H   UNL d   1      28.004 -13.735   9.260  0.00  0.00     0.163 HD
BRANCH  14  16
ATOM     16  C   UNL d   1      28.641 -12.423  10.734  0.00  0.00     0.076 C 
ATOM     17  C   UNL d   1      28.097 -13.491  11.672  0.00  0.00     0.032 C 
ATOM     18  C   UNL d   1      30.109 -12.139  11.085  0.00  0.00     0.032 C 
ENDBRANCH  14  16
ENDBRANCH   8  12
ENDBRANCH   3   5
BRANCH   1  19
ATOM     19  C   UNL d   1      27.384 -15.373   0.862  0.00  0.00     0.309 C 
ATOM     20  N   UNL d   1      26.148 -15.392   0.238  0.00  0.00    -0.349 N 
ATOM     21  H   UNL d   1      25.456 -14.782   0.655  0.00  0.00     0.163 HD
ATOM     22  O   UNL d   1      28.374 -15.982   0.510  0.00  0.00    -0.262 OA
BRANCH  20  23
ATOM     23  C   UNL d   1      25.846 -16.166  -0.957  0.00  0.00     0.161 C 
BRANCH  23  24
ATOM     24  C   UNL d   1      24.565 -16.988  -0.903  0.00  0.00    -0.040 A 
ATOM     25  C   UNL d   1      23.318 -16.358  -1.075  0.00  0.00     0.010 A 
ATOM     26  C   UNL d   1      22.114 -17.068  -0.894  0.00  0.00     0.019 A 
ATOM     27  C   UNL d   1      22.121 -18.443  -0.627  0.00  0.00    -0.000 A 
ATOM     28  C   UNL d   1      23.354 -19.071  -0.492  0.00  0.00     0.019 A 
ATOM     29  C   UNL d   1      24.551 -18.361  -0.633  0.00  0.00     0.010 A 
BRANCH  27  30
ATOM     30  S   UNL d   1      20.560 -19.313  -0.513  0.00  0.00    -0.134 SA
ATOM     31  C   UNL d   1      20.332 -19.542   1.281  0.00  0.00     0.095 C 
ENDBRANCH  27  30
ENDBRANCH  23  24
ENDBRANCH  20  23
ENDBRANCH   1  19
TORSDOF 7
ENDMDL
MODEL 4
REMARK VINA RESULT:    -8.148      1.796      2.302
REMARK INTER + INTRA:         -11.988
REMARK INTER:                 -10.236
REMARK INTRA:                  -1.752
REMARK CONF_INDEPENDENT:        2.088
REMARK UNBOUND:                -1.752
REMARK  7 active torsions:
REMARK  status: ('A' for Active; 'I' for Inactive)
REMARK    1  A    between atoms: S_2  and  C_3 
REMARK    2  A    between atoms: C_6  and  C_7 
REMARK    3  A    between atoms: C_7  and  N_8 
REMARK       I    between atoms: N_8  and  C_9 
REMARK    4  A    between atoms: C_9  and  C_11 
REMARK       I    between atoms: C_11  and  N_13 
REMARK    5  A    between atoms: N_13  and  C_14 
REMARK    6  A    between atoms: C_17  and  C_18 
REMARK       I    between atoms: C_18  and  N_20 
REMARK    7  A    between atoms: N_20  and  C_21 
ROOT
ATOM      1  C   UNL d   1      27.427 -14.496   1.940  0.00  0.00     0.313 C 
ATOM      2  O   UNL d   1      26.750 -13.483   1.792  0.00  0.00    -0.262 OA
ATOM      3  N   UNL d   1      28.300 -14.767   2.991  0.00  0.00    -0.319 N 
ATOM      4  H   UNL d   1      28.909 -15.574   2.894  0.00  0.00     0.169 HD
ENDROOT
BRANCH   3   5
ATOM      5  C   UNL d   1      28.430 -13.939   4.134  0.00  0.00     0.035 A 
ATOM      6  C   UNL d   1      28.665 -14.464   5.401  0.00  0.00     0.030 A 
ATOM      7  C   UNL d   1      28.747 -13.605   6.524  0.00  0.00     0.020 A 
ATOM      8  C   UNL d   1      28.598 -12.198   6.416  0.00  0.00     0.038 A 
ATOM      9  C   UNL d   1      28.265 -11.690   5.148  0.00  0.00    -0.044 A 
ATOM     10  C   UNL d   1      27.866 -10.279   4.835  0.00  0.00     0.049 C 
ATOM     11  C   UNL d   1      28.241 -12.561   4.029  0.00  0.00     0.037 A 
BRANCH   8  12
ATOM     12  C   UNL d   1      28.797 -11.380   7.682  0.00  0.00     0.252 C 
ATOM     13  O   UNL d   1      28.311 -11.778   8.739  0.00  0.00    -0.268 OA
ATOM     14  N   UNL d   1      29.570 -10.231   7.621  0.00  0.00    -0.353 N 
ATOM     15  H   UNL d   1      30.232 -10.148   6.870  0.00  0.00     0.163 HD
BRANCH  14  16
ATOM     16  C   UNL d   1      29.871  -9.363   8.756  0.00  0.00     0.076 C 
ATOM     17  C   UNL d   1      31.315  -9.576   9.186  0.00  0.00     0.032 C 
ATOM     18  C   UNL d   1      29.671  -7.894   8.354  0.00  0.00     0.032 C 
ENDBRANCH  14  16
ENDBRANCH   8  12
ENDBRANCH   3   5
BRANCH   1  19
ATOM     19  C   UNL d   1      27.361 -15.579   0.819  0.00  0.00     0.309 C 
ATOM     20  N   UNL d   1      26.111 -15.673   0.232  0.00  0.00    -0.349 N 
ATOM     21  H   UNL d   1      25.434 -15.003   0.575  0.00  0.00     0.163 HD
ATOM     22  O   UNL d   1      28.338 -16.243   0.534  0.00  0.00    -0.262 OA
BRANCH  20  23
ATOM     23  C   UNL d   1      25.774 -16.602  -0.836  0.00  0.00     0.161 C 
BRANCH  23  24
ATOM     24  C   UNL d   1      24.402 -17.253  -0.734  0.00  0.00    -0.040 A 
ATOM     25  C   UNL d   1      24.296 -18.640  -0.519  0.00  0.00     0.010 A 
ATOM     26  C   UNL d   1      23.044 -19.288  -0.556  0.00  0.00     0.019 A 
ATOM     27  C   UNL d   1      21.859 -18.558  -0.717  0.00  0.00    -0.000 A 
ATOM     28  C   UNL d   1      21.963 -17.183  -0.894  0.00  0.00     0.019 A 
ATOM     29  C   UNL d   1      23.208 -16.542  -0.896  0.00  0.00     0.010 A 
BRANCH  27  30
ATOM     30  S   UNL d   1      20.293 -19.422  -0.649  0.00  0.00    -0.134 SA
ATOM     31  C   UNL d   1      20.202 -20.001   1.077  0.00  0.00     0.095 C 
ENDBRANCH  27  30
ENDBRANCH  23  24
ENDBRANCH  20  23
ENDBRANCH   1  19
TORSDOF 7
ENDMDL
MODEL 5
REMARK VINA RESULT:    -8.098      6.425     10.041
REMARK INTER + INTRA:         -11.047
REMARK INTER:                 -10.186
REMARK INTRA:                  -0.861
REMARK CONF_INDEPENDENT:        2.088
REMARK UNBOUND:                -0.861
REMARK  7 active torsions:
REMARK  status: ('A' for Active; 'I' for Inactive)
REMARK    1  A    between atoms: S_2  and  C_3 
REMARK    2  A    between atoms: C_6  and  C_7 
REMARK    3  A    between atoms: C_7  and  N_8 
REMARK       I    between atoms: N_8  and  C_9 
REMARK    4  A    between atoms: C_9  and  C_11 
REMARK       I    between atoms: C_11  and  N_13 
REMARK    5  A    between atoms: N_13  and  C_14 
REMARK    6  A    between atoms: C_17  and  C_18 
REMARK       I    between atoms: C_18  and  N_20 
REMARK    7  A    between atoms: N_20  and  C_21 
ROOT
ATOM      1  C   UNL d   1      29.143 -16.403  -0.678  0.00  0.00     0.313 C 
ATOM      2  O   UNL d   1      28.699 -15.316  -1.039  0.00  0.00    -0.262 OA
ATOM      3  N   UNL d   1      28.403 -17.496  -0.232  0.00  0.00    -0.319 N 
ATOM      4  H   UNL d   1      28.918 -18.268   0.183  0.00  0.00     0.169 HD
ENDROOT
BRANCH   3   5
ATOM      5  C   UNL d   1      26.987 -17.547  -0.260  0.00  0.00     0.035 A 
ATOM      6  C   UNL d   1      26.276 -18.597   0.315  0.00  0.00     0.030 A 
ATOM      7  C   UNL d   1      24.863 -18.631   0.229  0.00  0.00     0.020 A 
ATOM      8  C   UNL d   1      24.118 -17.620  -0.430  0.00  0.00     0.038 A 
ATOM      9  C   UNL d   1      24.851 -16.618  -1.089  0.00  0.00    -0.044 A 
ATOM     10  C   UNL d   1      24.296 -15.571  -2.007  0.00  0.00     0.049 C 
ATOM     11  C   UNL d   1      26.261 -16.573  -0.945  0.00  0.00     0.037 A 
BRANCH   8  12
ATOM     12  C   UNL d   1      22.602 -17.727  -0.375  0.00  0.00     0.252 C 
ATOM     13  O   UNL d   1      21.916 -16.838  -0.875  0.00  0.00    -0.268 OA
ATOM     14  N   UNL d   1      22.033 -18.858   0.191  0.00  0.00    -0.353 N 
ATOM     15  H   UNL d   1      22.590 -19.692   0.239  0.00  0.00     0.163 HD
BRANCH  14  16
ATOM     16  C   UNL d   1      20.599 -19.113   0.290  0.00  0.00     0.076 C 
ATOM     17  C   UNL d   1      19.969 -18.992  -1.090  0.00  0.00     0.032 C 
ATOM     18  C   UNL d   1      20.358 -20.528   0.836  0.00  0.00     0.032 C 
ENDBRANCH  14  16
ENDBRANCH   8  12
ENDBRANCH   3   5
BRANCH   1  19
ATOM     19  C   UNL d   1      30.692 -16.579  -0.653  0.00  0.00     0.309 C 
ATOM     20  N   UNL d   1      31.089 -17.782  -0.095  0.00  0.00    -0.349 N 
ATOM     21  H   UNL d   1      30.328 -18.392   0.175  0.00  0.00     0.163 HD
ATOM     22  O   UNL d   1      31.426 -15.716  -1.093  0.00  0.00    -0.262 OA
BRANCH  20  23
ATOM     23  C   UNL d   1      32.476 -18.198   0.055  0.00  0.00     0.161 C 
BRANCH  23  24
ATOM     24  C   UNL d   1      32.778 -19.053   1.278  0.00  0.00    -0.040 A 
ATOM     25  C   UNL d   1      33.415 -18.480   2.394  0.00  0.00     0.010 A 
ATOM     26  C   UNL d   1      33.829 -19.276   3.482  0.00  0.00     0.019 A 
ATOM     27  C   UNL d   1      33.537 -20.645   3.526  0.00  0.00    -0.000 A 
ATOM     28  C   UNL d   1      32.876 -21.202   2.438  0.00  0.00     0.019 A 
ATOM     29  C   UNL d   1      32.498 -20.422   1.339  0.00  0.00     0.010 A 
BRANCH  27  30
ATOM     30  S   UNL d   1      33.993 -21.583   4.981  0.00  0.00    -0.134 SA
ATOM     31  C   UNL d   1      32.587 -21.322   6.112  0.00  0.00     0.095 C 
ENDBRANCH  27  30
ENDBRANCH  23  24
ENDBRANCH  20  23
ENDBRANCH   1  19
TORSDOF 7
ENDMDL
MODEL 6
REMARK VINA RESULT:    -7.922      1.885      2.699
REMARK INTER + INTRA:         -11.879
REMARK INTER:                 -10.010
REMARK INTRA:                  -1.868
REMARK CONF_INDEPENDENT:        2.088
REMARK UNBOUND:                -1.868
REMARK  7 active torsions:
REMARK  status: ('A' for Active; 'I' for Inactive)
REMARK    1  A    between atoms: S_2  and  C_3 
REMARK    2  A    between atoms: C_6  and  C_7 
REMARK    3  A    between atoms: C_7  and  N_8 
REMARK       I    between atoms: N_8  and  C_9 
REMARK    4  A    between atoms: C_9  and  C_11 
REMARK       I    between atoms: C_11  and  N_13 
REMARK    5  A    between atoms: N_13  and  C_14 
REMARK    6  A    between atoms: C_17  and  C_18 
REMARK       I    between atoms: C_18  and  N_20 
REMARK    7  A    between atoms: N_20  and  C_21 
ROOT
ATOM      1  C   UNL d   1      27.404 -14.323   2.033  0.00  0.00     0.313 C 
ATOM      2  O   UNL d   1      26.670 -13.348   1.898  0.00  0.00    -0.262 OA
ATOM      3  N   UNL d   1      28.321 -14.536   3.060  0.00  0.00    -0.319 N 
ATOM      4  H   UNL d   1      28.970 -15.312   2.951  0.00  0.00     0.169 HD
ENDROOT
BRANCH   3   5
ATOM      5  C   UNL d   1      28.440 -13.692   4.192  0.00  0.00     0.035 A 
ATOM      6  C   UNL d   1      28.290 -12.311   4.099  0.00  0.00     0.030 A 
ATOM      7  C   UNL d   1      28.457 -11.499   5.247  0.00  0.00     0.020 A 
ATOM      8  C   UNL d   1      28.778 -12.038   6.519  0.00  0.00     0.038 A 
ATOM      9  C   UNL d   1      29.023 -13.421   6.579  0.00  0.00    -0.044 A 
ATOM     10  C   UNL d   1      29.565 -14.176   7.756  0.00  0.00     0.049 C 
ATOM     11  C   UNL d   1      28.797 -14.222   5.431  0.00  0.00     0.037 A 
BRANCH   8  12
ATOM     12  C   UNL d   1      28.842 -11.068   7.688  0.00  0.00     0.252 C 
ATOM     13  O   UNL d   1      28.183 -11.298   8.700  0.00  0.00    -0.268 OA
ATOM     14  N   UNL d   1      29.690  -9.974   7.603  0.00  0.00    -0.353 N 
ATOM     15  H   UNL d   1      30.458 -10.023   6.958  0.00  0.00     0.163 HD
BRANCH  14  16
ATOM     16  C   UNL d   1      29.878  -8.977   8.652  0.00  0.00     0.076 C 
ATOM     17  C   UNL d   1      31.299  -9.070   9.188  0.00  0.00     0.032 C 
ATOM     18  C   UNL d   1      29.641  -7.570   8.082  0.00  0.00     0.032 C 
ENDBRANCH  14  16
ENDBRANCH   8  12
ENDBRANCH   3   5
BRANCH   1  19
ATOM     19  C   UNL d   1      27.364 -15.418   0.924  0.00  0.00     0.309 C 
ATOM     20  N   UNL d   1      26.162 -15.445   0.237  0.00  0.00    -0.349 N 
ATOM     21  H   UNL d   1      25.502 -14.730   0.515  0.00  0.00     0.163 HD
ATOM     22  O   UNL d   1      28.318 -16.144   0.727  0.00  0.00    -0.262 OA
BRANCH  20  23
ATOM     23  C   UNL d   1      25.857 -16.371  -0.844  0.00  0.00     0.161 C 
BRANCH  23  24
ATOM     24  C   UNL d   1      24.521 -17.092  -0.735  0.00  0.00    -0.040 A 
ATOM     25  C   UNL d   1      24.488 -18.483  -0.524  0.00  0.00     0.010 A 
ATOM     26  C   UNL d   1      23.272 -19.195  -0.555  0.00  0.00     0.019 A 
ATOM     27  C   UNL d   1      22.050 -18.528  -0.707  0.00  0.00    -0.000 A 
ATOM     28  C   UNL d   1      22.081 -17.150  -0.881  0.00  0.00     0.019 A 
ATOM     29  C   UNL d   1      23.290 -16.445  -0.889  0.00  0.00     0.010 A 
BRANCH  27  30
ATOM     30  S   UNL d   1      20.531 -19.473  -0.631  0.00  0.00    -0.134 SA
ATOM     31  C   UNL d   1      20.254 -19.689   1.157  0.00  0.00     0.095 C 
ENDBRANCH  27  30
ENDBRANCH  23  24
ENDBRANCH  20  23
ENDBRANCH   1  19
TORSDOF 7
ENDMDL
MODEL 7
REMARK VINA RESULT:    -7.178      2.254      2.745
REMARK INTER + INTRA:         -11.370
REMARK INTER:                  -9.266
REMARK INTRA:                  -2.104
REMARK CONF_INDEPENDENT:        2.088
REMARK UNBOUND:                -2.104
REMARK  7 active torsions:
REMARK  status: ('A' for Active; 'I' for Inactive)
REMARK    1  A    between atoms: S_2  and  C_3 
REMARK    2  A    between atoms: C_6  and  C_7 
REMARK    3  A    between atoms: C_7  and  N_8 
REMARK       I    between atoms: N_8  and  C_9 
REMARK    4  A    between atoms: C_9  and  C_11 
REMARK       I    between atoms: C_11  and  N_13 
REMARK    5  A    between atoms: N_13  and  C_14 
REMARK    6  A    between atoms: C_17  and  C_18 
REMARK       I    between atoms: C_18  and  N_20 
REMARK    7  A    between atoms: N_20  and  C_21 
ROOT
ATOM      1  C   UNL d   1      27.513 -14.442   1.384  0.00  0.00     0.313 C 
ATOM      2  O   UNL d   1      27.038 -13.313   1.294  0.00  0.00    -0.262 OA
ATOM      3  N   UNL d   1      28.516 -14.855   2.259  0.00  0.00    -0.319 N 
ATOM      4  H   UNL d   1      28.916 -15.777   2.107  0.00  0.00     0.169 HD
ENDROOT
BRANCH   3   5
ATOM      5  C   UNL d   1      29.048 -14.033   3.284  0.00  0.00     0.035 A 
ATOM      6  C   UNL d   1      30.383 -13.638   3.293  0.00  0.00     0.030 A 
ATOM      7  C   UNL d   1      30.884 -12.850   4.357  0.00  0.00     0.020 A 
ATOM      8  C   UNL d   1      30.070 -12.433   5.442  0.00  0.00     0.038 A 
ATOM      9  C   UNL d   1      28.752 -12.919   5.471  0.00  0.00    -0.044 A 
ATOM     10  C   UNL d   1      27.779 -12.779   6.604  0.00  0.00     0.049 C 
ATOM     11  C   UNL d   1      28.255 -13.660   4.369  0.00  0.00     0.037 A 
BRANCH   8  12
ATOM     12  C   UNL d   1      30.708 -11.516   6.475  0.00  0.00     0.252 C 
ATOM     13  O   UNL d   1      30.012 -10.685   7.055  0.00  0.00    -0.268 OA
ATOM     14  N   UNL d   1      32.051 -11.682   6.777  0.00  0.00    -0.353 N 
ATOM     15  H   UNL d   1      32.472 -12.571   6.578  0.00  0.00     0.163 HD
BRANCH  14  16
ATOM     16  C   UNL d   1      32.789 -10.899   7.762  0.00  0.00     0.076 C 
ATOM     17  C   UNL d   1      33.131 -11.780   8.955  0.00  0.00     0.032 C 
ATOM     18  C   UNL d   1      34.087 -10.365   7.137  0.00  0.00     0.032 C 
ENDBRANCH  14  16
ENDBRANCH   8  12
ENDBRANCH   3   5
BRANCH   1  19
ATOM     19  C   UNL d   1      26.996 -15.525   0.388  0.00  0.00     0.309 C 
ATOM     20  N   UNL d   1      26.185 -15.002  -0.604  0.00  0.00    -0.349 N 
ATOM     21  H   UNL d   1      26.079 -13.997  -0.574  0.00  0.00     0.163 HD
ATOM     22  O   UNL d   1      27.305 -16.693   0.520  0.00  0.00    -0.262 OA
BRANCH  20  23
ATOM     23  C   UNL d   1      25.568 -15.793  -1.659  0.00  0.00     0.161 C 
BRANCH  23  24
ATOM     24  C   UNL d   1      24.464 -16.740  -1.211  0.00  0.00    -0.040 A 
ATOM     25  C   UNL d   1      23.148 -16.265  -1.059  0.00  0.00     0.010 A 
ATOM     26  C   UNL d   1      22.137 -17.083  -0.516  0.00  0.00     0.019 A 
ATOM     27  C   UNL d   1      22.389 -18.423  -0.195  0.00  0.00    -0.000 A 
ATOM     28  C   UNL d   1      23.681 -18.902  -0.378  0.00  0.00     0.019 A 
ATOM     29  C   UNL d   1      24.697 -18.080  -0.881  0.00  0.00     0.010 A 
BRANCH  27  30
ATOM     30  S   UNL d   1      21.040 -19.444   0.390  0.00  0.00    -0.134 SA
ATOM     31  C   UNL d   1      19.762 -19.237  -0.894  0.00  0.00     0.095 C 
ENDBRANCH  27  30
ENDBRANCH  23  24
ENDBRANCH  20  23
ENDBRANCH   1  19
TORSDOF 7
ENDMDL
MODEL 8
REMARK VINA RESULT:    -7.095      2.037      2.710
REMARK INTER + INTRA:         -11.113
REMARK INTER:                  -9.183
REMARK INTRA:                  -1.930
REMARK CONF_INDEPENDENT:        2.088
REMARK UNBOUND:                -1.930
REMARK  7 active torsions:
REMARK  status: ('A' for Active; 'I' for Inactive)
REMARK    1  A    between atoms: S_2  and  C_3 
REMARK    2  A    between atoms: C_6  and  C_7 
REMARK    3  A    between atoms: C_7  and  N_8 
REMARK       I    between atoms: N_8  and  C_9 
REMARK    4  A    between atoms: C_9  and  C_11 
REMARK       I    between atoms: C_11  and  N_13 
REMARK    5  A    between atoms: N_13  and  C_14 
REMARK    6  A    between atoms: C_17  and  C_18 
REMARK       I    between atoms: C_18  and  N_20 
REMARK    7  A    between atoms: N_20  and  C_21 
ROOT
ATOM      1  C   UNL d   1      28.343 -14.360   2.391  0.00  0.00     0.313 C 
ATOM      2  O   UNL d   1      29.558 -14.503   2.496  0.00  0.00    -0.262 OA
ATOM      3  N   UNL d   1      27.492 -13.761   3.318  0.00  0.00    -0.319 N 
ATOM      4  H   UNL d   1      26.493 -13.861   3.164  0.00  0.00     0.169 HD
ENDROOT
BRANCH   3   5
ATOM      5  C   UNL d   1      27.949 -13.098   4.485  0.00  0.00     0.035 A 
ATOM      6  C   UNL d   1      27.791 -11.726   4.661  0.00  0.00     0.030 A 
ATOM      7  C   UNL d   1      28.297 -11.096   5.824  0.00  0.00     0.020 A 
ATOM      8  C   UNL d   1      28.974 -11.814   6.842  0.00  0.00     0.038 A 
ATOM      9  C   UNL d   1      29.213 -13.179   6.608  0.00  0.00    -0.044 A 
ATOM     10  C   UNL d   1      30.071 -14.085   7.438  0.00  0.00     0.049 C 
ATOM     11  C   UNL d   1      28.650 -13.801   5.464  0.00  0.00     0.037 A 
BRANCH   8  12
ATOM     12  C   UNL d   1      29.391 -11.034   8.081  0.00  0.00     0.252 C 
ATOM     13  O   UNL d   1      28.528 -10.625   8.854  0.00  0.00    -0.268 OA
ATOM     14  N   UNL d   1      30.742 -10.854   8.333  0.00  0.00    -0.353 N 
ATOM     15  H   UNL d   1      31.390 -11.495   7.911  0.00  0.00     0.163 HD
BRANCH  14  16
ATOM     16  C   UNL d   1      31.291 -10.154   9.490  0.00  0.00     0.076 C 
ATOM     17  C   UNL d   1      30.780  -8.721   9.503  0.00  0.00     0.032 C 
ATOM     18  C   UNL d   1      30.853 -10.861  10.782  0.00  0.00     0.032 C 
ENDBRANCH  14  16
ENDBRANCH   8  12
ENDBRANCH   3   5
BRANCH   1  19
ATOM     19  C   UNL d   1      27.652 -14.955   1.125  0.00  0.00     0.309 C 
ATOM     20  N   UNL d   1      28.310 -16.065   0.623  0.00  0.00    -0.349 N 
ATOM     21  H   UNL d   1      29.111 -16.361   1.167  0.00  0.00     0.163 HD
ATOM     22  O   UNL d   1      26.644 -14.453   0.670  0.00  0.00    -0.262 OA
BRANCH  20  23
ATOM     23  C   UNL d   1      27.882 -16.810  -0.551  0.00  0.00     0.161 C 
BRANCH  23  24
ATOM     24  C   UNL d   1      26.389 -17.094  -0.642  0.00  0.00    -0.040 A 
ATOM     25  C   UNL d   1      25.610 -16.453  -1.623  0.00  0.00     0.010 A 
ATOM     26  C   UNL d   1      24.207 -16.592  -1.644  0.00  0.00     0.019 A 
ATOM     27  C   UNL d   1      23.554 -17.443  -0.744  0.00  0.00    -0.000 A 
ATOM     28  C   UNL d   1      24.329 -18.103   0.203  0.00  0.00     0.019 A 
ATOM     29  C   UNL d   1      25.718 -17.937   0.250  0.00  0.00     0.010 A 
BRANCH  27  30
ATOM     30  S   UNL d   1      21.783 -17.662  -0.886  0.00  0.00    -0.134 SA
ATOM     31  C   UNL d   1      21.504 -19.328  -0.199  0.00  0.00     0.095 C 
ENDBRANCH  27  30
ENDBRANCH  23  24
ENDBRANCH  20  23
ENDBRANCH   1  19
TORSDOF 7
ENDMDL
MODEL 9
REMARK VINA RESULT:    -6.613      2.202      2.943
REMARK INTER + INTRA:         -10.796
REMARK INTER:                  -8.702
REMARK INTRA:                  -2.094
REMARK CONF_INDEPENDENT:        2.088
REMARK UNBOUND:                -2.094
REMARK  7 active torsions:
REMARK  status: ('A' for Active; 'I' for Inactive)
REMARK    1  A    between atoms: S_2  and  C_3 
REMARK    2  A    between atoms: C_6  and  C_7 
REMARK    3  A    between atoms: C_7  and  N_8 
REMARK       I    between atoms: N_8  and  C_9 
REMARK    4  A    between atoms: C_9  and  C_11 
REMARK       I    between atoms: C_11  and  N_13 
REMARK    5  A    between atoms: N_13  and  C_14 
REMARK    6  A    between atoms: C_17  and  C_18 
REMARK       I    between atoms: C_18  and  N_20 
REMARK    7  A    between atoms: N_20  and  C_21 
ROOT
ATOM      1  C   UNL d   1      28.203 -13.913   3.534  0.00  0.00     0.313 C 
ATOM      2  O   UNL d   1      28.880 -14.836   3.976  0.00  0.00    -0.262 OA
ATOM      3  N   UNL d   1      27.807 -12.768   4.222  0.00  0.00    -0.319 N 
ATOM      4  H   UNL d   1      27.117 -12.171   3.775  0.00  0.00     0.169 HD
ENDROOT
BRANCH   3   5
ATOM      5  C   UNL d   1      28.258 -12.444   5.527  0.00  0.00     0.035 A 
ATOM      6  C   UNL d   1      28.234 -13.371   6.565  0.00  0.00     0.030 A 
ATOM      7  C   UNL d   1      28.655 -12.995   7.864  0.00  0.00     0.020 A 
ATOM      8  C   UNL d   1      29.112 -11.687   8.165  0.00  0.00     0.038 A 
ATOM      9  C   UNL d   1      29.039 -10.735   7.133  0.00  0.00    -0.044 A 
ATOM     10  C   UNL d   1      29.274  -9.260   7.268  0.00  0.00     0.049 C 
ATOM     11  C   UNL d   1      28.666 -11.145   5.828  0.00  0.00     0.037 A 
BRANCH   8  12
ATOM     12  C   UNL d   1      29.619 -11.436   9.577  0.00  0.00     0.252 C 
ATOM     13  O   UNL d   1      29.225 -12.153  10.495  0.00  0.00    -0.268 OA
ATOM     14  N   UNL d   1      30.559 -10.438   9.782  0.00  0.00    -0.353 N 
ATOM     15  H   UNL d   1      31.114 -10.146   8.998  0.00  0.00     0.163 HD
BRANCH  14  16
ATOM     16  C   UNL d   1      31.155 -10.102  11.071  0.00  0.00     0.076 C 
ATOM     17  C   UNL d   1      32.653 -10.367  11.018  0.00  0.00     0.032 C 
ATOM     18  C   UNL d   1      30.912  -8.618  11.387  0.00  0.00     0.032 C 
ENDBRANCH  14  16
ENDBRANCH   8  12
ENDBRANCH   3   5
BRANCH   1  19
ATOM     19  C   UNL d   1      27.672 -14.040   2.073  0.00  0.00     0.309 C 
ATOM     20  N   UNL d   1      28.135 -15.174   1.428  0.00  0.00    -0.349 N 
ATOM     21  H   UNL d   1      28.709 -15.779   2.001  0.00  0.00     0.163 HD
ATOM     22  O   UNL d   1      26.931 -13.200   1.601  0.00  0.00    -0.262 OA
BRANCH  20  23
ATOM     23  C   UNL d   1      27.798 -15.534   0.059  0.00  0.00     0.161 C 
BRANCH  23  24
ATOM     24  C   UNL d   1      26.561 -16.407  -0.106  0.00  0.00    -0.040 A 
ATOM     25  C   UNL d   1      26.520 -17.684   0.484  0.00  0.00     0.010 A 
ATOM     26  C   UNL d   1      25.448 -18.566   0.235  0.00  0.00     0.019 A 
ATOM     27  C   UNL d   1      24.348 -18.164  -0.534  0.00  0.00    -0.000 A 
ATOM     28  C   UNL d   1      24.375 -16.889  -1.087  0.00  0.00     0.019 A 
ATOM     29  C   UNL d   1      25.455 -16.026  -0.873  0.00  0.00     0.010 A 
BRANCH  27  30
ATOM     30  S   UNL d   1      22.968 -19.288  -0.727  0.00  0.00    -0.134 SA
ATOM     31  C   UNL d   1      21.533 -18.175  -0.881  0.00  0.00     0.095 C 
ENDBRANCH  27  30
ENDBRANCH  23  24
ENDBRANCH  20  23
ENDBRANCH   1  19
TORSDOF 7
ENDMDL
