MODEL 1
REMARK VINA RESULT:    -7.100      0.000      0.000
REMARK INTER + INTRA:          -9.456
REMARK INTER:                  -8.294
REMARK INTRA:                  -1.163
REMARK CONF_INDEPENDENT:        1.193
REMARK UNBOUND:                -1.163
REMARK  4 active torsions:
REMARK  status: ('A' for Active; 'I' for Inactive)
REMARK    1  A    between atoms: C_2  and  C_11 
REMARK    2  A    between atoms: C_2  and  N_3 
REMARK    3  A    between atoms: N_3  and  C_4 
REMARK       I    between atoms: C_11  and  N_13 
REMARK    4  A    between atoms: N_13  and  C_14 
ROOT
ATOM      1  C   UNL d   1      22.818 -19.044  -1.669  0.00  0.00     0.042 C 
ATOM      2  C   UNL d   1      23.071 -18.756  -0.200  0.00  0.00     0.170 C 
ENDROOT
BRANCH   2   3
ATOM      3  C   UNL d   1      24.037 -17.543  -0.151  0.00  0.00     0.244 C 
ATOM      4  O   UNL d   1      23.623 -16.405   0.029  0.00  0.00    -0.271 OA
ATOM      5  N   UNL d   1      25.390 -17.854  -0.382  0.00  0.00    -0.323 N 
ATOM      6  H   UNL d   1      25.626 -18.721  -0.844  0.00  0.00     0.169 HD
BRANCH   5   7
ATOM      7  C   UNL d   1      26.359 -16.825  -0.436  0.00  0.00     0.075 A 
ATOM      8  C   UNL d   1      27.287 -16.692   0.605  0.00  0.00     0.034 A 
ATOM      9  C   UNL d   1      28.292 -15.727   0.499  0.00  0.00     0.022 A 
ATOM     10  C   UNL d   1      28.301 -14.896  -0.611  0.00  0.00     0.118 A 
ATOM     11  N   UNL d   1      27.384 -14.948  -1.594  0.00  0.00    -0.246 NA
ATOM     12  C   UNL d   1      26.444 -15.913  -1.495  0.00  0.00     0.152 A 
ATOM     13 CL   UNL d   1      25.205 -15.742  -2.687  0.00  0.00    -0.060 Cl
ENDBRANCH   5   7
ENDBRANCH   2   3
BRANCH   2  14
ATOM     14  N   UNL d   1      21.839 -18.497   0.607  0.00  0.00    -0.377 N 
ATOM     15  H   UNL d   1      21.783 -17.531   0.940  0.00  0.00     0.160 HD
BRANCH  14  16
ATOM     16  C   UNL d   1      20.701 -19.271   0.772  0.00  0.00     0.028 A 
ATOM     17  C   UNL d   1      19.907 -19.729  -0.284  0.00  0.00     0.032 A 
ATOM     18  C   UNL d   1      18.748 -20.479  -0.145  0.00  0.00     0.044 A 
ATOM     19  C   UNL d   1      18.356 -20.850   1.110  0.00  0.00     0.116 A 
ATOM     20  F   UNL d   1      17.241 -21.575   1.250  0.00  0.00    -0.206 F 
ATOM     21  C   UNL d   1      19.115 -20.472   2.210  0.00  0.00     0.044 A 
ATOM     22  C   UNL d   1      20.280 -19.688   2.045  0.00  0.00     0.032 A 
ENDBRANCH  14  16
ENDBRANCH   2  14
TORSDOF 4
ENDMDL
MODEL 2
REMARK VINA RESULT:    -7.058      1.291      2.096
REMARK INTER + INTRA:          -9.433
REMARK INTER:                  -8.251
REMARK INTRA:                  -1.182
REMARK CONF_INDEPENDENT:        1.193
REMARK UNBOUND:                -1.182
REMARK  4 active torsions:
REMARK  status: ('A' for Active; 'I' for Inactive)
REMARK    1  A    between atoms: C_2  and  C_11 
REMARK    2  A    between atoms: C_2  and  N_3 
REMARK    3  A    between atoms: N_3  and  C_4 
REMARK       I    between atoms: C_11  and  N_13 
REMARK    4  A    between atoms: N_13  and  C_14 
ROOT
ATOM      1  C   UNL d   1      22.663 -19.161  -1.652  0.00  0.00     0.042 C 
ATOM      2  C   UNL d   1      22.988 -18.587  -0.284  0.00  0.00     0.170 C 
ENDROOT
BRANCH   2   3
ATOM      3  C   UNL d   1      23.684 -17.223  -0.534  0.00  0.00     0.244 C 
ATOM      4  O   UNL d   1      23.190 -16.173  -0.145  0.00  0.00    -0.271 OA
ATOM      5  N   UNL d   1      24.876 -17.296  -1.280  0.00  0.00    -0.323 N 
ATOM      6  H   UNL d   1      25.056 -18.113  -1.848  0.00  0.00     0.169 HD
BRANCH   5   7
ATOM      7  C   UNL d   1      25.566 -16.114  -1.639  0.00  0.00     0.075 A 
ATOM      8  C   UNL d   1      25.165 -15.395  -2.772  0.00  0.00     0.034 A 
ATOM      9  C   UNL d   1      25.798 -14.185  -3.068  0.00  0.00     0.022 A 
ATOM     10  C   UNL d   1      26.842 -13.766  -2.257  0.00  0.00     0.118 A 
ATOM     11  N   UNL d   1      27.300 -14.466  -1.203  0.00  0.00    -0.246 NA
ATOM     12  C   UNL d   1      26.650 -15.613  -0.909  0.00  0.00     0.152 A 
ATOM     13 CL   UNL d   1      27.460 -16.526   0.314  0.00  0.00    -0.060 Cl
ENDBRANCH   5   7
ENDBRANCH   2   3
BRANCH   2  14
ATOM     14  N   UNL d   1      21.810 -18.432   0.624  0.00  0.00    -0.377 N 
ATOM     15  H   UNL d   1      21.766 -17.504   1.055  0.00  0.00     0.160 HD
BRANCH  14  16
ATOM     16  C   UNL d   1      20.695 -19.238   0.785  0.00  0.00     0.028 A 
ATOM     17  C   UNL d   1      20.236 -19.701   2.023  0.00  0.00     0.032 A 
ATOM     18  C   UNL d   1      19.140 -20.531   2.209  0.00  0.00     0.044 A 
ATOM     19  C   UNL d   1      18.408 -20.903   1.116  0.00  0.00     0.116 A 
ATOM     20  F   UNL d   1      17.350 -21.701   1.290  0.00  0.00    -0.206 F 
ATOM     21  C   UNL d   1      18.773 -20.450  -0.145  0.00  0.00     0.044 A 
ATOM     22  C   UNL d   1      19.907 -19.622  -0.312  0.00  0.00     0.032 A 
ENDBRANCH  14  16
ENDBRANCH   2  14
TORSDOF 4
ENDMDL
MODEL 3
REMARK VINA RESULT:    -6.346      2.088      2.708
REMARK INTER + INTRA:          -8.644
REMARK INTER:                  -7.539
REMARK INTRA:                  -1.104
REMARK CONF_INDEPENDENT:        1.193
REMARK UNBOUND:                -1.104
REMARK  4 active torsions:
REMARK  status: ('A' for Active; 'I' for Inactive)
REMARK    1  A    between atoms: C_2  and  C_11 
REMARK    2  A    between atoms: C_2  and  N_3 
REMARK    3  A    between atoms: N_3  and  C_4 
REMARK       I    between atoms: C_11  and  N_13 
REMARK    4  A    between atoms: N_13  and  C_14 
ROOT
ATOM      1  C   UNL d   1      24.598 -18.169   0.308  0.00  0.00     0.042 C 
ATOM      2  C   UNL d   1      23.615 -17.442  -0.593  0.00  0.00     0.170 C 
ENDROOT
BRANCH   2   3
ATOM      3  C   UNL d   1      24.450 -16.825  -1.745  0.00  0.00     0.244 C 
ATOM      4  O   UNL d   1      24.701 -17.458  -2.762  0.00  0.00    -0.271 OA
ATOM      5  N   UNL d   1      24.928 -15.524  -1.497  0.00  0.00    -0.323 N 
ATOM      6  H   UNL d   1      24.980 -15.189  -0.545  0.00  0.00     0.169 HD
BRANCH   5   7
ATOM      7  C   UNL d   1      25.764 -14.880  -2.440  0.00  0.00     0.075 A 
ATOM      8  C   UNL d   1      25.196 -14.055  -3.419  0.00  0.00     0.034 A 
ATOM      9  C   UNL d   1      26.037 -13.358  -4.291  0.00  0.00     0.022 A 
ATOM     10  C   UNL d   1      27.407 -13.552  -4.189  0.00  0.00     0.118 A 
ATOM     11  N   UNL d   1      27.982 -14.390  -3.308  0.00  0.00    -0.246 NA
ATOM     12  C   UNL d   1      27.156 -15.025  -2.448  0.00  0.00     0.152 A 
ATOM     13 CL   UNL d   1      27.980 -16.229  -1.522  0.00  0.00    -0.060 Cl
ENDBRANCH   5   7
ENDBRANCH   2   3
BRANCH   2  14
ATOM     14  N   UNL d   1      22.508 -18.295  -1.127  0.00  0.00    -0.377 N 
ATOM     15  H   UNL d   1      22.707 -18.655  -2.064  0.00  0.00     0.160 HD
BRANCH  14  16
ATOM     16  C   UNL d   1      21.407 -18.835  -0.482  0.00  0.00     0.028 A 
ATOM     17  C   UNL d   1      20.282 -19.339  -1.144  0.00  0.00     0.032 A 
ATOM     18  C   UNL d   1      19.156 -19.858  -0.522  0.00  0.00     0.044 A 
ATOM     19  C   UNL d   1      19.138 -19.935   0.842  0.00  0.00     0.116 A 
ATOM     20  F   UNL d   1      18.056 -20.436   1.446  0.00  0.00    -0.206 F 
ATOM     21  C   UNL d   1      20.235 -19.495   1.572  0.00  0.00     0.044 A 
ATOM     22  C   UNL d   1      21.363 -18.950   0.917  0.00  0.00     0.032 A 
ENDBRANCH  14  16
ENDBRANCH   2  14
TORSDOF 4
ENDMDL
MODEL 4
REMARK VINA RESULT:    -6.073      3.797      5.432
REMARK INTER + INTRA:          -7.943
REMARK INTER:                  -7.266
REMARK INTRA:                  -0.677
REMARK CONF_INDEPENDENT:        1.193
REMARK UNBOUND:                -0.677
REMARK  4 active torsions:
REMARK  status: ('A' for Active; 'I' for Inactive)
REMARK    1  A    between atoms: C_2  and  C_11 
REMARK    2  A    between atoms: C_2  and  N_3 
REMARK    3  A    between atoms: N_3  and  C_4 
REMARK       I    between atoms: C_11  and  N_13 
REMARK    4  A    between atoms: N_13  and  C_14 
ROOT
ATOM      1  C   UNL d   1      28.731 -16.611  -0.146  0.00  0.00     0.042 C 
ATOM      2  C   UNL d   1      27.294 -16.513   0.337  0.00  0.00     0.170 C 
ENDROOT
BRANCH   2   3
ATOM      3  C   UNL d   1      27.142 -15.109   0.979  0.00  0.00     0.244 C 
ATOM      4  O   UNL d   1      26.476 -14.231   0.446  0.00  0.00    -0.271 OA
ATOM      5  N   UNL d   1      27.867 -14.923   2.172  0.00  0.00    -0.323 N 
ATOM      6  H   UNL d   1      28.641 -15.538   2.382  0.00  0.00     0.169 HD
BRANCH   5   7
ATOM      7  C   UNL d   1      27.870 -13.663   2.815  0.00  0.00     0.075 A 
ATOM      8  C   UNL d   1      27.881 -12.493   2.044  0.00  0.00     0.034 A 
ATOM      9  C   UNL d   1      27.797 -11.255   2.688  0.00  0.00     0.022 A 
ATOM     10  C   UNL d   1      27.764 -11.228   4.074  0.00  0.00     0.118 A 
ATOM     11  N   UNL d   1      27.825 -12.328   4.847  0.00  0.00    -0.246 NA
ATOM     12  C   UNL d   1      27.864 -13.517   4.207  0.00  0.00     0.152 A 
ATOM     13 CL   UNL d   1      28.161 -14.830   5.289  0.00  0.00    -0.060 Cl
ENDBRANCH   5   7
ENDBRANCH   2   3
BRANCH   2  14
ATOM     14  N   UNL d   1      26.263 -16.735  -0.723  0.00  0.00    -0.377 N 
ATOM     15  H   UNL d   1      26.654 -16.692  -1.667  0.00  0.00     0.160 HD
BRANCH  14  16
ATOM     16  C   UNL d   1      24.961 -17.199  -0.618  0.00  0.00     0.028 A 
ATOM     17  C   UNL d   1      23.829 -16.388  -0.748  0.00  0.00     0.032 A 
ATOM     18  C   UNL d   1      22.517 -16.821  -0.619  0.00  0.00     0.044 A 
ATOM     19  C   UNL d   1      22.286 -18.149  -0.393  0.00  0.00     0.116 A 
ATOM     20  F   UNL d   1      21.024 -18.572  -0.270  0.00  0.00    -0.206 F 
ATOM     21  C   UNL d   1      23.356 -19.029  -0.295  0.00  0.00     0.044 A 
ATOM     22  C   UNL d   1      24.685 -18.560  -0.407  0.00  0.00     0.032 A 
ENDBRANCH  14  16
ENDBRANCH   2  14
TORSDOF 4
ENDMDL
MODEL 5
REMARK VINA RESULT:    -6.041      5.457      8.783
REMARK INTER + INTRA:          -8.016
REMARK INTER:                  -7.234
REMARK INTRA:                  -0.782
REMARK CONF_INDEPENDENT:        1.193
REMARK UNBOUND:                -0.782
REMARK  4 active torsions:
REMARK  status: ('A' for Active; 'I' for Inactive)
REMARK    1  A    between atoms: C_2  and  C_11 
REMARK    2  A    between atoms: C_2  and  N_3 
REMARK    3  A    between atoms: N_3  and  C_4 
REMARK       I    between atoms: C_11  and  N_13 
REMARK    4  A    between atoms: N_13  and  C_14 
ROOT
ATOM      1  C   UNL d   1      30.135 -14.425   1.544  0.00  0.00     0.042 C 
ATOM      2  C   UNL d   1      28.885 -14.055   2.322  0.00  0.00     0.170 C 
ENDROOT
BRANCH   2   3
ATOM      3  C   UNL d   1      27.681 -14.557   1.483  0.00  0.00     0.244 C 
ATOM      4  O   UNL d   1      26.653 -13.900   1.384  0.00  0.00    -0.271 OA
ATOM      5  N   UNL d   1      27.852 -15.830   0.906  0.00  0.00    -0.323 N 
ATOM      6  H   UNL d   1      28.553 -16.454   1.282  0.00  0.00     0.169 HD
BRANCH   5   7
ATOM      7  C   UNL d   1      26.797 -16.431   0.179  0.00  0.00     0.075 A 
ATOM      8  C   UNL d   1      26.274 -17.658   0.605  0.00  0.00     0.034 A 
ATOM      9  C   UNL d   1      25.177 -18.200  -0.070  0.00  0.00     0.022 A 
ATOM     10  C   UNL d   1      24.680 -17.527  -1.176  0.00  0.00     0.118 A 
ATOM     11  N   UNL d   1      25.203 -16.384  -1.656  0.00  0.00    -0.246 NA
ATOM     12  C   UNL d   1      26.237 -15.855  -0.967  0.00  0.00     0.152 A 
ATOM     13 CL   UNL d   1      26.958 -14.522  -1.796  0.00  0.00    -0.060 Cl
ENDBRANCH   5   7
ENDBRANCH   2   3
BRANCH   2  14
ATOM     14  N   UNL d   1      28.833 -14.595   3.716  0.00  0.00    -0.377 N 
ATOM     15  H   UNL d   1      29.126 -15.575   3.768  0.00  0.00     0.160 HD
BRANCH  14  16
ATOM     16  C   UNL d   1      28.677 -13.936   4.924  0.00  0.00     0.028 A 
ATOM     17  C   UNL d   1      27.929 -12.765   5.086  0.00  0.00     0.032 A 
ATOM     18  C   UNL d   1      27.780 -12.070   6.277  0.00  0.00     0.044 A 
ATOM     19  C   UNL d   1      28.366 -12.573   7.405  0.00  0.00     0.116 A 
ATOM     20  F   UNL d   1      28.224 -11.908   8.556  0.00  0.00    -0.206 F 
ATOM     21  C   UNL d   1      29.091 -13.755   7.338  0.00  0.00     0.044 A 
ATOM     22  C   UNL d   1      29.246 -14.434   6.107  0.00  0.00     0.032 A 
ENDBRANCH  14  16
ENDBRANCH   2  14
TORSDOF 4
ENDMDL
MODEL 6
REMARK VINA RESULT:    -5.991      4.448      6.441
REMARK INTER + INTRA:          -8.129
REMARK INTER:                  -7.184
REMARK INTRA:                  -0.944
REMARK CONF_INDEPENDENT:        1.193
REMARK UNBOUND:                -0.944
REMARK  4 active torsions:
REMARK  status: ('A' for Active; 'I' for Inactive)
REMARK    1  A    between atoms: C_2  and  C_11 
REMARK    2  A    between atoms: C_2  and  N_3 
REMARK    3  A    between atoms: N_3  and  C_4 
REMARK       I    between atoms: C_11  and  N_13 
REMARK    4  A    between atoms: N_13  and  C_14 
ROOT
ATOM      1  C   UNL d   1      25.893 -12.742  -4.085  0.00  0.00     0.042 C 
ATOM      2  C   UNL d   1      25.705 -14.228  -3.836  0.00  0.00     0.170 C 
ENDROOT
BRANCH   2   3
ATOM      3  C   UNL d   1      26.674 -14.961  -4.800  0.00  0.00     0.244 C 
ATOM      4  O   UNL d   1      26.261 -15.581  -5.771  0.00  0.00    -0.271 OA
ATOM      5  N   UNL d   1      28.032 -14.897  -4.434  0.00  0.00    -0.323 N 
ATOM      6  H   UNL d   1      28.278 -14.673  -3.480  0.00  0.00     0.169 HD
BRANCH   5   7
ATOM      7  C   UNL d   1      29.007 -15.588  -5.191  0.00  0.00     0.075 A 
ATOM      8  C   UNL d   1      29.657 -16.698  -4.635  0.00  0.00     0.034 A 
ATOM      9  C   UNL d   1      30.556 -17.423  -5.422  0.00  0.00     0.022 A 
ATOM     10  C   UNL d   1      30.814 -16.984  -6.711  0.00  0.00     0.118 A 
ATOM     11  N   UNL d   1      30.263 -15.882  -7.253  0.00  0.00    -0.246 NA
ATOM     12  C   UNL d   1      29.367 -15.217  -6.492  0.00  0.00     0.152 A 
ATOM     13 CL   UNL d   1      28.898 -13.713  -7.201  0.00  0.00    -0.060 Cl
ENDBRANCH   5   7
ENDBRANCH   2   3
BRANCH   2  14
ATOM     14  N   UNL d   1      25.925 -14.658  -2.420  0.00  0.00    -0.377 N 
ATOM     15  H   UNL d   1      26.404 -13.945  -1.864  0.00  0.00     0.160 HD
BRANCH  14  16
ATOM     16  C   UNL d   1      25.398 -15.732  -1.721  0.00  0.00     0.028 A 
ATOM     17  C   UNL d   1      24.030 -15.993  -1.602  0.00  0.00     0.032 A 
ATOM     18  C   UNL d   1      23.476 -17.043  -0.884  0.00  0.00     0.044 A 
ATOM     19  C   UNL d   1      24.315 -17.933  -0.274  0.00  0.00     0.116 A 
ATOM     20  F   UNL d   1      23.787 -18.948   0.417  0.00  0.00    -0.206 F 
ATOM     21  C   UNL d   1      25.690 -17.768  -0.381  0.00  0.00     0.044 A 
ATOM     22  C   UNL d   1      26.230 -16.677  -1.100  0.00  0.00     0.032 A 
ENDBRANCH  14  16
ENDBRANCH   2  14
TORSDOF 4
ENDMDL
MODEL 7
REMARK VINA RESULT:    -5.947      3.089      4.881
REMARK INTER + INTRA:          -8.181
REMARK INTER:                  -7.140
REMARK INTRA:                  -1.041
REMARK CONF_INDEPENDENT:        1.193
REMARK UNBOUND:                -1.041
REMARK  4 active torsions:
REMARK  status: ('A' for Active; 'I' for Inactive)
REMARK    1  A    between atoms: C_2  and  C_11 
REMARK    2  A    between atoms: C_2  and  N_3 
REMARK    3  A    between atoms: N_3  and  C_4 
REMARK       I    between atoms: C_11  and  N_13 
REMARK    4  A    between atoms: N_13  and  C_14 
ROOT
ATOM      1  C   UNL d   1      27.813 -15.236   1.070  0.00  0.00     0.042 C 
ATOM      2  C   UNL d   1      26.751 -15.424   0.001  0.00  0.00     0.170 C 
ENDROOT
BRANCH   2   3
ATOM      3  C   UNL d   1      27.394 -14.981  -1.339  0.00  0.00     0.244 C 
ATOM      4  O   UNL d   1      27.778 -13.832  -1.514  0.00  0.00    -0.271 OA
ATOM      5  N   UNL d   1      27.444 -15.981  -2.330  0.00  0.00    -0.323 N 
ATOM      6  H   UNL d   1      26.830 -16.781  -2.256  0.00  0.00     0.169 HD
BRANCH   5   7
ATOM      7  C   UNL d   1      27.939 -15.681  -3.620  0.00  0.00     0.075 A 
ATOM      8  C   UNL d   1      29.296 -15.882  -3.905  0.00  0.00     0.034 A 
ATOM      9  C   UNL d   1      29.756 -15.664  -5.206  0.00  0.00     0.022 A 
ATOM     10  C   UNL d   1      28.861 -15.200  -6.158  0.00  0.00     0.118 A 
ATOM     11  N   UNL d   1      27.568 -14.929  -5.903  0.00  0.00    -0.246 NA
ATOM     12  C   UNL d   1      27.132 -15.184  -4.650  0.00  0.00     0.152 A 
ATOM     13 CL   UNL d   1      25.530 -14.593  -4.385  0.00  0.00    -0.060 Cl
ENDBRANCH   5   7
ENDBRANCH   2   3
BRANCH   2  14
ATOM     14  N   UNL d   1      26.202 -16.812  -0.096  0.00  0.00    -0.377 N 
ATOM     15  H   UNL d   1      26.876 -17.523   0.200  0.00  0.00     0.160 HD
BRANCH  14  16
ATOM     16  C   UNL d   1      24.901 -17.245  -0.299  0.00  0.00     0.028 A 
ATOM     17  C   UNL d   1      24.489 -18.574  -0.159  0.00  0.00     0.032 A 
ATOM     18  C   UNL d   1      23.201 -19.039  -0.383  0.00  0.00     0.044 A 
ATOM     19  C   UNL d   1      22.231 -18.139  -0.725  0.00  0.00     0.116 A 
ATOM     20  F   UNL d   1      20.988 -18.581  -0.940  0.00  0.00    -0.206 F 
ATOM     21  C   UNL d   1      22.550 -16.792  -0.842  0.00  0.00     0.044 A 
ATOM     22  C   UNL d   1      23.875 -16.346  -0.629  0.00  0.00     0.032 A 
ENDBRANCH  14  16
ENDBRANCH   2  14
TORSDOF 4
ENDMDL
MODEL 8
REMARK VINA RESULT:    -5.760      4.250      6.195
REMARK INTER + INTRA:          -8.023
REMARK INTER:                  -6.953
REMARK INTRA:                  -1.070
REMARK CONF_INDEPENDENT:        1.193
REMARK UNBOUND:                -1.070
REMARK  4 active torsions:
REMARK  status: ('A' for Active; 'I' for Inactive)
REMARK    1  A    between atoms: C_2  and  C_11 
REMARK    2  A    between atoms: C_2  and  N_3 
REMARK    3  A    between atoms: N_3  and  C_4 
REMARK       I    between atoms: C_11  and  N_13 
REMARK    4  A    between atoms: N_13  and  C_14 
ROOT
ATOM      1  C   UNL d   1      30.685 -17.192  -0.228  0.00  0.00     0.042 C 
ATOM      2  C   UNL d   1      29.293 -16.720  -0.608  0.00  0.00     0.170 C 
ENDROOT
BRANCH   2   3
ATOM      3  C   UNL d   1      29.275 -16.610  -2.155  0.00  0.00     0.244 C 
ATOM      4  O   UNL d   1      29.820 -17.448  -2.862  0.00  0.00    -0.271 OA
ATOM      5  N   UNL d   1      28.640 -15.458  -2.659  0.00  0.00    -0.323 N 
ATOM      6  H   UNL d   1      28.511 -14.660  -2.053  0.00  0.00     0.169 HD
BRANCH   5   7
ATOM      7  C   UNL d   1      28.622 -15.205  -4.050  0.00  0.00     0.075 A 
ATOM      8  C   UNL d   1      29.824 -14.944  -4.721  0.00  0.00     0.034 A 
ATOM      9  C   UNL d   1      29.804 -14.779  -6.109  0.00  0.00     0.022 A 
ATOM     10  C   UNL d   1      28.584 -14.825  -6.766  0.00  0.00     0.118 A 
ATOM     11  N   UNL d   1      27.404 -15.002  -6.145  0.00  0.00    -0.246 NA
ATOM     12  C   UNL d   1      27.446 -15.199  -4.809  0.00  0.00     0.152 A 
ATOM     13 CL   UNL d   1      25.871 -15.193  -4.099  0.00  0.00    -0.060 Cl
ENDBRANCH   5   7
ENDBRANCH   2   3
BRANCH   2  14
ATOM     14  N   UNL d   1      28.182 -17.592  -0.117  0.00  0.00    -0.377 N 
ATOM     15  H   UNL d   1      28.497 -18.277   0.575  0.00  0.00     0.160 HD
BRANCH  14  16
ATOM     16  C   UNL d   1      26.811 -17.468  -0.278  0.00  0.00     0.028 A 
ATOM     17  C   UNL d   1      25.892 -18.475   0.032  0.00  0.00     0.032 A 
ATOM     18  C   UNL d   1      24.519 -18.386  -0.145  0.00  0.00     0.044 A 
ATOM     19  C   UNL d   1      23.995 -17.216  -0.617  0.00  0.00     0.116 A 
ATOM     20  F   UNL d   1      22.672 -17.124  -0.789  0.00  0.00    -0.206 F 
ATOM     21  C   UNL d   1      24.837 -16.151  -0.908  0.00  0.00     0.044 A 
ATOM     22  C   UNL d   1      26.236 -16.273  -0.739  0.00  0.00     0.032 A 
ENDBRANCH  14  16
ENDBRANCH   2  14
TORSDOF 4
ENDMDL
MODEL 9
REMARK VINA RESULT:    -5.742      3.134      4.657
REMARK INTER + INTRA:          -7.937
REMARK INTER:                  -6.935
REMARK INTRA:                  -1.002
REMARK CONF_INDEPENDENT:        1.193
REMARK UNBOUND:                -1.002
REMARK  4 active torsions:
REMARK  status: ('A' for Active; 'I' for Inactive)
REMARK    1  A    between atoms: C_2  and  C_11 
REMARK    2  A    between atoms: C_2  and  N_3 
REMARK    3  A    between atoms: N_3  and  C_4 
REMARK       I    between atoms: C_11  and  N_13 
REMARK    4  A    between atoms: N_13  and  C_14 
ROOT
ATOM      1  C   UNL d   1      28.497 -17.543  -0.468  0.00  0.00     0.042 C 
ATOM      2  C   UNL d   1      27.343 -16.825   0.210  0.00  0.00     0.170 C 
ENDROOT
BRANCH   2   3
ATOM      3  C   UNL d   1      26.884 -15.711  -0.767  0.00  0.00     0.244 C 
ATOM      4  O   UNL d   1      26.527 -14.612  -0.360  0.00  0.00    -0.271 OA
ATOM      5  N   UNL d   1      26.862 -16.086  -2.124  0.00  0.00    -0.323 N 
ATOM      6  H   UNL d   1      26.840 -17.067  -2.365  0.00  0.00     0.169 HD
BRANCH   5   7
ATOM      7  C   UNL d   1      26.392 -15.182  -3.105  0.00  0.00     0.075 A 
ATOM      8  C   UNL d   1      25.105 -14.641  -2.988  0.00  0.00     0.034 A 
ATOM      9  C   UNL d   1      24.683 -13.685  -3.916  0.00  0.00     0.022 A 
ATOM     10  C   UNL d   1      25.536 -13.348  -4.956  0.00  0.00     0.118 A 
ATOM     11  N   UNL d   1      26.749 -13.900  -5.140  0.00  0.00    -0.246 NA
ATOM     12  C   UNL d   1      27.156 -14.792  -4.211  0.00  0.00     0.152 A 
ATOM     13 CL   UNL d   1      28.619 -15.589  -4.669  0.00  0.00    -0.060 Cl
ENDBRANCH   5   7
ENDBRANCH   2   3
BRANCH   2  14
ATOM     14  N   UNL d   1      26.199 -17.707   0.597  0.00  0.00    -0.377 N 
ATOM     15  H   UNL d   1      26.387 -18.242   1.449  0.00  0.00     0.160 HD
BRANCH  14  16
ATOM     16  C   UNL d   1      24.896 -17.736   0.129  0.00  0.00     0.028 A 
ATOM     17  C   UNL d   1      24.138 -16.594  -0.148  0.00  0.00     0.032 A 
ATOM     18  C   UNL d   1      22.823 -16.595  -0.590  0.00  0.00     0.044 A 
ATOM     19  C   UNL d   1      22.212 -17.795  -0.824  0.00  0.00     0.116 A 
ATOM     20  F   UNL d   1      20.946 -17.802  -1.252  0.00  0.00    -0.206 F 
ATOM     21  C   UNL d   1      22.912 -18.977  -0.616  0.00  0.00     0.044 A 
ATOM     22  C   UNL d   1      24.244 -18.950  -0.144  0.00  0.00     0.032 A 
ENDBRANCH  14  16
ENDBRANCH   2  14
TORSDOF 4
ENDMDL
