MODEL 1
REMARK VINA RESULT:    -8.850      0.000      0.000
REMARK INTER + INTRA:         -12.318
REMARK INTER:                 -10.640
REMARK INTRA:                  -1.678
REMARK CONF_INDEPENDENT:        1.790
REMARK UNBOUND:                -1.678
REMARK  6 active torsions:
REMARK  status: ('A' for Active; 'I' for Inactive)
REMARK    1  A    between atoms: N_4  and  C_5 
REMARK    2  A    between atoms: C_7  and  N_8 
REMARK    3  A    between atoms: N_11  and  C_12 
REMARK    4  A    between atoms: C_12  and  C_13 
REMARK    5  A    between atoms: C_22  and  N_23 
REMARK    6  A    between atoms: C_24  and  N_25 
ROOT
ATOM      1  C   UNL d   1      27.020  -9.424   0.664  0.00  0.00     0.182 A 
ATOM      2  N   UNL d   1      27.344 -10.691   0.245  0.00  0.00    -0.042 NA
ATOM      3  C   UNL d   1      27.461 -11.677   1.153  0.00  0.00     0.728 A 
ATOM      4  N   UNL d   1      27.301 -11.476   2.461  0.00  0.00    -0.043 NA
ATOM      5  C   UNL d   1      27.015 -10.230   2.892  0.00  0.00     0.177 A 
ATOM      6  C   UNL d   1      26.813  -9.170   2.017  0.00  0.00     0.195 A 
ENDROOT
BRANCH   3   7
ATOM      7  N   UNL d   1      27.727 -12.962   0.744  0.00  0.00    -0.211 N 
ATOM      8  C   UNL d   1      28.892 -13.241  -0.096  0.00  0.00     0.169 C 
ATOM      9  C   UNL d   1      29.749 -14.364   0.559  0.00  0.00     0.255 C 
ATOM     10  N   UNL d   1      28.887 -15.596   0.857  0.00  0.00    -0.064 N 
ATOM     11  C   UNL d   1      27.780 -15.149   1.828  0.00  0.00     0.255 C 
ATOM     12  H   UNL d   1      29.464 -16.287   1.355  0.00  0.00     0.280 HD
ATOM     13  C   UNL d   1      26.888 -14.079   1.152  0.00  0.00     0.169 C 
BRANCH  10  14
ATOM     14  C   UNL d   1      28.431 -16.278  -0.425  0.00  0.00     0.273 C 
BRANCH  14  15
ATOM     15  C   UNL d   1      26.994 -16.710  -0.449  0.00  0.00    -0.033 C 
ATOM     16  C   UNL d   1      26.542 -17.750   0.367  0.00  0.00     0.009 C 
ATOM     17  C   UNL d   1      25.231 -18.212   0.231  0.00  0.00     0.001 C 
ATOM     18  C   UNL d   1      24.329 -17.559  -0.611  0.00  0.00     0.000 C 
ATOM     19  C   UNL d   1      24.756 -16.509  -1.401  0.00  0.00     0.001 C 
ATOM     20  C   UNL d   1      26.094 -16.157  -1.374  0.00  0.00     0.009 C 
ENDBRANCH  14  15
ENDBRANCH  10  14
ENDBRANCH   3   7
BRANCH   1  21
ATOM     21  N   UNL d   1      26.975  -8.451  -0.309  0.00  0.00    -0.358 N 
ATOM     22  C   UNL d   1      28.172  -7.734  -0.793  0.00  0.00     0.156 C 
ATOM     23  C   UNL d   1      28.300  -7.884  -2.326  0.00  0.00     0.136 C 
ATOM     24  O   UNL d   1      27.073  -7.518  -2.991  0.00  0.00    -0.378 OA
ATOM     25  C   UNL d   1      29.437  -7.037  -2.880  0.00  0.00     0.041 C 
ATOM     26  C   UNL d   1      25.939  -8.272  -2.503  0.00  0.00     0.136 C 
ATOM     27  C   UNL d   1      25.739  -8.069  -0.989  0.00  0.00     0.156 C 
ATOM     28  C   UNL d   1      26.109  -9.760  -2.808  0.00  0.00     0.041 C 
ENDBRANCH   1  21
BRANCH   5  29
ATOM     29  N   UNL d   1      27.029 -10.105   4.265  0.00  0.00    -0.381 N 
ATOM     30  H   UNL d   1      27.327 -10.886   4.828  0.00  0.00     0.157 HD
ATOM     31  H   UNL d   1      26.580  -9.307   4.712  0.00  0.00     0.157 HD
ENDBRANCH   5  29
BRANCH   6  32
ATOM     32  N   UNL d   1      26.301  -7.887   2.508  0.00  0.00    -0.108 N 
ATOM     33  O   UNL d   1      26.660  -7.457   3.605  0.00  0.00    -0.532 OA
ATOM     34  O   UNL d   1      25.531  -7.244   1.768  0.00  0.00    -0.532 OA
ENDBRANCH   6  32
TORSDOF 6
ENDMDL
MODEL 2
REMARK VINA RESULT:    -8.848      4.950      6.850
REMARK INTER + INTRA:         -12.166
REMARK INTER:                 -10.638
REMARK INTRA:                  -1.528
REMARK CONF_INDEPENDENT:        1.790
REMARK UNBOUND:                -1.528
REMARK  6 active torsions:
REMARK  status: ('A' for Active; 'I' for Inactive)
REMARK    1  A    between atoms: N_4  and  C_5 
REMARK    2  A    between atoms: C_7  and  N_8 
REMARK    3  A    between atoms: N_11  and  C_12 
REMARK    4  A    between atoms: C_12  and  C_13 
REMARK    5  A    between atoms: C_22  and  N_23 
REMARK    6  A    between atoms: C_24  and  N_25 
ROOT
ATOM      1  C   UNL d   1      27.764 -14.988  -2.277  0.00  0.00     0.182 A 
ATOM      2  N   UNL d   1      26.519 -15.564  -2.207  0.00  0.00    -0.042 NA
ATOM      3  C   UNL d   1      26.289 -16.532  -1.301  0.00  0.00     0.728 A 
ATOM      4  N   UNL d   1      27.231 -16.985  -0.474  0.00  0.00    -0.043 NA
ATOM      5  C   UNL d   1      28.469 -16.454  -0.553  0.00  0.00     0.177 A 
ATOM      6  C   UNL d   1      28.773 -15.407  -1.414  0.00  0.00     0.195 A 
ENDROOT
BRANCH   3   7
ATOM      7  N   UNL d   1      25.033 -17.076  -1.179  0.00  0.00    -0.211 N 
ATOM      8  C   UNL d   1      24.853 -18.381  -0.543  0.00  0.00     0.169 C 
ATOM      9  C   UNL d   1      23.797 -18.265   0.596  0.00  0.00     0.255 C 
ATOM     10  N   UNL d   1      22.498 -17.647   0.066  0.00  0.00    -0.064 N 
ATOM     11  C   UNL d   1      22.849 -16.247  -0.468  0.00  0.00     0.255 C 
ATOM     12  H   UNL d   1      21.852 -17.516   0.855  0.00  0.00     0.280 HD
ATOM     13  C   UNL d   1      23.849 -16.367  -1.643  0.00  0.00     0.169 C 
BRANCH  10  14
ATOM     14  C   UNL d   1      21.792 -18.585  -0.902  0.00  0.00     0.273 C 
BRANCH  14  15
ATOM     15  C   UNL d   1      20.656 -19.375  -0.320  0.00  0.00    -0.033 C 
ATOM     16  C   UNL d   1      19.541 -19.708  -1.091  0.00  0.00     0.009 C 
ATOM     17  C   UNL d   1      18.447 -20.332  -0.489  0.00  0.00     0.001 C 
ATOM     18  C   UNL d   1      18.508 -20.750   0.841  0.00  0.00     0.000 C 
ATOM     19  C   UNL d   1      19.618 -20.454   1.608  0.00  0.00     0.001 C 
ATOM     20  C   UNL d   1      20.633 -19.699   1.047  0.00  0.00     0.009 C 
ENDBRANCH  14  15
ENDBRANCH  10  14
ENDBRANCH   3   7
BRANCH   1  21
ATOM     21  N   UNL d   1      27.949 -14.048  -3.265  0.00  0.00    -0.358 N 
ATOM     22  C   UNL d   1      28.699 -14.315  -4.508  0.00  0.00     0.156 C 
ATOM     23  C   UNL d   1      27.816 -14.011  -5.740  0.00  0.00     0.136 C 
ATOM     24  O   UNL d   1      27.243 -12.690  -5.659  0.00  0.00    -0.378 OA
ATOM     25  C   UNL d   1      28.602 -14.134  -7.038  0.00  0.00     0.041 C 
ATOM     26  C   UNL d   1      26.492 -12.492  -4.439  0.00  0.00     0.136 C 
ATOM     27  C   UNL d   1      27.376 -12.705  -3.195  0.00  0.00     0.156 C 
ATOM     28  C   UNL d   1      25.290 -13.433  -4.386  0.00  0.00     0.041 C 
ENDBRANCH   1  21
BRANCH   5  29
ATOM     29  N   UNL d   1      29.398 -17.103   0.232  0.00  0.00    -0.381 N 
ATOM     30  H   UNL d   1      30.119 -16.568   0.688  0.00  0.00     0.157 HD
ATOM     31  H   UNL d   1      29.464 -18.120   0.213  0.00  0.00     0.157 HD
ENDBRANCH   5  29
BRANCH   6  32
ATOM     32  N   UNL d   1      30.066 -14.721  -1.322  0.00  0.00    -0.108 N 
ATOM     33  O   UNL d   1      31.021 -15.272  -0.773  0.00  0.00    -0.532 OA
ATOM     34  O   UNL d   1      30.166 -13.594  -1.846  0.00  0.00    -0.532 OA
ENDBRANCH   6  32
TORSDOF 6
ENDMDL
MODEL 3
REMARK VINA RESULT:    -8.640      0.904      1.890
REMARK INTER + INTRA:         -12.170
REMARK INTER:                 -10.429
REMARK INTRA:                  -1.741
REMARK CONF_INDEPENDENT:        1.790
REMARK UNBOUND:                -1.741
REMARK  6 active torsions:
REMARK  status: ('A' for Active; 'I' for Inactive)
REMARK    1  A    between atoms: N_4  and  C_5 
REMARK    2  A    between atoms: C_7  and  N_8 
REMARK    3  A    between atoms: N_11  and  C_12 
REMARK    4  A    between atoms: C_12  and  C_13 
REMARK    5  A    between atoms: C_22  and  N_23 
REMARK    6  A    between atoms: C_24  and  N_25 
ROOT
ATOM      1  C   UNL d   1      27.126  -9.423   0.675  0.00  0.00     0.182 A 
ATOM      2  N   UNL d   1      27.441 -10.695   0.261  0.00  0.00    -0.042 NA
ATOM      3  C   UNL d   1      27.474 -11.694   1.162  0.00  0.00     0.728 A 
ATOM      4  N   UNL d   1      27.239 -11.503   2.460  0.00  0.00    -0.043 NA
ATOM      5  C   UNL d   1      26.961 -10.254   2.888  0.00  0.00     0.177 A 
ATOM      6  C   UNL d   1      26.843  -9.179   2.016  0.00  0.00     0.195 A 
ENDROOT
BRANCH   3   7
ATOM      7  N   UNL d   1      27.729 -12.981   0.753  0.00  0.00    -0.211 N 
ATOM      8  C   UNL d   1      28.885 -13.268  -0.098  0.00  0.00     0.169 C 
ATOM      9  C   UNL d   1      29.741 -14.395   0.552  0.00  0.00     0.255 C 
ATOM     10  N   UNL d   1      28.876 -15.621   0.861  0.00  0.00    -0.064 N 
ATOM     11  C   UNL d   1      27.780 -15.166   1.841  0.00  0.00     0.255 C 
ATOM     12  H   UNL d   1      29.453 -16.314   1.355  0.00  0.00     0.280 HD
ATOM     13  C   UNL d   1      26.888 -14.093   1.171  0.00  0.00     0.169 C 
BRANCH  10  14
ATOM     14  C   UNL d   1      28.404 -16.304  -0.415  0.00  0.00     0.273 C 
BRANCH  14  15
ATOM     15  C   UNL d   1      26.962 -16.718  -0.429  0.00  0.00    -0.033 C 
ATOM     16  C   UNL d   1      26.511 -17.779   0.359  0.00  0.00     0.009 C 
ATOM     17  C   UNL d   1      25.192 -18.222   0.231  0.00  0.00     0.001 C 
ATOM     18  C   UNL d   1      24.284 -17.530  -0.573  0.00  0.00     0.000 C 
ATOM     19  C   UNL d   1      24.710 -16.459  -1.335  0.00  0.00     0.001 C 
ATOM     20  C   UNL d   1      26.052 -16.124  -1.320  0.00  0.00     0.009 C 
ENDBRANCH  14  15
ENDBRANCH  10  14
ENDBRANCH   3   7
BRANCH   1  21
ATOM     21  N   UNL d   1      27.169  -8.438  -0.286  0.00  0.00    -0.358 N 
ATOM     22  C   UNL d   1      25.963  -7.881  -0.930  0.00  0.00     0.156 C 
ATOM     23  C   UNL d   1      25.923  -6.347  -0.752  0.00  0.00     0.136 C 
ATOM     24  O   UNL d   1      27.161  -5.739  -1.175  0.00  0.00    -0.378 OA
ATOM     25  C   UNL d   1      24.772  -5.722  -1.529  0.00  0.00     0.041 C 
ATOM     26  C   UNL d   1      28.306  -6.297  -0.489  0.00  0.00     0.136 C 
ATOM     27  C   UNL d   1      28.417  -7.816  -0.724  0.00  0.00     0.156 C 
ATOM     28  C   UNL d   1      28.232  -6.009   1.009  0.00  0.00     0.041 C 
ENDBRANCH   1  21
BRANCH   5  29
ATOM     29  N   UNL d   1      26.893 -10.145   4.261  0.00  0.00    -0.381 N 
ATOM     30  H   UNL d   1      26.415  -9.360   4.671  0.00  0.00     0.157 HD
ATOM     31  H   UNL d   1      27.465 -10.748   4.851  0.00  0.00     0.157 HD
ENDBRANCH   5  29
BRANCH   6  32
ATOM     32  N   UNL d   1      26.338  -7.888   2.492  0.00  0.00    -0.108 N 
ATOM     33  O   UNL d   1      25.530  -7.251   1.814  0.00  0.00    -0.532 OA
ATOM     34  O   UNL d   1      26.723  -7.487   3.608  0.00  0.00    -0.532 OA
ENDBRANCH   6  32
TORSDOF 6
ENDMDL
MODEL 4
REMARK VINA RESULT:    -7.857      4.061      6.791
REMARK INTER + INTRA:         -11.329
REMARK INTER:                  -9.647
REMARK INTRA:                  -1.682
REMARK CONF_INDEPENDENT:        1.790
REMARK UNBOUND:                -1.682
REMARK  6 active torsions:
REMARK  status: ('A' for Active; 'I' for Inactive)
REMARK    1  A    between atoms: N_4  and  C_5 
REMARK    2  A    between atoms: C_7  and  N_8 
REMARK    3  A    between atoms: N_11  and  C_12 
REMARK    4  A    between atoms: C_12  and  C_13 
REMARK    5  A    between atoms: C_22  and  N_23 
REMARK    6  A    between atoms: C_24  and  N_25 
ROOT
ATOM      1  C   UNL d   1      26.733 -13.871  -1.679  0.00  0.00     0.182 A 
ATOM      2  N   UNL d   1      25.879 -14.865  -1.267  0.00  0.00    -0.042 NA
ATOM      3  C   UNL d   1      24.840 -15.209  -2.051  0.00  0.00     0.728 A 
ATOM      4  N   UNL d   1      24.580 -14.605  -3.211  0.00  0.00    -0.043 NA
ATOM      5  C   UNL d   1      25.390 -13.605  -3.613  0.00  0.00     0.177 A 
ATOM      6  C   UNL d   1      26.521 -13.232  -2.896  0.00  0.00     0.195 A 
ENDROOT
BRANCH   3   7
ATOM      7  N   UNL d   1      24.011 -16.241  -1.681  0.00  0.00    -0.211 N 
ATOM      8  C   UNL d   1      24.468 -17.627  -1.790  0.00  0.00     0.169 C 
ATOM      9  C   UNL d   1      24.281 -18.346  -0.420  0.00  0.00     0.255 C 
ATOM     10  N   UNL d   1      22.836 -18.202   0.072  0.00  0.00    -0.064 N 
ATOM     11  C   UNL d   1      22.560 -16.697   0.229  0.00  0.00     0.255 C 
ATOM     12  H   UNL d   1      22.767 -18.621   1.008  0.00  0.00     0.280 HD
ATOM     13  C   UNL d   1      22.681 -15.994  -1.145  0.00  0.00     0.169 C 
BRANCH  10  14
ATOM     14  C   UNL d   1      21.870 -18.982  -0.808  0.00  0.00     0.273 C 
BRANCH  14  15
ATOM     15  C   UNL d   1      20.655 -19.521  -0.111  0.00  0.00    -0.033 C 
ATOM     16  C   UNL d   1      20.636 -19.687   1.276  0.00  0.00     0.009 C 
ATOM     17  C   UNL d   1      19.541 -20.307   1.881  0.00  0.00     0.001 C 
ATOM     18  C   UNL d   1      18.408 -20.638   1.136  0.00  0.00     0.000 C 
ATOM     19  C   UNL d   1      18.402 -20.450  -0.233  0.00  0.00     0.001 C 
ATOM     20  C   UNL d   1      19.549 -19.979  -0.846  0.00  0.00     0.009 C 
ENDBRANCH  14  15
ENDBRANCH  10  14
ENDBRANCH   3   7
BRANCH   1  21
ATOM     21  N   UNL d   1      27.739 -13.528  -0.804  0.00  0.00    -0.358 N 
ATOM     22  C   UNL d   1      27.712 -12.303   0.021  0.00  0.00     0.156 C 
ATOM     23  C   UNL d   1      27.866 -12.662   1.516  0.00  0.00     0.136 C 
ATOM     24  O   UNL d   1      29.015 -13.507   1.736  0.00  0.00    -0.378 OA
ATOM     25  C   UNL d   1      27.991 -11.417   2.383  0.00  0.00     0.041 C 
ATOM     26  C   UNL d   1      28.974 -14.707   0.929  0.00  0.00     0.136 C 
ATOM     27  C   UNL d   1      28.909 -14.373  -0.573  0.00  0.00     0.156 C 
ATOM     28  C   UNL d   1      27.781 -15.578   1.318  0.00  0.00     0.041 C 
ENDBRANCH   1  21
BRANCH   5  29
ATOM     29  N   UNL d   1      24.939 -12.950  -4.739  0.00  0.00    -0.381 N 
ATOM     30  H   UNL d   1      25.386 -12.094  -5.025  0.00  0.00     0.157 HD
ATOM     31  H   UNL d   1      24.060 -13.226  -5.175  0.00  0.00     0.157 HD
ENDBRANCH   5  29
BRANCH   6  32
ATOM     32  N   UNL d   1      27.485 -12.288  -3.469  0.00  0.00    -0.108 N 
ATOM     33  O   UNL d   1      28.688 -12.553  -3.466  0.00  0.00    -0.532 OA
ATOM     34  O   UNL d   1      27.042 -11.242  -3.985  0.00  0.00    -0.532 OA
ENDBRANCH   6  32
TORSDOF 6
ENDMDL
MODEL 5
REMARK VINA RESULT:    -7.721      2.535      5.107
REMARK INTER + INTRA:         -11.076
REMARK INTER:                  -9.510
REMARK INTRA:                  -1.566
REMARK CONF_INDEPENDENT:        1.790
REMARK UNBOUND:                -1.566
REMARK  6 active torsions:
REMARK  status: ('A' for Active; 'I' for Inactive)
REMARK    1  A    between atoms: N_4  and  C_5 
REMARK    2  A    between atoms: C_7  and  N_8 
REMARK    3  A    between atoms: N_11  and  C_12 
REMARK    4  A    between atoms: C_12  and  C_13 
REMARK    5  A    between atoms: C_22  and  N_23 
REMARK    6  A    between atoms: C_24  and  N_25 
ROOT
ATOM      1  C   UNL d   1      27.859 -10.616   3.847  0.00  0.00     0.182 A 
ATOM      2  N   UNL d   1      28.055 -11.794   3.168  0.00  0.00    -0.042 NA
ATOM      3  C   UNL d   1      27.535 -11.940   1.935  0.00  0.00     0.728 A 
ATOM      4  N   UNL d   1      26.806 -10.993   1.343  0.00  0.00    -0.043 NA
ATOM      5  C   UNL d   1      26.577  -9.843   2.010  0.00  0.00     0.177 A 
ATOM      6  C   UNL d   1      27.131  -9.586   3.258  0.00  0.00     0.195 A 
ENDROOT
BRANCH   3   7
ATOM      7  N   UNL d   1      27.771 -13.089   1.220  0.00  0.00    -0.211 N 
ATOM      8  C   UNL d   1      28.928 -13.177   0.327  0.00  0.00     0.169 C 
ATOM      9  C   UNL d   1      29.762 -14.444   0.679  0.00  0.00     0.255 C 
ATOM     10  N   UNL d   1      28.874 -15.694   0.673  0.00  0.00    -0.064 N 
ATOM     11  C   UNL d   1      27.780 -15.477   1.733  0.00  0.00     0.255 C 
ATOM     12  H   UNL d   1      29.438 -16.497   0.980  0.00  0.00     0.280 HD
ATOM     13  C   UNL d   1      26.910 -14.256   1.348  0.00  0.00     0.169 C 
BRANCH  10  14
ATOM     14  C   UNL d   1      28.400 -16.030  -0.734  0.00  0.00     0.273 C 
BRANCH  14  15
ATOM     15  C   UNL d   1      27.005 -16.574  -0.830  0.00  0.00    -0.033 C 
ATOM     16  C   UNL d   1      26.019 -15.902  -1.556  0.00  0.00     0.009 C 
ATOM     17  C   UNL d   1      24.702 -16.365  -1.524  0.00  0.00     0.001 C 
ATOM     18  C   UNL d   1      24.386 -17.567  -0.887  0.00  0.00     0.000 C 
ATOM     19  C   UNL d   1      25.358 -18.258  -0.191  0.00  0.00     0.001 C 
ATOM     20  C   UNL d   1      26.626 -17.712  -0.099  0.00  0.00     0.009 C 
ENDBRANCH  14  15
ENDBRANCH  10  14
ENDBRANCH   3   7
BRANCH   1  21
ATOM     21  N   UNL d   1      28.366 -10.555   5.125  0.00  0.00    -0.358 N 
ATOM     22  C   UNL d   1      27.850 -11.372   6.241  0.00  0.00     0.156 C 
ATOM     23  C   UNL d   1      28.993 -12.196   6.875  0.00  0.00     0.136 C 
ATOM     24  O   UNL d   1      30.115 -11.356   7.217  0.00  0.00    -0.378 OA
ATOM     25  C   UNL d   1      28.528 -12.937   8.121  0.00  0.00     0.041 C 
ATOM     26  C   UNL d   1      30.603 -10.604   6.082  0.00  0.00     0.136 C 
ATOM     27  C   UNL d   1      29.500  -9.707   5.486  0.00  0.00     0.156 C 
ATOM     28  C   UNL d   1      31.145 -11.542   5.005  0.00  0.00     0.041 C 
ENDBRANCH   1  21
BRANCH   5  29
ATOM     29  N   UNL d   1      25.685  -9.006   1.373  0.00  0.00    -0.381 N 
ATOM     30  H   UNL d   1      25.431  -9.192   0.416  0.00  0.00     0.157 HD
ATOM     31  H   UNL d   1      25.424  -8.118   1.798  0.00  0.00     0.157 HD
ENDBRANCH   5  29
BRANCH   6  32
ATOM     32  N   UNL d   1      27.031  -8.251   3.854  0.00  0.00    -0.108 N 
ATOM     33  O   UNL d   1      27.339  -8.074   5.033  0.00  0.00    -0.532 OA
ATOM     34  O   UNL d   1      26.663  -7.311   3.121  0.00  0.00    -0.532 OA
ENDBRANCH   6  32
TORSDOF 6
ENDMDL
MODEL 6
REMARK VINA RESULT:    -7.671      5.277      7.250
REMARK INTER + INTRA:         -11.121
REMARK INTER:                  -9.461
REMARK INTRA:                  -1.660
REMARK CONF_INDEPENDENT:        1.790
REMARK UNBOUND:                -1.660
REMARK  6 active torsions:
REMARK  status: ('A' for Active; 'I' for Inactive)
REMARK    1  A    between atoms: N_4  and  C_5 
REMARK    2  A    between atoms: C_7  and  N_8 
REMARK    3  A    between atoms: N_11  and  C_12 
REMARK    4  A    between atoms: C_12  and  C_13 
REMARK    5  A    between atoms: C_22  and  N_23 
REMARK    6  A    between atoms: C_24  and  N_25 
ROOT
ATOM      1  C   UNL d   1      27.312 -10.889   2.999  0.00  0.00     0.182 A 
ATOM      2  N   UNL d   1      28.053 -11.687   3.836  0.00  0.00    -0.042 NA
ATOM      3  C   UNL d   1      28.437 -11.211   5.035  0.00  0.00     0.728 A 
ATOM      4  N   UNL d   1      28.151  -9.975   5.445  0.00  0.00    -0.043 NA
ATOM      5  C   UNL d   1      27.452  -9.167   4.621  0.00  0.00     0.177 A 
ATOM      6  C   UNL d   1      26.962  -9.601   3.395  0.00  0.00     0.195 A 
ENDROOT
BRANCH   3   7
ATOM      7  N   UNL d   1      29.128 -12.017   5.906  0.00  0.00    -0.211 N 
ATOM      8  C   UNL d   1      28.982 -11.836   7.351  0.00  0.00     0.169 C 
ATOM      9  C   UNL d   1      28.597 -13.193   8.010  0.00  0.00     0.255 C 
ATOM     10  N   UNL d   1      29.596 -14.287   7.618  0.00  0.00    -0.064 N 
ATOM     11  C   UNL d   1      29.546 -14.417   6.085  0.00  0.00     0.255 C 
ATOM     12  H   UNL d   1      29.271 -15.182   8.007  0.00  0.00     0.280 HD
ATOM     13  C   UNL d   1      29.993 -13.087   5.430  0.00  0.00     0.169 C 
BRANCH  10  14
ATOM     14  C   UNL d   1      30.965 -14.035   8.233  0.00  0.00     0.273 C 
BRANCH  14  15
ATOM     15  C   UNL d   1      31.236 -14.762   9.518  0.00  0.00    -0.033 C 
ATOM     16  C   UNL d   1      30.191 -15.260  10.298  0.00  0.00     0.009 C 
ATOM     17  C   UNL d   1      30.468 -15.820  11.547  0.00  0.00     0.001 C 
ATOM     18  C   UNL d   1      31.786 -16.011  11.965  0.00  0.00     0.000 C 
ATOM     19  C   UNL d   1      32.832 -15.551  11.189  0.00  0.00     0.001 C 
ATOM     20  C   UNL d   1      32.543 -14.859  10.026  0.00  0.00     0.009 C 
ENDBRANCH  14  15
ENDBRANCH  10  14
ENDBRANCH   3   7
BRANCH   1  21
ATOM     21  N   UNL d   1      27.005 -11.415   1.765  0.00  0.00    -0.358 N 
ATOM     22  C   UNL d   1      27.422 -10.794   0.492  0.00  0.00     0.156 C 
ATOM     23  C   UNL d   1      28.220 -11.805  -0.360  0.00  0.00     0.136 C 
ATOM     24  O   UNL d   1      27.501 -13.047  -0.509  0.00  0.00    -0.378 OA
ATOM     25  C   UNL d   1      28.540 -11.248  -1.741  0.00  0.00     0.041 C 
ATOM     26  C   UNL d   1      27.146 -13.630   0.767  0.00  0.00     0.136 C 
ATOM     27  C   UNL d   1      26.275 -12.671   1.600  0.00  0.00     0.156 C 
ATOM     28  C   UNL d   1      28.399 -14.008   1.555  0.00  0.00     0.041 C 
ENDBRANCH   1  21
BRANCH   5  29
ATOM     29  N   UNL d   1      27.351  -7.870   5.077  0.00  0.00    -0.381 N 
ATOM     30  H   UNL d   1      27.169  -7.703   6.054  0.00  0.00     0.157 HD
ATOM     31  H   UNL d   1      27.286  -7.098   4.415  0.00  0.00     0.157 HD
ENDBRANCH   5  29
BRANCH   6  32
ATOM     32  N   UNL d   1      26.035  -8.765   2.627  0.00  0.00    -0.108 N 
ATOM     33  O   UNL d   1      25.043  -9.266   2.097  0.00  0.00    -0.532 OA
ATOM     34  O   UNL d   1      26.268  -7.541   2.567  0.00  0.00    -0.532 OA
ENDBRANCH   6  32
TORSDOF 6
ENDMDL
MODEL 7
REMARK VINA RESULT:    -7.552      3.511      6.129
REMARK INTER + INTRA:         -11.136
REMARK INTER:                  -9.341
REMARK INTRA:                  -1.795
REMARK CONF_INDEPENDENT:        1.790
REMARK UNBOUND:                -1.795
REMARK  6 active torsions:
REMARK  status: ('A' for Active; 'I' for Inactive)
REMARK    1  A    between atoms: N_4  and  C_5 
REMARK    2  A    between atoms: C_7  and  N_8 
REMARK    3  A    between atoms: N_11  and  C_12 
REMARK    4  A    between atoms: C_12  and  C_13 
REMARK    5  A    between atoms: C_22  and  N_23 
REMARK    6  A    between atoms: C_24  and  N_25 
ROOT
ATOM      1  C   UNL d   1      26.912 -12.244  -2.779  0.00  0.00     0.182 A 
ATOM      2  N   UNL d   1      27.113 -12.956  -1.622  0.00  0.00    -0.042 NA
ATOM      3  C   UNL d   1      27.365 -12.296  -0.476  0.00  0.00     0.728 A 
ATOM      4  N   UNL d   1      27.458 -10.968  -0.414  0.00  0.00    -0.043 NA
ATOM      5  C   UNL d   1      27.297 -10.256  -1.548  0.00  0.00     0.177 A 
ATOM      6  C   UNL d   1      26.970 -10.853  -2.759  0.00  0.00     0.195 A 
ENDROOT
BRANCH   3   7
ATOM      7  N   UNL d   1      27.509 -12.992   0.700  0.00  0.00    -0.211 N 
ATOM      8  C   UNL d   1      26.921 -14.324   0.846  0.00  0.00     0.169 C 
ATOM      9  C   UNL d   1      28.017 -15.329   1.310  0.00  0.00     0.255 C 
ATOM     10  N   UNL d   1      28.719 -14.817   2.573  0.00  0.00    -0.064 N 
ATOM     11  C   UNL d   1      29.365 -13.467   2.216  0.00  0.00     0.255 C 
ATOM     12  H   UNL d   1      29.482 -15.464   2.808  0.00  0.00     0.280 HD
ATOM     13  C   UNL d   1      28.269 -12.448   1.818  0.00  0.00     0.169 C 
BRANCH  10  14
ATOM     14  C   UNL d   1      27.780 -14.825   3.771  0.00  0.00     0.273 C 
BRANCH  14  15
ATOM     15  C   UNL d   1      28.283 -14.106   4.988  0.00  0.00    -0.033 C 
ATOM     16  C   UNL d   1      29.176 -14.720   5.868  0.00  0.00     0.009 C 
ATOM     17  C   UNL d   1      29.528 -14.075   7.056  0.00  0.00     0.001 C 
ATOM     18  C   UNL d   1      29.106 -12.769   7.309  0.00  0.00     0.000 C 
ATOM     19  C   UNL d   1      28.246 -12.137   6.430  0.00  0.00     0.001 C 
ATOM     20  C   UNL d   1      27.780 -12.841   5.334  0.00  0.00     0.009 C 
ENDBRANCH  14  15
ENDBRANCH  10  14
ENDBRANCH   3   7
BRANCH   1  21
ATOM     21  N   UNL d   1      26.719 -12.981  -3.925  0.00  0.00    -0.358 N 
ATOM     22  C   UNL d   1      27.803 -13.307  -4.872  0.00  0.00     0.156 C 
ATOM     23  C   UNL d   1      27.897 -14.836  -5.073  0.00  0.00     0.136 C 
ATOM     24  O   UNL d   1      26.613 -15.397  -5.418  0.00  0.00    -0.378 OA
ATOM     25  C   UNL d   1      28.905 -15.200  -6.154  0.00  0.00     0.041 C 
ATOM     26  C   UNL d   1      25.595 -15.077  -4.441  0.00  0.00     0.136 C 
ATOM     27  C   UNL d   1      25.424 -13.554  -4.288  0.00  0.00     0.156 C 
ATOM     28  C   UNL d   1      25.932 -15.699  -3.087  0.00  0.00     0.041 C 
ENDBRANCH   1  21
BRANCH   5  29
ATOM     29  N   UNL d   1      27.570  -8.913  -1.398  0.00  0.00    -0.381 N 
ATOM     30  H   UNL d   1      27.698  -8.341  -2.218  0.00  0.00     0.157 HD
ATOM     31  H   UNL d   1      27.815  -8.539  -0.482  0.00  0.00     0.157 HD
ENDBRANCH   5  29
BRANCH   6  32
ATOM     32  N   UNL d   1      26.599 -10.032  -3.916  0.00  0.00    -0.108 N 
ATOM     33  O   UNL d   1      25.561 -10.268  -4.535  0.00  0.00    -0.532 OA
ATOM     34  O   UNL d   1      27.346  -9.080  -4.218  0.00  0.00    -0.532 OA
ENDBRANCH   6  32
TORSDOF 6
ENDMDL
MODEL 8
REMARK VINA RESULT:    -7.458      4.888      7.045
REMARK INTER + INTRA:         -11.035
REMARK INTER:                  -9.248
REMARK INTRA:                  -1.787
REMARK CONF_INDEPENDENT:        1.790
REMARK UNBOUND:                -1.787
REMARK  6 active torsions:
REMARK  status: ('A' for Active; 'I' for Inactive)
REMARK    1  A    between atoms: N_4  and  C_5 
REMARK    2  A    between atoms: C_7  and  N_8 
REMARK    3  A    between atoms: N_11  and  C_12 
REMARK    4  A    between atoms: C_12  and  C_13 
REMARK    5  A    between atoms: C_22  and  N_23 
REMARK    6  A    between atoms: C_24  and  N_25 
ROOT
ATOM      1  C   UNL d   1      27.116 -10.921   2.915  0.00  0.00     0.182 A 
ATOM      2  N   UNL d   1      27.748 -11.763   3.796  0.00  0.00    -0.042 NA
ATOM      3  C   UNL d   1      28.075 -11.314   5.022  0.00  0.00     0.728 A 
ATOM      4  N   UNL d   1      27.836 -10.064   5.419  0.00  0.00    -0.043 NA
ATOM      5  C   UNL d   1      27.246  -9.214   4.554  0.00  0.00     0.177 A 
ATOM      6  C   UNL d   1      26.818  -9.615   3.294  0.00  0.00     0.195 A 
ENDROOT
BRANCH   3   7
ATOM      7  N   UNL d   1      28.654 -12.162   5.935  0.00  0.00    -0.211 N 
ATOM      8  C   UNL d   1      28.906 -13.561   5.584  0.00  0.00     0.169 C 
ATOM      9  C   UNL d   1      30.401 -13.904   5.853  0.00  0.00     0.255 C 
ATOM     10  N   UNL d   1      30.787 -13.544   7.292  0.00  0.00    -0.064 N 
ATOM     11  C   UNL d   1      30.560 -12.031   7.455  0.00  0.00     0.255 C 
ATOM     12  H   UNL d   1      31.794 -13.713   7.412  0.00  0.00     0.280 HD
ATOM     13  C   UNL d   1      29.062 -11.699   7.253  0.00  0.00     0.169 C 
BRANCH  10  14
ATOM     14  C   UNL d   1      30.088 -14.448   8.297  0.00  0.00     0.273 C 
BRANCH  14  15
ATOM     15  C   UNL d   1      29.616 -13.773   9.551  0.00  0.00    -0.033 C 
ATOM     16  C   UNL d   1      30.524 -13.338  10.519  0.00  0.00     0.009 C 
ATOM     17  C   UNL d   1      30.050 -12.828  11.730  0.00  0.00     0.001 C 
ATOM     18  C   UNL d   1      28.684 -12.622  11.929  0.00  0.00     0.000 C 
ATOM     19  C   UNL d   1      27.776 -13.019  10.966  0.00  0.00     0.001 C 
ATOM     20  C   UNL d   1      28.245 -13.665   9.836  0.00  0.00     0.009 C 
ENDBRANCH  14  15
ENDBRANCH  10  14
ENDBRANCH   3   7
BRANCH   1  21
ATOM     21  N   UNL d   1      26.865 -11.425   1.660  0.00  0.00    -0.358 N 
ATOM     22  C   UNL d   1      27.247 -10.729   0.415  0.00  0.00     0.156 C 
ATOM     23  C   UNL d   1      28.130 -11.645  -0.461  0.00  0.00     0.136 C 
ATOM     24  O   UNL d   1      27.511 -12.932  -0.662  0.00  0.00    -0.378 OA
ATOM     25  C   UNL d   1      28.421 -11.016  -1.816  0.00  0.00     0.041 C 
ATOM     26  C   UNL d   1      27.188 -13.585   0.588  0.00  0.00     0.136 C 
ATOM     27  C   UNL d   1      26.236 -12.726   1.442  0.00  0.00     0.156 C 
ATOM     28  C   UNL d   1      28.457 -13.893   1.380  0.00  0.00     0.041 C 
ENDBRANCH   1  21
BRANCH   5  29
ATOM     29  N   UNL d   1      27.192  -7.914   5.010  0.00  0.00    -0.381 N 
ATOM     30  H   UNL d   1      27.044  -7.741   5.991  0.00  0.00     0.157 HD
ATOM     31  H   UNL d   1      27.126  -7.141   4.349  0.00  0.00     0.157 HD
ENDBRANCH   5  29
BRANCH   6  32
ATOM     32  N   UNL d   1      25.998  -8.723   2.469  0.00  0.00    -0.108 N 
ATOM     33  O   UNL d   1      25.054  -9.173   1.819  0.00  0.00    -0.532 OA
ATOM     34  O   UNL d   1      26.268  -7.505   2.483  0.00  0.00    -0.532 OA
ENDBRANCH   6  32
TORSDOF 6
ENDMDL
MODEL 9
REMARK VINA RESULT:    -7.300      4.577      7.203
REMARK INTER + INTRA:         -10.887
REMARK INTER:                  -9.089
REMARK INTRA:                  -1.797
REMARK CONF_INDEPENDENT:        1.790
REMARK UNBOUND:                -1.797
REMARK  6 active torsions:
REMARK  status: ('A' for Active; 'I' for Inactive)
REMARK    1  A    between atoms: N_4  and  C_5 
REMARK    2  A    between atoms: C_7  and  N_8 
REMARK    3  A    between atoms: N_11  and  C_12 
REMARK    4  A    between atoms: C_12  and  C_13 
REMARK    5  A    between atoms: C_22  and  N_23 
REMARK    6  A    between atoms: C_24  and  N_25 
ROOT
ATOM      1  C   UNL d   1      27.422 -14.429  -0.852  0.00  0.00     0.182 A 
ATOM      2  N   UNL d   1      27.992 -13.934   0.296  0.00  0.00    -0.042 NA
ATOM      3  C   UNL d   1      28.057 -14.715   1.390  0.00  0.00     0.728 A 
ATOM      4  N   UNL d   1      27.565 -15.953   1.423  0.00  0.00    -0.043 NA
ATOM      5  C   UNL d   1      26.972 -16.442   0.315  0.00  0.00     0.177 A 
ATOM      6  C   UNL d   1      26.920 -15.727  -0.876  0.00  0.00     0.195 A 
ENDROOT
BRANCH   3   7
ATOM      7  N   UNL d   1      28.677 -14.255   2.527  0.00  0.00    -0.211 N 
ATOM      8  C   UNL d   1      28.065 -14.472   3.839  0.00  0.00     0.169 C 
ATOM      9  C   UNL d   1      29.095 -15.154   4.787  0.00  0.00     0.255 C 
ATOM     10  N   UNL d   1      30.401 -14.352   4.834  0.00  0.00    -0.064 N 
ATOM     11  C   UNL d   1      30.957 -14.311   3.400  0.00  0.00     0.255 C 
ATOM     12  H   UNL d   1      31.081 -14.868   5.407  0.00  0.00     0.280 HD
ATOM     13  C   UNL d   1      29.963 -13.574   2.470  0.00  0.00     0.169 C 
BRANCH  10  14
ATOM     14  C   UNL d   1      30.203 -13.011   5.524  0.00  0.00     0.273 C 
BRANCH  14  15
ATOM     15  C   UNL d   1      29.580 -13.074   6.888  0.00  0.00    -0.033 C 
ATOM     16  C   UNL d   1      28.706 -12.077   7.327  0.00  0.00     0.009 C 
ATOM     17  C   UNL d   1      28.242 -12.097   8.644  0.00  0.00     0.001 C 
ATOM     18  C   UNL d   1      28.531 -13.173   9.484  0.00  0.00     0.000 C 
ATOM     19  C   UNL d   1      29.370 -14.182   9.053  0.00  0.00     0.001 C 
ATOM     20  C   UNL d   1      29.950 -14.076   7.801  0.00  0.00     0.009 C 
ENDBRANCH  14  15
ENDBRANCH  10  14
ENDBRANCH   3   7
BRANCH   1  21
ATOM     21  N   UNL d   1      27.332 -13.559  -1.915  0.00  0.00    -0.358 N 
ATOM     22  C   UNL d   1      28.256 -13.589  -3.066  0.00  0.00     0.156 C 
ATOM     23  C   UNL d   1      27.462 -13.740  -4.384  0.00  0.00     0.136 C 
ATOM     24  O   UNL d   1      26.417 -12.751  -4.481  0.00  0.00    -0.378 OA
ATOM     25  C   UNL d   1      28.369 -13.627  -5.602  0.00  0.00     0.041 C 
ATOM     26  C   UNL d   1      25.522 -12.786  -3.345  0.00  0.00     0.136 C 
ATOM     27  C   UNL d   1      26.280 -12.550  -2.025  0.00  0.00     0.156 C 
ATOM     28  C   UNL d   1      24.780 -14.120  -3.284  0.00  0.00     0.041 C 
ENDBRANCH   1  21
BRANCH   5  29
ATOM     29  N   UNL d   1      26.361 -17.663   0.509  0.00  0.00    -0.381 N 
ATOM     30  H   UNL d   1      25.616 -17.946  -0.107  0.00  0.00     0.157 HD
ATOM     31  H   UNL d   1      26.535 -18.192   1.362  0.00  0.00     0.157 HD
ENDBRANCH   5  29
BRANCH   6  32
ATOM     32  N   UNL d   1      26.457 -16.370  -2.109  0.00  0.00    -0.108 N 
ATOM     33  O   UNL d   1      27.120 -16.277  -3.143  0.00  0.00    -0.532 OA
ATOM     34  O   UNL d   1      25.403 -17.035  -2.059  0.00  0.00    -0.532 OA
ENDBRANCH   6  32
TORSDOF 6
ENDMDL
