MODEL 1
REMARK VINA RESULT:   -10.032      0.000      0.000
REMARK INTER + INTRA:         -13.585
REMARK INTER:                 -12.121
REMARK INTRA:                  -1.464
REMARK CONF_INDEPENDENT:        2.088
REMARK UNBOUND:                -1.464
REMARK  7 active torsions:
REMARK  status: ('A' for Active; 'I' for Inactive)
REMARK    1  A    between atoms: C_2  and  C_11 
REMARK    2  A    between atoms: C_2  and  O_3 
REMARK    3  A    between atoms: O_3  and  C_4 
REMARK       I    between atoms: C_11  and  N_13 
REMARK    4  A    between atoms: N_13  and  N_14 
REMARK    5  A    between atoms: C_15  and  C_16 
REMARK    6  A    between atoms: N_18  and  C_19 
REMARK    7  A    between atoms: C_26  and  C_27 
ROOT
ATOM      1  C   UNL d   1      25.191 -17.357  -0.177  0.00  0.00     0.032 A 
ATOM      2  C   UNL d   1      24.235 -18.224   0.311  0.00  0.00     0.134 A 
ATOM      3  N   UNL d   1      23.109 -18.073  -0.471  0.00  0.00    -0.244 N 
ATOM      4  N   UNL d   1      23.301 -17.161  -1.456  0.00  0.00    -0.166 NA
ATOM      5  C   UNL d   1      24.549 -16.706  -1.265  0.00  0.00     0.101 A 
ENDROOT
BRANCH   1   6
ATOM      6  C   UNL d   1      26.557 -17.138   0.250  0.00  0.00     0.154 C 
ATOM      7  N   UNL d   1      26.960 -15.943   0.514  0.00  0.00    -0.184 NA
BRANCH   7   8
ATOM      8  N   UNL d   1      28.247 -15.786   0.983  0.00  0.00    -0.245 N 
ATOM      9  C   UNL d   1      28.565 -14.555   1.545  0.00  0.00     0.266 C 
ATOM     10  O   UNL d   1      27.694 -13.705   1.780  0.00  0.00    -0.269 OA
ATOM     11  H   UNL d   1      28.889 -16.573   0.995  0.00  0.00     0.192 HD
BRANCH   9  12
ATOM     12  C   UNL d   1      30.077 -14.270   1.792  0.00  0.00     0.218 C 
ATOM     13  C   UNL d   1      30.855 -15.011   0.700  0.00  0.00     0.050 C 
BRANCH  12  14
ATOM     14  O   UNL d   1      30.617 -14.684   3.061  0.00  0.00    -0.337 OA
BRANCH  14  15
ATOM     15  C   UNL d   1      30.033 -14.208   4.211  0.00  0.00     0.070 A 
ATOM     16  C   UNL d   1      29.364 -14.989   5.158  0.00  0.00     0.038 A 
ATOM     17  C   UNL d   1      28.966 -14.456   6.384  0.00  0.00     0.022 A 
ATOM     18  C   UNL d   1      29.132 -13.101   6.631  0.00  0.00     0.011 A 
ATOM     19 BR   UNL d   1      28.532 -12.382   8.270  0.00  0.00    -0.051 Br
ATOM     20  C   UNL d   1      29.719 -12.283   5.667  0.00  0.00     0.022 A 
ATOM     21  C   UNL d   1      30.182 -12.840   4.465  0.00  0.00     0.038 A 
ENDBRANCH  14  15
ENDBRANCH  12  14
ENDBRANCH   9  12
ENDBRANCH   7   8
ENDBRANCH   1   6
BRANCH   5  22
ATOM     22  C   UNL d   1      25.179 -15.766  -2.183  0.00  0.00    -0.005 A 
ATOM     23  C   UNL d   1      24.488 -14.669  -2.703  0.00  0.00     0.014 A 
ATOM     24  C   UNL d   1      25.101 -13.856  -3.661  0.00  0.00     0.001 A 
ATOM     25  C   UNL d   1      26.425 -14.089  -4.039  0.00  0.00     0.000 A 
ATOM     26  C   UNL d   1      27.138 -15.143  -3.475  0.00  0.00     0.001 A 
ATOM     27  C   UNL d   1      26.516 -15.982  -2.554  0.00  0.00     0.014 A 
ENDBRANCH   5  22
BRANCH   3  28
ATOM     28  C   UNL d   1      21.831 -18.649  -0.254  0.00  0.00     0.058 A 
ATOM     29  C   UNL d   1      21.395 -18.951   1.043  0.00  0.00     0.031 A 
ATOM     30  C   UNL d   1      20.163 -19.590   1.231  0.00  0.00     0.002 A 
ATOM     31  C   UNL d   1      19.365 -19.916   0.133  0.00  0.00     0.000 A 
ATOM     32  C   UNL d   1      19.804 -19.620  -1.158  0.00  0.00     0.002 A 
ATOM     33  C   UNL d   1      21.030 -18.976  -1.355  0.00  0.00     0.031 A 
ENDBRANCH   3  28
TORSDOF 7
ENDMDL
MODEL 2
REMARK VINA RESULT:    -9.727      1.425      2.247
REMARK INTER + INTRA:         -13.547
REMARK INTER:                 -11.815
REMARK INTRA:                  -1.732
REMARK CONF_INDEPENDENT:        2.088
REMARK UNBOUND:                -1.732
REMARK  7 active torsions:
REMARK  status: ('A' for Active; 'I' for Inactive)
REMARK    1  A    between atoms: C_2  and  C_11 
REMARK    2  A    between atoms: C_2  and  O_3 
REMARK    3  A    between atoms: O_3  and  C_4 
REMARK       I    between atoms: C_11  and  N_13 
REMARK    4  A    between atoms: N_13  and  N_14 
REMARK    5  A    between atoms: C_15  and  C_16 
REMARK    6  A    between atoms: N_18  and  C_19 
REMARK    7  A    between atoms: C_26  and  C_27 
ROOT
ATOM      1  C   UNL d   1      25.150 -17.386  -0.218  0.00  0.00     0.032 A 
ATOM      2  C   UNL d   1      24.211 -18.252   0.305  0.00  0.00     0.134 A 
ATOM      3  N   UNL d   1      23.072 -18.132  -0.465  0.00  0.00    -0.244 N 
ATOM      4  N   UNL d   1      23.239 -17.241  -1.473  0.00  0.00    -0.166 NA
ATOM      5  C   UNL d   1      24.484 -16.768  -1.311  0.00  0.00     0.101 A 
ENDROOT
BRANCH   1   6
ATOM      6  C   UNL d   1      26.519 -17.141   0.183  0.00  0.00     0.154 C 
ATOM      7  N   UNL d   1      27.487 -17.617  -0.522  0.00  0.00    -0.184 NA
BRANCH   7   8
ATOM      8  N   UNL d   1      28.775 -17.302  -0.143  0.00  0.00    -0.245 N 
ATOM      9  C   UNL d   1      29.258 -16.059  -0.536  0.00  0.00     0.266 C 
ATOM     10  O   UNL d   1      28.516 -15.204  -1.041  0.00  0.00    -0.269 OA
ATOM     11  H   UNL d   1      29.296 -17.921   0.471  0.00  0.00     0.192 HD
BRANCH   9  12
ATOM     12  C   UNL d   1      30.792 -15.827  -0.381  0.00  0.00     0.218 C 
ATOM     13  C   UNL d   1      31.366 -17.074   0.298  0.00  0.00     0.050 C 
BRANCH  12  14
ATOM     14  O   UNL d   1      31.199 -14.686   0.398  0.00  0.00    -0.337 OA
BRANCH  14  15
ATOM     15  C   UNL d   1      30.494 -14.383   1.539  0.00  0.00     0.070 A 
ATOM     16  C   UNL d   1      29.203 -13.848   1.571  0.00  0.00     0.038 A 
ATOM     17  C   UNL d   1      28.492 -13.745   2.767  0.00  0.00     0.022 A 
ATOM     18  C   UNL d   1      29.111 -14.073   3.964  0.00  0.00     0.011 A 
ATOM     19 BR   UNL d   1      28.155 -13.870   5.581  0.00  0.00    -0.051 Br
ATOM     20  C   UNL d   1      30.428 -14.528   3.968  0.00  0.00     0.022 A 
ATOM     21  C   UNL d   1      31.113 -14.697   2.755  0.00  0.00     0.038 A 
ENDBRANCH  14  15
ENDBRANCH  12  14
ENDBRANCH   9  12
ENDBRANCH   7   8
ENDBRANCH   1   6
BRANCH   5  22
ATOM     22  C   UNL d   1      25.090 -15.843  -2.261  0.00  0.00    -0.005 A 
ATOM     23  C   UNL d   1      26.373 -16.049  -2.774  0.00  0.00     0.014 A 
ATOM     24  C   UNL d   1      26.952 -15.081  -3.599  0.00  0.00     0.001 A 
ATOM     25  C   UNL d   1      26.224 -13.950  -3.976  0.00  0.00     0.000 A 
ATOM     26  C   UNL d   1      24.922 -13.772  -3.517  0.00  0.00     0.001 A 
ATOM     27  C   UNL d   1      24.359 -14.713  -2.658  0.00  0.00     0.014 A 
ENDBRANCH   5  22
BRANCH   3  28
ATOM     28  C   UNL d   1      21.804 -18.716  -0.215  0.00  0.00     0.058 A 
ATOM     29  C   UNL d   1      20.929 -19.000  -1.271  0.00  0.00     0.031 A 
ATOM     30  C   UNL d   1      19.651 -19.506  -0.998  0.00  0.00     0.002 A 
ATOM     31  C   UNL d   1      19.253 -19.738   0.320  0.00  0.00     0.000 A 
ATOM     32  C   UNL d   1      20.125 -19.449   1.371  0.00  0.00     0.002 A 
ATOM     33  C   UNL d   1      21.405 -18.950   1.107  0.00  0.00     0.031 A 
ENDBRANCH   3  28
TORSDOF 7
ENDMDL
MODEL 3
REMARK VINA RESULT:    -9.704      3.934      5.560
REMARK INTER + INTRA:         -13.739
REMARK INTER:                 -11.792
REMARK INTRA:                  -1.948
REMARK CONF_INDEPENDENT:        2.088
REMARK UNBOUND:                -1.948
REMARK  7 active torsions:
REMARK  status: ('A' for Active; 'I' for Inactive)
REMARK    1  A    between atoms: C_2  and  C_11 
REMARK    2  A    between atoms: C_2  and  O_3 
REMARK    3  A    between atoms: O_3  and  C_4 
REMARK       I    between atoms: C_11  and  N_13 
REMARK    4  A    between atoms: N_13  and  N_14 
REMARK    5  A    between atoms: C_15  and  C_16 
REMARK    6  A    between atoms: N_18  and  C_19 
REMARK    7  A    between atoms: C_26  and  C_27 
ROOT
ATOM      1  C   UNL d   1      24.740 -17.717  -0.104  0.00  0.00     0.032 A 
ATOM      2  C   UNL d   1      23.780 -18.572   0.396  0.00  0.00     0.134 A 
ATOM      3  N   UNL d   1      22.621 -18.346  -0.318  0.00  0.00    -0.244 N 
ATOM      4  N   UNL d   1      22.795 -17.397  -1.271  0.00  0.00    -0.166 NA
ATOM      5  C   UNL d   1      24.067 -16.995  -1.127  0.00  0.00     0.101 A 
ENDROOT
BRANCH   1   6
ATOM      6  C   UNL d   1      26.134 -17.564   0.258  0.00  0.00     0.154 C 
ATOM      7  N   UNL d   1      27.050 -18.063  -0.498  0.00  0.00    -0.184 NA
BRANCH   7   8
ATOM      8  N   UNL d   1      28.364 -17.835  -0.153  0.00  0.00    -0.245 N 
ATOM      9  C   UNL d   1      28.858 -16.553  -0.370  0.00  0.00     0.266 C 
ATOM     10  O   UNL d   1      28.111 -15.616  -0.685  0.00  0.00    -0.269 OA
ATOM     11  H   UNL d   1      28.903 -18.553   0.322  0.00  0.00     0.192 HD
BRANCH   9  12
ATOM     12  C   UNL d   1      30.403 -16.375  -0.273  0.00  0.00     0.218 C 
ATOM     13  C   UNL d   1      30.659 -15.219   0.700  0.00  0.00     0.050 C 
BRANCH  12  14
ATOM     14  O   UNL d   1      31.098 -16.069  -1.496  0.00  0.00    -0.337 OA
BRANCH  14  15
ATOM     15  C   UNL d   1      30.867 -16.856  -2.599  0.00  0.00     0.070 A 
ATOM     16  C   UNL d   1      30.342 -16.406  -3.815  0.00  0.00     0.038 A 
ATOM     17  C   UNL d   1      30.314 -17.231  -4.939  0.00  0.00     0.022 A 
ATOM     18  C   UNL d   1      30.708 -18.556  -4.830  0.00  0.00     0.011 A 
ATOM     19 BR   UNL d   1      30.606 -19.677  -6.347  0.00  0.00    -0.051 Br
ATOM     20  C   UNL d   1      31.154 -19.053  -3.607  0.00  0.00     0.022 A 
ATOM     21  C   UNL d   1      31.248 -18.199  -2.497  0.00  0.00     0.038 A 
ENDBRANCH  14  15
ENDBRANCH  12  14
ENDBRANCH   9  12
ENDBRANCH   7   8
ENDBRANCH   1   6
BRANCH   5  22
ATOM     22  C   UNL d   1      24.683 -16.036  -2.036  0.00  0.00    -0.005 A 
ATOM     23  C   UNL d   1      24.044 -14.848  -2.396  0.00  0.00     0.014 A 
ATOM     24  C   UNL d   1      24.628 -14.010  -3.351  0.00  0.00     0.001 A 
ATOM     25  C   UNL d   1      25.881 -14.318  -3.885  0.00  0.00     0.000 A 
ATOM     26  C   UNL d   1      26.550 -15.470  -3.481  0.00  0.00     0.001 A 
ATOM     27  C   UNL d   1      25.950 -16.329  -2.563  0.00  0.00     0.014 A 
ENDBRANCH   5  22
BRANCH   3  28
ATOM     28  C   UNL d   1      21.335 -18.887  -0.059  0.00  0.00     0.058 A 
ATOM     29  C   UNL d   1      20.973 -19.276   1.237  0.00  0.00     0.031 A 
ATOM     30  C   UNL d   1      19.728 -19.879   1.460  0.00  0.00     0.002 A 
ATOM     31  C   UNL d   1      18.845 -20.083   0.398  0.00  0.00     0.000 A 
ATOM     32  C   UNL d   1      19.211 -19.700  -0.893  0.00  0.00     0.002 A 
ATOM     33  C   UNL d   1      20.449 -19.091  -1.124  0.00  0.00     0.031 A 
ENDBRANCH   3  28
TORSDOF 7
ENDMDL
MODEL 4
REMARK VINA RESULT:    -9.634      3.856      9.422
REMARK INTER + INTRA:         -13.000
REMARK INTER:                 -11.723
REMARK INTRA:                  -1.277
REMARK CONF_INDEPENDENT:        2.088
REMARK UNBOUND:                -1.277
REMARK  7 active torsions:
REMARK  status: ('A' for Active; 'I' for Inactive)
REMARK    1  A    between atoms: C_2  and  C_11 
REMARK    2  A    between atoms: C_2  and  O_3 
REMARK    3  A    between atoms: O_3  and  C_4 
REMARK       I    between atoms: C_11  and  N_13 
REMARK    4  A    between atoms: N_13  and  N_14 
REMARK    5  A    between atoms: C_15  and  C_16 
REMARK    6  A    between atoms: N_18  and  C_19 
REMARK    7  A    between atoms: C_26  and  C_27 
ROOT
ATOM      1  C   UNL d   1      28.662 -13.823   4.981  0.00  0.00     0.032 A 
ATOM      2  C   UNL d   1      28.877 -14.328   6.247  0.00  0.00     0.134 A 
ATOM      3  N   UNL d   1      28.493 -13.353   7.145  0.00  0.00    -0.244 N 
ATOM      4  N   UNL d   1      28.021 -12.249   6.516  0.00  0.00    -0.166 NA
ATOM      5  C   UNL d   1      28.147 -12.519   5.207  0.00  0.00     0.101 A 
ENDROOT
BRANCH   1   6
ATOM      6  C   UNL d   1      28.860 -14.439   3.685  0.00  0.00     0.154 C 
ATOM      7  N   UNL d   1      27.840 -14.806   2.989  0.00  0.00    -0.184 NA
BRANCH   7   8
ATOM      8  N   UNL d   1      28.071 -15.324   1.732  0.00  0.00    -0.245 N 
ATOM      9  C   UNL d   1      27.138 -15.021   0.747  0.00  0.00     0.266 C 
ATOM     10  O   UNL d   1      26.244 -14.183   0.936  0.00  0.00    -0.269 OA
ATOM     11  H   UNL d   1      28.934 -15.821   1.532  0.00  0.00     0.192 HD
BRANCH   9  12
ATOM     12  C   UNL d   1      27.226 -15.843  -0.574  0.00  0.00     0.218 C 
ATOM     13  C   UNL d   1      28.409 -15.283  -1.370  0.00  0.00     0.050 C 
BRANCH  12  14
ATOM     14  O   UNL d   1      26.074 -15.810  -1.437  0.00  0.00    -0.337 OA
BRANCH  14  15
ATOM     15  C   UNL d   1      24.953 -16.514  -1.065  0.00  0.00     0.070 A 
ATOM     16  C   UNL d   1      23.643 -16.029  -1.112  0.00  0.00     0.038 A 
ATOM     17  C   UNL d   1      22.552 -16.870  -0.895  0.00  0.00     0.022 A 
ATOM     18  C   UNL d   1      22.764 -18.187  -0.514  0.00  0.00     0.011 A 
ATOM     19 BR   UNL d   1      21.276 -19.296  -0.164  0.00  0.00    -0.051 Br
ATOM     20  C   UNL d   1      24.062 -18.673  -0.376  0.00  0.00     0.022 A 
ATOM     21  C   UNL d   1      25.155 -17.841  -0.666  0.00  0.00     0.038 A 
ENDBRANCH  14  15
ENDBRANCH  12  14
ENDBRANCH   9  12
ENDBRANCH   7   8
ENDBRANCH   1   6
BRANCH   5  22
ATOM     22  C   UNL d   1      27.658 -11.609   4.179  0.00  0.00    -0.005 A 
ATOM     23  C   UNL d   1      27.394 -12.042   2.877  0.00  0.00     0.014 A 
ATOM     24  C   UNL d   1      27.028 -11.112   1.900  0.00  0.00     0.001 A 
ATOM     25  C   UNL d   1      26.848  -9.769   2.238  0.00  0.00     0.000 A 
ATOM     26  C   UNL d   1      27.048  -9.345   3.549  0.00  0.00     0.001 A 
ATOM     27  C   UNL d   1      27.457 -10.261   4.515  0.00  0.00     0.014 A 
ENDBRANCH   5  22
BRANCH   3  28
ATOM     28  C   UNL d   1      28.671 -13.366   8.552  0.00  0.00     0.058 A 
ATOM     29  C   UNL d   1      29.002 -14.553   9.219  0.00  0.00     0.031 A 
ATOM     30  C   UNL d   1      29.097 -14.563  10.617  0.00  0.00     0.002 A 
ATOM     31  C   UNL d   1      28.876 -13.393  11.344  0.00  0.00     0.000 A 
ATOM     32  C   UNL d   1      28.540 -12.213  10.679  0.00  0.00     0.002 A 
ATOM     33  C   UNL d   1      28.449 -12.192   9.283  0.00  0.00     0.031 A 
ENDBRANCH   3  28
TORSDOF 7
ENDMDL
MODEL 5
REMARK VINA RESULT:    -9.159      4.562      7.021
REMARK INTER + INTRA:         -12.833
REMARK INTER:                 -11.248
REMARK INTRA:                  -1.586
REMARK CONF_INDEPENDENT:        2.088
REMARK UNBOUND:                -1.586
REMARK  7 active torsions:
REMARK  status: ('A' for Active; 'I' for Inactive)
REMARK    1  A    between atoms: C_2  and  C_11 
REMARK    2  A    between atoms: C_2  and  O_3 
REMARK    3  A    between atoms: O_3  and  C_4 
REMARK       I    between atoms: C_11  and  N_13 
REMARK    4  A    between atoms: N_13  and  N_14 
REMARK    5  A    between atoms: C_15  and  C_16 
REMARK    6  A    between atoms: N_18  and  C_19 
REMARK    7  A    between atoms: C_26  and  C_27 
ROOT
ATOM      1  C   UNL d   1      23.494 -16.408  -1.195  0.00  0.00     0.032 A 
ATOM      2  C   UNL d   1      22.223 -16.877  -0.937  0.00  0.00     0.134 A 
ATOM      3  N   UNL d   1      22.347 -17.930  -0.053  0.00  0.00    -0.244 N 
ATOM      4  N   UNL d   1      23.641 -18.150   0.286  0.00  0.00    -0.166 NA
ATOM      5  C   UNL d   1      24.340 -17.250  -0.423  0.00  0.00     0.101 A 
ENDROOT
BRANCH   1   6
ATOM      6  C   UNL d   1      23.932 -15.302  -2.020  0.00  0.00     0.154 C 
ATOM      7  N   UNL d   1      24.902 -15.468  -2.851  0.00  0.00    -0.184 NA
BRANCH   7   8
ATOM      8  N   UNL d   1      25.241 -14.410  -3.666  0.00  0.00    -0.245 N 
ATOM      9  C   UNL d   1      26.161 -14.665  -4.677  0.00  0.00     0.266 C 
ATOM     10  O   UNL d   1      26.521 -15.819  -4.950  0.00  0.00    -0.269 OA
ATOM     11  H   UNL d   1      24.761 -13.519  -3.577  0.00  0.00     0.192 HD
BRANCH   9  12
ATOM     12  C   UNL d   1      26.772 -13.423  -5.394  0.00  0.00     0.218 C 
ATOM     13  C   UNL d   1      28.092 -13.877  -6.026  0.00  0.00     0.050 C 
BRANCH  12  14
ATOM     14  O   UNL d   1      27.060 -12.277  -4.572  0.00  0.00    -0.337 OA
BRANCH  14  15
ATOM     15  C   UNL d   1      26.393 -11.101  -4.825  0.00  0.00     0.070 A 
ATOM     16  C   UNL d   1      26.090 -10.603  -6.095  0.00  0.00     0.038 A 
ATOM     17  C   UNL d   1      25.251  -9.501  -6.258  0.00  0.00     0.022 A 
ATOM     18  C   UNL d   1      24.794  -8.813  -5.144  0.00  0.00     0.011 A 
ATOM     19 BR   UNL d   1      23.708  -7.287  -5.383  0.00  0.00    -0.051 Br
ATOM     20  C   UNL d   1      25.152  -9.239  -3.866  0.00  0.00     0.022 A 
ATOM     21  C   UNL d   1      25.938 -10.391  -3.707  0.00  0.00     0.038 A 
ENDBRANCH  14  15
ENDBRANCH  12  14
ENDBRANCH   9  12
ENDBRANCH   7   8
ENDBRANCH   1   6
BRANCH   5  22
ATOM     22  C   UNL d   1      25.781 -17.094  -0.269  0.00  0.00    -0.005 A 
ATOM     23  C   UNL d   1      26.657 -18.173  -0.405  0.00  0.00     0.014 A 
ATOM     24  C   UNL d   1      28.019 -17.996  -0.145  0.00  0.00     0.001 A 
ATOM     25  C   UNL d   1      28.517 -16.730   0.171  0.00  0.00     0.000 A 
ATOM     26  C   UNL d   1      27.655 -15.639   0.246  0.00  0.00     0.001 A 
ATOM     27  C   UNL d   1      26.291 -15.821   0.032  0.00  0.00     0.014 A 
ENDBRANCH   5  22
BRANCH   3  28
ATOM     28  C   UNL d   1      21.323 -18.811   0.379  0.00  0.00     0.058 A 
ATOM     29  C   UNL d   1      21.029 -18.950   1.741  0.00  0.00     0.031 A 
ATOM     30  C   UNL d   1      20.068 -19.882   2.153  0.00  0.00     0.002 A 
ATOM     31  C   UNL d   1      19.396 -20.663   1.212  0.00  0.00     0.000 A 
ATOM     32  C   UNL d   1      19.695 -20.527  -0.145  0.00  0.00     0.002 A 
ATOM     33  C   UNL d   1      20.649 -19.595  -0.566  0.00  0.00     0.031 A 
ENDBRANCH   3  28
TORSDOF 7
ENDMDL
MODEL 6
REMARK VINA RESULT:    -8.976      3.917      4.388
REMARK INTER + INTRA:         -12.772
REMARK INTER:                 -11.064
REMARK INTRA:                  -1.708
REMARK CONF_INDEPENDENT:        2.088
REMARK UNBOUND:                -1.708
REMARK  7 active torsions:
REMARK  status: ('A' for Active; 'I' for Inactive)
REMARK    1  A    between atoms: C_2  and  C_11 
REMARK    2  A    between atoms: C_2  and  O_3 
REMARK    3  A    between atoms: O_3  and  C_4 
REMARK       I    between atoms: C_11  and  N_13 
REMARK    4  A    between atoms: N_13  and  N_14 
REMARK    5  A    between atoms: C_15  and  C_16 
REMARK    6  A    between atoms: N_18  and  C_19 
REMARK    7  A    between atoms: C_26  and  C_27 
ROOT
ATOM      1  C   UNL d   1      25.142 -17.729  -0.120  0.00  0.00     0.032 A 
ATOM      2  C   UNL d   1      24.160 -18.650   0.184  0.00  0.00     0.134 A 
ATOM      3  N   UNL d   1      22.974 -18.166  -0.330  0.00  0.00    -0.244 N 
ATOM      4  N   UNL d   1      23.149 -16.983  -0.969  0.00  0.00    -0.166 NA
ATOM      5  C   UNL d   1      24.453 -16.702  -0.820  0.00  0.00     0.101 A 
ENDROOT
BRANCH   1   6
ATOM      6  C   UNL d   1      26.564 -17.756   0.152  0.00  0.00     0.154 C 
ATOM      7  N   UNL d   1      27.403 -17.612  -0.815  0.00  0.00    -0.184 NA
BRANCH   7   8
ATOM      8  N   UNL d   1      28.745 -17.576  -0.503  0.00  0.00    -0.245 N 
ATOM      9  C   UNL d   1      29.548 -16.748  -1.281  0.00  0.00     0.266 C 
ATOM     10  O   UNL d   1      29.061 -15.947  -2.092  0.00  0.00    -0.269 OA
ATOM     11  H   UNL d   1      29.096 -18.062   0.316  0.00  0.00     0.192 HD
BRANCH   9  12
ATOM     12  C   UNL d   1      31.089 -16.935  -1.136  0.00  0.00     0.218 C 
ATOM     13  C   UNL d   1      31.737 -16.240  -2.337  0.00  0.00     0.050 C 
BRANCH  12  14
ATOM     14  O   UNL d   1      31.577 -18.289  -1.108  0.00  0.00    -0.337 OA
BRANCH  14  15
ATOM     15  C   UNL d   1      32.025 -18.802   0.086  0.00  0.00     0.070 A 
ATOM     16  C   UNL d   1      32.396 -18.045   1.201  0.00  0.00     0.038 A 
ATOM     17  C   UNL d   1      32.660 -18.649   2.431  0.00  0.00     0.022 A 
ATOM     18  C   UNL d   1      32.667 -20.032   2.529  0.00  0.00     0.011 A 
ATOM     19 BR   UNL d   1      33.087 -20.837   4.186  0.00  0.00    -0.051 Br
ATOM     20  C   UNL d   1      32.386 -20.813   1.410  0.00  0.00     0.022 A 
ATOM     21  C   UNL d   1      32.050 -20.198   0.194  0.00  0.00     0.038 A 
ENDBRANCH  14  15
ENDBRANCH  12  14
ENDBRANCH   9  12
ENDBRANCH   7   8
ENDBRANCH   1   6
BRANCH   5  22
ATOM     22  C   UNL d   1      25.072 -15.543  -1.452  0.00  0.00    -0.005 A 
ATOM     23  C   UNL d   1      26.052 -14.788  -0.805  0.00  0.00     0.014 A 
ATOM     24  C   UNL d   1      26.539 -13.624  -1.408  0.00  0.00     0.001 A 
ATOM     25  C   UNL d   1      26.109 -13.260  -2.685  0.00  0.00     0.000 A 
ATOM     26  C   UNL d   1      25.178 -14.046  -3.360  0.00  0.00     0.001 A 
ATOM     27  C   UNL d   1      24.658 -15.181  -2.743  0.00  0.00     0.014 A 
ENDBRANCH   5  22
BRANCH   3  28
ATOM     28  C   UNL d   1      21.675 -18.701  -0.135  0.00  0.00     0.058 A 
ATOM     29  C   UNL d   1      21.197 -18.962   1.156  0.00  0.00     0.031 A 
ATOM     30  C   UNL d   1      19.942 -19.561   1.325  0.00  0.00     0.002 A 
ATOM     31  C   UNL d   1      19.164 -19.888   0.214  0.00  0.00     0.000 A 
ATOM     32  C   UNL d   1      19.645 -19.633  -1.072  0.00  0.00     0.002 A 
ATOM     33  C   UNL d   1      20.893 -19.029  -1.250  0.00  0.00     0.031 A 
ENDBRANCH   3  28
TORSDOF 7
ENDMDL
MODEL 7
REMARK VINA RESULT:    -8.901      3.764      5.088
REMARK INTER + INTRA:         -13.717
REMARK INTER:                 -10.990
REMARK INTRA:                  -2.728
REMARK CONF_INDEPENDENT:        2.088
REMARK UNBOUND:                -2.728
REMARK  7 active torsions:
REMARK  status: ('A' for Active; 'I' for Inactive)
REMARK    1  A    between atoms: C_2  and  C_11 
REMARK    2  A    between atoms: C_2  and  O_3 
REMARK    3  A    between atoms: O_3  and  C_4 
REMARK       I    between atoms: C_11  and  N_13 
REMARK    4  A    between atoms: N_13  and  N_14 
REMARK    5  A    between atoms: C_15  and  C_16 
REMARK    6  A    between atoms: N_18  and  C_19 
REMARK    7  A    between atoms: C_26  and  C_27 
ROOT
ATOM      1  C   UNL d   1      25.226 -17.731  -0.039  0.00  0.00     0.032 A 
ATOM      2  C   UNL d   1      24.209 -18.578   0.349  0.00  0.00     0.134 A 
ATOM      3  N   UNL d   1      23.074 -18.192  -0.335  0.00  0.00    -0.244 N 
ATOM      4  N   UNL d   1      23.318 -17.146  -1.162  0.00  0.00    -0.166 NA
ATOM      5  C   UNL d   1      24.611 -16.847  -0.966  0.00  0.00     0.101 A 
ENDROOT
BRANCH   1   6
ATOM      6  C   UNL d   1      26.623 -17.714   0.344  0.00  0.00     0.154 C 
ATOM      7  N   UNL d   1      27.535 -17.820  -0.560  0.00  0.00    -0.184 NA
BRANCH   7   8
ATOM      8  N   UNL d   1      28.851 -17.730  -0.161  0.00  0.00    -0.245 N 
ATOM      9  C   UNL d   1      29.433 -16.467  -0.196  0.00  0.00     0.266 C 
ATOM     10  O   UNL d   1      28.758 -15.448  -0.400  0.00  0.00    -0.269 OA
ATOM     11  H   UNL d   1      29.328 -18.539   0.226  0.00  0.00     0.192 HD
BRANCH   9  12
ATOM     12  C   UNL d   1      30.983 -16.409  -0.045  0.00  0.00     0.218 C 
ATOM     13  C   UNL d   1      31.316 -15.072   0.625  0.00  0.00     0.050 C 
BRANCH  12  14
ATOM     14  O   UNL d   1      31.756 -16.487  -1.257  0.00  0.00    -0.337 OA
BRANCH  14  15
ATOM     15  C   UNL d   1      31.141 -16.192  -2.451  0.00  0.00     0.070 A 
ATOM     16  C   UNL d   1      30.444 -17.107  -3.246  0.00  0.00     0.038 A 
ATOM     17  C   UNL d   1      29.694 -16.686  -4.344  0.00  0.00     0.022 A 
ATOM     18  C   UNL d   1      29.724 -15.354  -4.727  0.00  0.00     0.011 A 
ATOM     19 BR   UNL d   1      28.752 -14.811  -6.253  0.00  0.00    -0.051 Br
ATOM     20  C   UNL d   1      30.480 -14.436  -4.002  0.00  0.00     0.022 A 
ATOM     21  C   UNL d   1      31.175 -14.852  -2.855  0.00  0.00     0.038 A 
ENDBRANCH  14  15
ENDBRANCH  12  14
ENDBRANCH   9  12
ENDBRANCH   7   8
ENDBRANCH   1   6
BRANCH   5  22
ATOM     22  C   UNL d   1      25.296 -15.824  -1.746  0.00  0.00    -0.005 A 
ATOM     23  C   UNL d   1      25.902 -14.720  -1.143  0.00  0.00     0.014 A 
ATOM     24  C   UNL d   1      26.455 -13.713  -1.940  0.00  0.00     0.001 A 
ATOM     25  C   UNL d   1      26.475 -13.846  -3.330  0.00  0.00     0.000 A 
ATOM     26  C   UNL d   1      25.928 -14.975  -3.932  0.00  0.00     0.001 A 
ATOM     27  C   UNL d   1      25.336 -15.959  -3.143  0.00  0.00     0.014 A 
ENDBRANCH   5  22
BRANCH   3  28
ATOM     28  C   UNL d   1      21.754 -18.678  -0.148  0.00  0.00     0.058 A 
ATOM     29  C   UNL d   1      21.270 -18.951   1.137  0.00  0.00     0.031 A 
ATOM     30  C   UNL d   1      19.991 -19.502   1.296  0.00  0.00     0.002 A 
ATOM     31  C   UNL d   1      19.197 -19.769   0.180  0.00  0.00     0.000 A 
ATOM     32  C   UNL d   1      19.685 -19.502  -1.100  0.00  0.00     0.002 A 
ATOM     33  C   UNL d   1      20.957 -18.945  -1.268  0.00  0.00     0.031 A 
ENDBRANCH   3  28
TORSDOF 7
ENDMDL
MODEL 8
REMARK VINA RESULT:    -8.775      2.963      4.429
REMARK INTER + INTRA:         -13.054
REMARK INTER:                 -10.864
REMARK INTRA:                  -2.191
REMARK CONF_INDEPENDENT:        2.088
REMARK UNBOUND:                -2.191
REMARK  7 active torsions:
REMARK  status: ('A' for Active; 'I' for Inactive)
REMARK    1  A    between atoms: C_2  and  C_11 
REMARK    2  A    between atoms: C_2  and  O_3 
REMARK    3  A    between atoms: O_3  and  C_4 
REMARK       I    between atoms: C_11  and  N_13 
REMARK    4  A    between atoms: N_13  and  N_14 
REMARK    5  A    between atoms: C_15  and  C_16 
REMARK    6  A    between atoms: N_18  and  C_19 
REMARK    7  A    between atoms: C_26  and  C_27 
ROOT
ATOM      1  C   UNL d   1      24.822 -17.689  -0.106  0.00  0.00     0.032 A 
ATOM      2  C   UNL d   1      23.854 -18.549   0.369  0.00  0.00     0.134 A 
ATOM      3  N   UNL d   1      22.712 -18.329  -0.373  0.00  0.00    -0.244 N 
ATOM      4  N   UNL d   1      22.905 -17.377  -1.320  0.00  0.00    -0.166 NA
ATOM      5  C   UNL d   1      24.171 -16.969  -1.143  0.00  0.00     0.101 A 
ENDROOT
BRANCH   1   6
ATOM      6  C   UNL d   1      26.206 -17.530   0.292  0.00  0.00     0.154 C 
ATOM      7  N   UNL d   1      26.683 -16.349   0.487  0.00  0.00    -0.184 NA
BRANCH   7   8
ATOM      8  N   UNL d   1      27.984 -16.246   0.931  0.00  0.00    -0.245 N 
ATOM      9  C   UNL d   1      28.421 -14.980   1.306  0.00  0.00     0.266 C 
ATOM     10  O   UNL d   1      27.635 -14.027   1.409  0.00  0.00    -0.269 OA
ATOM     11  H   UNL d   1      28.550 -17.079   1.062  0.00  0.00     0.192 HD
BRANCH   9  12
ATOM     12  C   UNL d   1      29.956 -14.804   1.511  0.00  0.00     0.218 C 
ATOM     13  C   UNL d   1      30.146 -13.637   2.484  0.00  0.00     0.050 C 
BRANCH  12  14
ATOM     14  O   UNL d   1      30.738 -14.517   0.337  0.00  0.00    -0.337 OA
BRANCH  14  15
ATOM     15  C   UNL d   1      30.544 -15.284  -0.788  0.00  0.00     0.070 A 
ATOM     16  C   UNL d   1      30.090 -14.806  -2.021  0.00  0.00     0.038 A 
ATOM     17  C   UNL d   1      30.099 -15.615  -3.157  0.00  0.00     0.022 A 
ATOM     18  C   UNL d   1      30.457 -16.951  -3.048  0.00  0.00     0.011 A 
ATOM     19 BR   UNL d   1      30.405 -18.048  -4.584  0.00  0.00    -0.051 Br
ATOM     20  C   UNL d   1      30.831 -17.474  -1.812  0.00  0.00     0.022 A 
ATOM     21  C   UNL d   1      30.889 -16.637  -0.687  0.00  0.00     0.038 A 
ENDBRANCH  14  15
ENDBRANCH  12  14
ENDBRANCH   9  12
ENDBRANCH   7   8
ENDBRANCH   1   6
BRANCH   5  22
ATOM     22  C   UNL d   1      24.805 -16.006  -2.035  0.00  0.00    -0.005 A 
ATOM     23  C   UNL d   1      24.165 -14.824  -2.418  0.00  0.00     0.014 A 
ATOM     24  C   UNL d   1      24.769 -13.983  -3.356  0.00  0.00     0.001 A 
ATOM     25  C   UNL d   1      26.042 -14.278  -3.851  0.00  0.00     0.000 A 
ATOM     26  C   UNL d   1      26.710 -15.423  -3.423  0.00  0.00     0.001 A 
ATOM     27  C   UNL d   1      26.091 -16.286  -2.522  0.00  0.00     0.014 A 
ENDBRANCH   5  22
BRANCH   3  28
ATOM     28  C   UNL d   1      21.423 -18.876  -0.147  0.00  0.00     0.058 A 
ATOM     29  C   UNL d   1      21.030 -19.267   1.140  0.00  0.00     0.031 A 
ATOM     30  C   UNL d   1      19.783 -19.877   1.330  0.00  0.00     0.002 A 
ATOM     31  C   UNL d   1      18.929 -20.085   0.246  0.00  0.00     0.000 A 
ATOM     32  C   UNL d   1      19.325 -19.700  -1.035  0.00  0.00     0.002 A 
ATOM     33  C   UNL d   1      20.566 -19.085  -1.234  0.00  0.00     0.031 A 
ENDBRANCH   3  28
TORSDOF 7
ENDMDL
MODEL 9
REMARK VINA RESULT:    -7.965      3.779      5.278
REMARK INTER + INTRA:         -12.896
REMARK INTER:                 -10.053
REMARK INTRA:                  -2.844
REMARK CONF_INDEPENDENT:        2.088
REMARK UNBOUND:                -2.844
REMARK  7 active torsions:
REMARK  status: ('A' for Active; 'I' for Inactive)
REMARK    1  A    between atoms: C_2  and  C_11 
REMARK    2  A    between atoms: C_2  and  O_3 
REMARK    3  A    between atoms: O_3  and  C_4 
REMARK       I    between atoms: C_11  and  N_13 
REMARK    4  A    between atoms: N_13  and  N_14 
REMARK    5  A    between atoms: C_15  and  C_16 
REMARK    6  A    between atoms: N_18  and  C_19 
REMARK    7  A    between atoms: C_26  and  C_27 
ROOT
ATOM      1  C   UNL d   1      24.367 -15.956  -1.608  0.00  0.00     0.032 A 
ATOM      2  C   UNL d   1      23.075 -16.319  -1.288  0.00  0.00     0.134 A 
ATOM      3  N   UNL d   1      23.139 -17.548  -0.663  0.00  0.00    -0.244 N 
ATOM      4  N   UNL d   1      24.417 -17.986  -0.548  0.00  0.00    -0.166 NA
ATOM      5  C   UNL d   1      25.160 -17.039  -1.142  0.00  0.00     0.101 A 
ENDROOT
BRANCH   1   6
ATOM      6  C   UNL d   1      24.870 -14.754  -2.239  0.00  0.00     0.154 C 
ATOM      7  N   UNL d   1      24.458 -14.428  -3.415  0.00  0.00    -0.184 NA
BRANCH   7   8
ATOM      8  N   UNL d   1      24.909 -13.241  -3.950  0.00  0.00    -0.245 N 
ATOM      9  C   UNL d   1      26.149 -13.266  -4.578  0.00  0.00     0.266 C 
ATOM     10  O   UNL d   1      26.739 -14.332  -4.807  0.00  0.00    -0.269 OA
ATOM     11  H   UNL d   1      24.309 -12.420  -3.959  0.00  0.00     0.192 HD
BRANCH   9  12
ATOM     12  C   UNL d   1      26.793 -11.885  -4.907  0.00  0.00     0.218 C 
ATOM     13  C   UNL d   1      27.346 -11.978  -6.332  0.00  0.00     0.050 C 
BRANCH  12  14
ATOM     14  O   UNL d   1      27.870 -11.452  -4.054  0.00  0.00    -0.337 OA
BRANCH  14  15
ATOM     15  C   UNL d   1      27.953 -11.972  -2.784  0.00  0.00     0.070 A 
ATOM     16  C   UNL d   1      26.950 -11.894  -1.813  0.00  0.00     0.038 A 
ATOM     17  C   UNL d   1      27.043 -12.607  -0.618  0.00  0.00     0.022 A 
ATOM     18  C   UNL d   1      28.198 -13.319  -0.331  0.00  0.00     0.011 A 
ATOM     19 BR   UNL d   1      28.334 -14.229   1.318  0.00  0.00    -0.051 Br
ATOM     20  C   UNL d   1      29.250 -13.342  -1.245  0.00  0.00     0.022 A 
ATOM     21  C   UNL d   1      29.120 -12.682  -2.477  0.00  0.00     0.038 A 
ENDBRANCH  14  15
ENDBRANCH  12  14
ENDBRANCH   9  12
ENDBRANCH   7   8
ENDBRANCH   1   6
BRANCH   5  22
ATOM     22  C   UNL d   1      26.617 -17.090  -1.149  0.00  0.00    -0.005 A 
ATOM     23  C   UNL d   1      27.335 -17.766  -0.159  0.00  0.00     0.014 A 
ATOM     24  C   UNL d   1      28.731 -17.698  -0.149  0.00  0.00     0.001 A 
ATOM     25  C   UNL d   1      29.410 -17.026  -1.168  0.00  0.00     0.000 A 
ATOM     26  C   UNL d   1      28.700 -16.404  -2.191  0.00  0.00     0.001 A 
ATOM     27  C   UNL d   1      27.307 -16.432  -2.178  0.00  0.00     0.014 A 
ENDBRANCH   5  22
BRANCH   3  28
ATOM     28  C   UNL d   1      22.050 -18.377  -0.292  0.00  0.00     0.058 A 
ATOM     29  C   UNL d   1      21.219 -18.943  -1.266  0.00  0.00     0.031 A 
ATOM     30  C   UNL d   1      20.103 -19.697  -0.877  0.00  0.00     0.002 A 
ATOM     31  C   UNL d   1      19.826 -19.893   0.477  0.00  0.00     0.000 A 
ATOM     32  C   UNL d   1      20.652 -19.323   1.446  0.00  0.00     0.002 A 
ATOM     33  C   UNL d   1      21.771 -18.575   1.067  0.00  0.00     0.031 A 
ENDBRANCH   3  28
TORSDOF 7
ENDMDL
