MODEL 1
REMARK VINA RESULT:    -7.053      0.000      0.000
REMARK INTER + INTRA:         -10.686
REMARK INTER:                  -8.843
REMARK INTRA:                  -1.843
REMARK CONF_INDEPENDENT:        1.790
REMARK UNBOUND:                -1.843
REMARK  6 active torsions:
REMARK  status: ('A' for Active; 'I' for Inactive)
REMARK    1  A    between atoms: C_2  and  C_4 
REMARK    2  A    between atoms: C_4  and  N_5 
REMARK    3  A    between atoms: C_4  and  C_9 
REMARK       I    between atoms: N_5  and  C_6 
REMARK       I    between atoms: C_6  and  N_7 
REMARK       I    between atoms: C_9  and  N_11 
REMARK    4  A    between atoms: N_11  and  N_12 
REMARK       I    between atoms: N_12  and  C_13 
REMARK    5  A    between atoms: C_13  and  C_15 
REMARK    6  A    between atoms: C_19  and  N_20 
ROOT
ATOM      1  C   UNL d   1      21.242 -18.952  -0.224  0.00  0.00     0.259 C 
ATOM      2  O   UNL d   1      20.777 -18.072  -0.957  0.00  0.00    -0.269 OA
ATOM      3  N   UNL d   1      22.600 -18.942   0.052  0.00  0.00    -0.265 N 
ATOM      4  H   UNL d   1      23.089 -19.630   0.621  0.00  0.00     0.190 HD
ENDROOT
BRANCH   3   5
ATOM      5  N   UNL d   1      23.398 -17.891  -0.521  0.00  0.00    -0.263 N 
ATOM      6  C   UNL d   1      24.748 -17.804  -0.206  0.00  0.00     0.270 C 
ATOM      7  O   UNL d   1      25.289 -18.577   0.583  0.00  0.00    -0.266 OA
ATOM      8  H   UNL d   1      22.944 -17.316  -1.231  0.00  0.00     0.190 HD
BRANCH   6   9
ATOM      9  C   UNL d   1      25.552 -16.709  -0.842  0.00  0.00     0.035 A 
ATOM     10  C   UNL d   1      26.488 -16.002  -0.084  0.00  0.00     0.017 A 
ATOM     11  C   UNL d   1      27.101 -14.873  -0.624  0.00  0.00     0.003 A 
ATOM     12  C   UNL d   1      26.819 -14.478  -1.937  0.00  0.00     0.029 A 
ATOM     13  C   UNL d   1      25.881 -15.147  -2.740  0.00  0.00     0.030 A 
ATOM     14  C   UNL d   1      25.268 -16.277  -2.147  0.00  0.00     0.046 A 
BRANCH  13  15
ATOM     15  N   UNL d   1      25.561 -14.715  -4.020  0.00  0.00    -0.390 N 
ATOM     16  C   UNL d   1      26.239 -15.202  -5.228  0.00  0.00     0.149 C 
ATOM     17  C   UNL d   1      24.584 -13.655  -4.275  0.00  0.00     0.149 C 
ENDBRANCH  13  15
ENDBRANCH   6   9
ENDBRANCH   3   5
BRANCH   1  18
ATOM     18  C   UNL d   1      20.329 -20.049   0.492  0.00  0.00     0.183 C 
BRANCH  18  19
ATOM     19  C   UNL d   1      19.879 -19.492   1.899  0.00  0.00     0.009 C 
ATOM     20  C   UNL d   1      18.375 -19.274   2.105  0.00  0.00     0.012 C 
ATOM     21  C   UNL d   1      20.280 -20.450   3.031  0.00  0.00     0.012 C 
ENDBRANCH  18  19
BRANCH  18  22
ATOM     22  N   UNL d   1      19.195 -20.434  -0.381  0.00  0.00    -0.330 N 
ATOM     23  C   UNL d   1      18.103 -21.199  -0.141  0.00  0.00     0.314 C 
ATOM     24  N   UNL d   1      18.107 -22.021   0.921  0.00  0.00    -0.352 N 
ATOM     25  O   UNL d   1      17.107 -21.127  -0.863  0.00  0.00    -0.248 OA
ATOM     26  H   UNL d   1      18.868 -22.029   1.576  0.00  0.00     0.160 HD
ATOM     27  H   UNL d   1      17.193 -22.241   1.303  0.00  0.00     0.160 HD
ATOM     28  H   UNL d   1      19.067 -19.892  -1.229  0.00  0.00     0.165 HD
ENDBRANCH  18  22
ENDBRANCH   1  18
TORSDOF 6
ENDMDL
MODEL 2
REMARK VINA RESULT:    -6.484      1.410      2.111
REMARK INTER + INTRA:         -10.270
REMARK INTER:                  -8.274
REMARK INTRA:                  -1.996
REMARK CONF_INDEPENDENT:        1.790
REMARK UNBOUND:                -1.996
REMARK  6 active torsions:
REMARK  status: ('A' for Active; 'I' for Inactive)
REMARK    1  A    between atoms: C_2  and  C_4 
REMARK    2  A    between atoms: C_4  and  N_5 
REMARK    3  A    between atoms: C_4  and  C_9 
REMARK       I    between atoms: N_5  and  C_6 
REMARK       I    between atoms: C_6  and  N_7 
REMARK       I    between atoms: C_9  and  N_11 
REMARK    4  A    between atoms: N_11  and  N_12 
REMARK       I    between atoms: N_12  and  C_13 
REMARK    5  A    between atoms: C_13  and  C_15 
REMARK    6  A    between atoms: C_19  and  N_20 
ROOT
ATOM      1  C   UNL d   1      21.125 -19.005  -0.359  0.00  0.00     0.259 C 
ATOM      2  O   UNL d   1      20.640 -18.199  -1.160  0.00  0.00    -0.269 OA
ATOM      3  N   UNL d   1      22.482 -18.943  -0.089  0.00  0.00    -0.265 N 
ATOM      4  H   UNL d   1      22.987 -19.572   0.533  0.00  0.00     0.190 HD
ENDROOT
BRANCH   3   5
ATOM      5  N   UNL d   1      23.257 -17.926  -0.748  0.00  0.00    -0.263 N 
ATOM      6  C   UNL d   1      24.622 -17.836  -0.504  0.00  0.00     0.270 C 
ATOM      7  O   UNL d   1      25.197 -18.576   0.291  0.00  0.00    -0.266 OA
ATOM      8  H   UNL d   1      22.771 -17.380  -1.461  0.00  0.00     0.190 HD
BRANCH   6   9
ATOM      9  C   UNL d   1      25.398 -16.777  -1.229  0.00  0.00     0.035 A 
ATOM     10  C   UNL d   1      24.729 -15.841  -2.020  0.00  0.00     0.017 A 
ATOM     11  C   UNL d   1      25.460 -14.974  -2.831  0.00  0.00     0.003 A 
ATOM     12  C   UNL d   1      26.859 -15.006  -2.815  0.00  0.00     0.029 A 
ATOM     13  C   UNL d   1      27.583 -15.932  -2.045  0.00  0.00     0.030 A 
ATOM     14  C   UNL d   1      26.801 -16.805  -1.250  0.00  0.00     0.046 A 
BRANCH  13  15
ATOM     15  N   UNL d   1      28.969 -15.998  -2.079  0.00  0.00    -0.390 N 
ATOM     16  C   UNL d   1      29.750 -15.908  -3.319  0.00  0.00     0.149 C 
ATOM     17  C   UNL d   1      29.776 -16.266  -0.887  0.00  0.00     0.149 C 
ENDBRANCH  13  15
ENDBRANCH   6   9
ENDBRANCH   3   5
BRANCH   1  18
ATOM     18  C   UNL d   1      20.237 -20.059   0.447  0.00  0.00     0.183 C 
BRANCH  18  19
ATOM     19  C   UNL d   1      19.891 -19.452   1.863  0.00  0.00     0.009 C 
ATOM     20  C   UNL d   1      18.429 -19.057   2.105  0.00  0.00     0.012 C 
ATOM     21  C   UNL d   1      20.204 -20.450   2.988  0.00  0.00     0.012 C 
ENDBRANCH  18  19
BRANCH  18  22
ATOM     22  N   UNL d   1      19.040 -20.443  -0.339  0.00  0.00    -0.330 N 
ATOM     23  C   UNL d   1      17.965 -21.202  -0.016  0.00  0.00     0.314 C 
ATOM     24  N   UNL d   1      18.044 -22.021   1.045  0.00  0.00    -0.352 N 
ATOM     25  O   UNL d   1      16.919 -21.128  -0.664  0.00  0.00    -0.248 OA
ATOM     26  H   UNL d   1      18.851 -22.030   1.643  0.00  0.00     0.160 HD
ATOM     27  H   UNL d   1      17.160 -22.235   1.494  0.00  0.00     0.160 HD
ATOM     28  H   UNL d   1      18.852 -19.903  -1.177  0.00  0.00     0.165 HD
ENDBRANCH  18  22
ENDBRANCH   1  18
TORSDOF 6
ENDMDL
MODEL 3
REMARK VINA RESULT:    -6.221      4.963     10.149
REMARK INTER + INTRA:         -10.410
REMARK INTER:                  -8.010
REMARK INTRA:                  -2.400
REMARK CONF_INDEPENDENT:        1.790
REMARK UNBOUND:                -2.400
REMARK  6 active torsions:
REMARK  status: ('A' for Active; 'I' for Inactive)
REMARK    1  A    between atoms: C_2  and  C_4 
REMARK    2  A    between atoms: C_4  and  N_5 
REMARK    3  A    between atoms: C_4  and  C_9 
REMARK       I    between atoms: N_5  and  C_6 
REMARK       I    between atoms: C_6  and  N_7 
REMARK       I    between atoms: C_9  and  N_11 
REMARK    4  A    between atoms: N_11  and  N_12 
REMARK       I    between atoms: N_12  and  C_13 
REMARK    5  A    between atoms: C_13  and  C_15 
REMARK    6  A    between atoms: C_19  and  N_20 
ROOT
ATOM      1  C   UNL d   1      26.244 -10.395  -3.217  0.00  0.00     0.259 C 
ATOM      2  O   UNL d   1      27.057 -10.436  -2.286  0.00  0.00    -0.269 OA
ATOM      3  N   UNL d   1      25.494 -11.525  -3.498  0.00  0.00    -0.265 N 
ATOM      4  H   UNL d   1      24.817 -11.609  -4.254  0.00  0.00     0.190 HD
ENDROOT
BRANCH   3   5
ATOM      5  N   UNL d   1      25.691 -12.689  -2.675  0.00  0.00    -0.263 N 
ATOM      6  C   UNL d   1      25.244 -13.927  -3.118  0.00  0.00     0.270 C 
ATOM      7  O   UNL d   1      24.646 -14.067  -4.182  0.00  0.00    -0.266 OA
ATOM      8  H   UNL d   1      26.259 -12.558  -1.837  0.00  0.00     0.190 HD
BRANCH   6   9
ATOM      9  C   UNL d   1      25.489 -15.120  -2.241  0.00  0.00     0.035 A 
ATOM     10  C   UNL d   1      26.795 -15.557  -2.009  0.00  0.00     0.017 A 
ATOM     11  C   UNL d   1      27.011 -16.763  -1.346  0.00  0.00     0.003 A 
ATOM     12  C   UNL d   1      25.927 -17.509  -0.869  0.00  0.00     0.029 A 
ATOM     13  C   UNL d   1      24.593 -17.121  -1.081  0.00  0.00     0.030 A 
ATOM     14  C   UNL d   1      24.419 -15.899  -1.775  0.00  0.00     0.046 A 
BRANCH  13  15
ATOM     15  N   UNL d   1      23.521 -17.895  -0.658  0.00  0.00    -0.390 N 
ATOM     16  C   UNL d   1      23.634 -19.325  -0.346  0.00  0.00     0.149 C 
ATOM     17  C   UNL d   1      22.155 -17.376  -0.581  0.00  0.00     0.149 C 
ENDBRANCH  13  15
ENDBRANCH   6   9
ENDBRANCH   3   5
BRANCH   1  18
ATOM     18  C   UNL d   1      25.957  -9.065  -4.054  0.00  0.00     0.183 C 
BRANCH  18  19
ATOM     19  C   UNL d   1      25.133  -9.448  -5.345  0.00  0.00     0.009 C 
ATOM     20  C   UNL d   1      24.527  -8.289  -6.145  0.00  0.00     0.012 C 
ATOM     21  C   UNL d   1      26.010 -10.192  -6.364  0.00  0.00     0.012 C 
ENDBRANCH  18  19
BRANCH  18  22
ATOM     22  N   UNL d   1      25.288  -8.049  -3.207  0.00  0.00    -0.330 N 
ATOM     23  C   UNL d   1      25.764  -7.262  -2.212  0.00  0.00     0.314 C 
ATOM     24  N   UNL d   1      26.928  -7.588  -1.628  0.00  0.00    -0.352 N 
ATOM     25  O   UNL d   1      25.160  -6.247  -1.862  0.00  0.00    -0.248 OA
ATOM     26  H   UNL d   1      27.485  -8.357  -1.957  0.00  0.00     0.160 HD
ATOM     27  H   UNL d   1      27.442  -6.813  -1.222  0.00  0.00     0.160 HD
ATOM     28  H   UNL d   1      24.390  -7.706  -3.530  0.00  0.00     0.165 HD
ENDBRANCH  18  22
ENDBRANCH   1  18
TORSDOF 6
ENDMDL
MODEL 4
REMARK VINA RESULT:    -6.142      4.644     10.109
REMARK INTER + INTRA:         -10.329
REMARK INTER:                  -7.932
REMARK INTRA:                  -2.397
REMARK CONF_INDEPENDENT:        1.790
REMARK UNBOUND:                -2.397
REMARK  6 active torsions:
REMARK  status: ('A' for Active; 'I' for Inactive)
REMARK    1  A    between atoms: C_2  and  C_4 
REMARK    2  A    between atoms: C_4  and  N_5 
REMARK    3  A    between atoms: C_4  and  C_9 
REMARK       I    between atoms: N_5  and  C_6 
REMARK       I    between atoms: C_6  and  N_7 
REMARK       I    between atoms: C_9  and  N_11 
REMARK    4  A    between atoms: N_11  and  N_12 
REMARK       I    between atoms: N_12  and  C_13 
REMARK    5  A    between atoms: C_13  and  C_15 
REMARK    6  A    between atoms: C_19  and  N_20 
ROOT
ATOM      1  C   UNL d   1      26.455 -10.805  -4.812  0.00  0.00     0.259 C 
ATOM      2  O   UNL d   1      27.267 -10.588  -3.905  0.00  0.00    -0.269 OA
ATOM      3  N   UNL d   1      25.660 -11.937  -4.739  0.00  0.00    -0.265 N 
ATOM      4  H   UNL d   1      24.979 -12.223  -5.440  0.00  0.00     0.190 HD
ENDROOT
BRANCH   3   5
ATOM      5  N   UNL d   1      25.811 -12.797  -3.596  0.00  0.00    -0.263 N 
ATOM      6  C   UNL d   1      25.153 -14.020  -3.564  0.00  0.00     0.270 C 
ATOM      7  O   UNL d   1      24.407 -14.387  -4.469  0.00  0.00    -0.266 OA
ATOM      8  H   UNL d   1      26.497 -12.504  -2.899  0.00  0.00     0.190 HD
BRANCH   6   9
ATOM      9  C   UNL d   1      25.355 -14.898  -2.365  0.00  0.00     0.035 A 
ATOM     10  C   UNL d   1      26.592 -14.920  -1.718  0.00  0.00     0.017 A 
ATOM     11  C   UNL d   1      26.833 -15.863  -0.721  0.00  0.00     0.003 A 
ATOM     12  C   UNL d   1      25.823 -16.751  -0.333  0.00  0.00     0.029 A 
ATOM     13  C   UNL d   1      24.563 -16.779  -0.955  0.00  0.00     0.030 A 
ATOM     14  C   UNL d   1      24.368 -15.816  -1.974  0.00  0.00     0.046 A 
BRANCH  13  15
ATOM     15  N   UNL d   1      23.587 -17.702  -0.606  0.00  0.00    -0.390 N 
ATOM     16  C   UNL d   1      23.891 -19.057  -0.133  0.00  0.00     0.149 C 
ATOM     17  C   UNL d   1      22.157 -17.439  -0.775  0.00  0.00     0.149 C 
ENDBRANCH  13  15
ENDBRANCH   6   9
ENDBRANCH   3   5
BRANCH   1  18
ATOM     18  C   UNL d   1      26.221  -9.788  -6.020  0.00  0.00     0.183 C 
BRANCH  18  19
ATOM     19  C   UNL d   1      26.408 -10.567  -7.381  0.00  0.00     0.009 C 
ATOM     20  C   UNL d   1      26.824  -9.736  -8.600  0.00  0.00     0.012 C 
ATOM     21  C   UNL d   1      27.503 -11.638  -7.262  0.00  0.00     0.012 C 
ENDBRANCH  18  19
BRANCH  18  22
ATOM     22  N   UNL d   1      24.901  -9.125  -5.896  0.00  0.00    -0.330 N 
ATOM     23  C   UNL d   1      24.345  -8.424  -4.879  0.00  0.00     0.314 C 
ATOM     24  N   UNL d   1      24.865  -8.547  -3.647  0.00  0.00    -0.352 N 
ATOM     25  O   UNL d   1      23.397  -7.662  -5.077  0.00  0.00    -0.248 OA
ATOM     26  H   UNL d   1      25.694  -9.088  -3.478  0.00  0.00     0.160 HD
ATOM     27  H   UNL d   1      24.726  -7.749  -3.036  0.00  0.00     0.160 HD
ATOM     28  H   UNL d   1      24.389  -8.963  -6.758  0.00  0.00     0.165 HD
ENDBRANCH  18  22
ENDBRANCH   1  18
TORSDOF 6
ENDMDL
MODEL 5
REMARK VINA RESULT:    -5.987      3.575      6.351
REMARK INTER + INTRA:          -9.757
REMARK INTER:                  -7.777
REMARK INTRA:                  -1.980
REMARK CONF_INDEPENDENT:        1.790
REMARK UNBOUND:                -1.980
REMARK  6 active torsions:
REMARK  status: ('A' for Active; 'I' for Inactive)
REMARK    1  A    between atoms: C_2  and  C_4 
REMARK    2  A    between atoms: C_4  and  N_5 
REMARK    3  A    between atoms: C_4  and  C_9 
REMARK       I    between atoms: N_5  and  C_6 
REMARK       I    between atoms: C_6  and  N_7 
REMARK       I    between atoms: C_9  and  N_11 
REMARK    4  A    between atoms: N_11  and  N_12 
REMARK       I    between atoms: N_12  and  C_13 
REMARK    5  A    between atoms: C_13  and  C_15 
REMARK    6  A    between atoms: C_19  and  N_20 
ROOT
ATOM      1  C   UNL d   1      24.889 -15.789  -2.397  0.00  0.00     0.259 C 
ATOM      2  O   UNL d   1      24.114 -14.826  -2.403  0.00  0.00    -0.269 OA
ATOM      3  N   UNL d   1      26.047 -15.718  -3.153  0.00  0.00    -0.265 N 
ATOM      4  H   UNL d   1      26.739 -16.461  -3.239  0.00  0.00     0.190 HD
ENDROOT
BRANCH   3   5
ATOM      5  N   UNL d   1      26.298 -14.512  -3.895  0.00  0.00    -0.263 N 
ATOM      6  C   UNL d   1      27.134 -14.548  -5.004  0.00  0.00     0.270 C 
ATOM      7  O   UNL d   1      27.708 -15.575  -5.360  0.00  0.00    -0.266 OA
ATOM      8  H   UNL d   1      25.748 -13.695  -3.627  0.00  0.00     0.190 HD
BRANCH   6   9
ATOM      9  C   UNL d   1      27.351 -13.274  -5.765  0.00  0.00     0.035 A 
ATOM     10  C   UNL d   1      26.629 -12.128  -5.426  0.00  0.00     0.017 A 
ATOM     11  C   UNL d   1      26.698 -11.002  -6.243  0.00  0.00     0.003 A 
ATOM     12  C   UNL d   1      27.527 -11.000  -7.371  0.00  0.00     0.029 A 
ATOM     13  C   UNL d   1      28.268 -12.126  -7.764  0.00  0.00     0.030 A 
ATOM     14  C   UNL d   1      28.155 -13.255  -6.916  0.00  0.00     0.046 A 
BRANCH  13  15
ATOM     15  N   UNL d   1      29.042 -12.138  -8.916  0.00  0.00    -0.390 N 
ATOM     16  C   UNL d   1      28.485 -12.346 -10.259  0.00  0.00     0.149 C 
ATOM     17  C   UNL d   1      30.502 -12.042  -8.888  0.00  0.00     0.149 C 
ENDBRANCH  13  15
ENDBRANCH   6   9
ENDBRANCH   3   5
BRANCH   1  18
ATOM     18  C   UNL d   1      24.654 -17.079  -1.485  0.00  0.00     0.183 C 
BRANCH  18  19
ATOM     19  C   UNL d   1      25.468 -16.905  -0.144  0.00  0.00     0.009 C 
ATOM     20  C   UNL d   1      26.479 -18.006   0.196  0.00  0.00     0.012 C 
ATOM     21  C   UNL d   1      26.306 -15.617  -0.165  0.00  0.00     0.012 C 
ENDBRANCH  18  19
BRANCH  18  22
ATOM     22  N   UNL d   1      23.205 -17.309  -1.270  0.00  0.00    -0.330 N 
ATOM     23  C   UNL d   1      22.541 -18.337  -0.689  0.00  0.00     0.314 C 
ATOM     24  N   UNL d   1      23.177 -19.507  -0.520  0.00  0.00    -0.352 N 
ATOM     25  O   UNL d   1      21.382 -18.200  -0.293  0.00  0.00    -0.248 OA
ATOM     26  H   UNL d   1      24.148 -19.615  -0.749  0.00  0.00     0.160 HD
ATOM     27  H   UNL d   1      22.837 -20.078   0.247  0.00  0.00     0.160 HD
ATOM     28  H   UNL d   1      22.596 -16.503  -1.365  0.00  0.00     0.165 HD
ENDBRANCH  18  22
ENDBRANCH   1  18
TORSDOF 6
ENDMDL
MODEL 6
REMARK VINA RESULT:    -5.968      4.367      9.597
REMARK INTER + INTRA:          -9.951
REMARK INTER:                  -7.758
REMARK INTRA:                  -2.193
REMARK CONF_INDEPENDENT:        1.790
REMARK UNBOUND:                -2.193
REMARK  6 active torsions:
REMARK  status: ('A' for Active; 'I' for Inactive)
REMARK    1  A    between atoms: C_2  and  C_4 
REMARK    2  A    between atoms: C_4  and  N_5 
REMARK    3  A    between atoms: C_4  and  C_9 
REMARK       I    between atoms: N_5  and  C_6 
REMARK       I    between atoms: C_6  and  N_7 
REMARK       I    between atoms: C_9  and  N_11 
REMARK    4  A    between atoms: N_11  and  N_12 
REMARK       I    between atoms: N_12  and  C_13 
REMARK    5  A    between atoms: C_13  and  C_15 
REMARK    6  A    between atoms: C_19  and  N_20 
ROOT
ATOM      1  C   UNL d   1      27.376 -14.590  -5.447  0.00  0.00     0.259 C 
ATOM      2  O   UNL d   1      26.643 -15.574  -5.599  0.00  0.00    -0.269 OA
ATOM      3  N   UNL d   1      27.593 -14.113  -4.164  0.00  0.00    -0.265 N 
ATOM      4  H   UNL d   1      28.156 -13.299  -3.928  0.00  0.00     0.190 HD
ENDROOT
BRANCH   3   5
ATOM      5  N   UNL d   1      26.963 -14.803  -3.070  0.00  0.00    -0.263 N 
ATOM      6  C   UNL d   1      27.552 -15.949  -2.550  0.00  0.00     0.270 C 
ATOM      7  O   UNL d   1      28.584 -16.426  -3.016  0.00  0.00    -0.266 OA
ATOM      8  H   UNL d   1      26.154 -14.342  -2.652  0.00  0.00     0.190 HD
BRANCH   6   9
ATOM      9  C   UNL d   1      26.876 -16.626  -1.394  0.00  0.00     0.035 A 
ATOM     10  C   UNL d   1      27.643 -17.202  -0.379  0.00  0.00     0.017 A 
ATOM     11  C   UNL d   1      27.023 -17.982   0.595  0.00  0.00     0.003 A 
ATOM     12  C   UNL d   1      25.634 -18.146   0.588  0.00  0.00     0.029 A 
ATOM     13  C   UNL d   1      24.815 -17.596  -0.413  0.00  0.00     0.030 A 
ATOM     14  C   UNL d   1      25.487 -16.826  -1.393  0.00  0.00     0.046 A 
BRANCH  13  15
ATOM     15  N   UNL d   1      23.444 -17.812  -0.449  0.00  0.00    -0.390 N 
ATOM     16  C   UNL d   1      22.840 -19.148  -0.520  0.00  0.00     0.149 C 
ATOM     17  C   UNL d   1      22.474 -16.717  -0.520  0.00  0.00     0.149 C 
ENDBRANCH  13  15
ENDBRANCH   6   9
ENDBRANCH   3   5
BRANCH   1  18
ATOM     18  C   UNL d   1      28.155 -13.899  -6.657  0.00  0.00     0.183 C 
BRANCH  18  19
ATOM     19  C   UNL d   1      28.584 -12.445  -6.217  0.00  0.00     0.009 C 
ATOM     20  C   UNL d   1      29.664 -11.759  -7.063  0.00  0.00     0.012 C 
ATOM     21  C   UNL d   1      27.393 -11.475  -6.266  0.00  0.00     0.012 C 
ENDBRANCH  18  19
BRANCH  18  22
ATOM     22  N   UNL d   1      29.292 -14.743  -7.095  0.00  0.00    -0.330 N 
ATOM     23  C   UNL d   1      30.003 -15.693  -6.443  0.00  0.00     0.314 C 
ATOM     24  N   UNL d   1      29.945 -15.741  -5.102  0.00  0.00    -0.352 N 
ATOM     25  O   UNL d   1      30.673 -16.522  -7.062  0.00  0.00    -0.248 OA
ATOM     26  H   UNL d   1      29.334 -15.137  -4.581  0.00  0.00     0.160 HD
ATOM     27  H   UNL d   1      30.119 -16.653  -4.693  0.00  0.00     0.160 HD
ATOM     28  H   UNL d   1      29.457 -14.802  -8.095  0.00  0.00     0.165 HD
ENDBRANCH  18  22
ENDBRANCH   1  18
TORSDOF 6
ENDMDL
MODEL 7
REMARK VINA RESULT:    -5.784      4.125      6.229
REMARK INTER + INTRA:          -9.959
REMARK INTER:                  -7.574
REMARK INTRA:                  -2.385
REMARK CONF_INDEPENDENT:        1.790
REMARK UNBOUND:                -2.385
REMARK  6 active torsions:
REMARK  status: ('A' for Active; 'I' for Inactive)
REMARK    1  A    between atoms: C_2  and  C_4 
REMARK    2  A    between atoms: C_4  and  N_5 
REMARK    3  A    between atoms: C_4  and  C_9 
REMARK       I    between atoms: N_5  and  C_6 
REMARK       I    between atoms: C_6  and  N_7 
REMARK       I    between atoms: C_9  and  N_11 
REMARK    4  A    between atoms: N_11  and  N_12 
REMARK       I    between atoms: N_12  and  C_13 
REMARK    5  A    between atoms: C_13  and  C_15 
REMARK    6  A    between atoms: C_19  and  N_20 
ROOT
ATOM      1  C   UNL d   1      25.128 -16.120  -0.928  0.00  0.00     0.259 C 
ATOM      2  O   UNL d   1      25.569 -15.135  -0.325  0.00  0.00    -0.269 OA
ATOM      3  N   UNL d   1      25.231 -16.157  -2.309  0.00  0.00    -0.265 N 
ATOM      4  H   UNL d   1      24.881 -16.905  -2.905  0.00  0.00     0.190 HD
ENDROOT
BRANCH   3   5
ATOM      5  N   UNL d   1      25.864 -15.047  -2.970  0.00  0.00    -0.263 N 
ATOM      6  C   UNL d   1      25.946 -15.028  -4.357  0.00  0.00     0.270 C 
ATOM      7  O   UNL d   1      25.527 -15.951  -5.051  0.00  0.00    -0.266 OA
ATOM      8  H   UNL d   1      26.130 -14.260  -2.376  0.00  0.00     0.190 HD
BRANCH   6   9
ATOM      9  C   UNL d   1      26.593 -13.842  -5.009  0.00  0.00     0.035 A 
ATOM     10  C   UNL d   1      25.978 -12.590  -4.945  0.00  0.00     0.017 A 
ATOM     11  C   UNL d   1      26.484 -11.533  -5.698  0.00  0.00     0.003 A 
ATOM     12  C   UNL d   1      27.633 -11.709  -6.475  0.00  0.00     0.029 A 
ATOM     13  C   UNL d   1      28.288 -12.948  -6.584  0.00  0.00     0.030 A 
ATOM     14  C   UNL d   1      27.730 -13.999  -5.816  0.00  0.00     0.046 A 
BRANCH  13  15
ATOM     15  N   UNL d   1      29.393 -13.132  -7.404  0.00  0.00    -0.390 N 
ATOM     16  C   UNL d   1      30.364 -14.217  -7.217  0.00  0.00     0.149 C 
ATOM     17  C   UNL d   1      29.746 -12.197  -8.473  0.00  0.00     0.149 C 
ENDBRANCH  13  15
ENDBRANCH   6   9
ENDBRANCH   3   5
BRANCH   1  18
ATOM     18  C   UNL d   1      24.525 -17.393  -0.177  0.00  0.00     0.183 C 
BRANCH  18  19
ATOM     19  C   UNL d   1      23.267 -17.906  -0.981  0.00  0.00     0.009 C 
ATOM     20  C   UNL d   1      22.651 -19.234  -0.524  0.00  0.00     0.012 C 
ATOM     21  C   UNL d   1      22.106 -16.902  -0.895  0.00  0.00     0.012 C 
ENDBRANCH  18  19
BRANCH  18  22
ATOM     22  N   UNL d   1      25.568 -18.430   0.011  0.00  0.00    -0.330 N 
ATOM     23  C   UNL d   1      26.819 -18.356   0.524  0.00  0.00     0.314 C 
ATOM     24  N   UNL d   1      27.408 -17.154   0.626  0.00  0.00    -0.352 N 
ATOM     25  O   UNL d   1      27.405 -19.366   0.917  0.00  0.00    -0.248 OA
ATOM     26  H   UNL d   1      26.917 -16.307   0.400  0.00  0.00     0.160 HD
ATOM     27  H   UNL d   1      28.110 -17.075   1.355  0.00  0.00     0.160 HD
ATOM     28  H   UNL d   1      25.263 -19.397  -0.039  0.00  0.00     0.165 HD
ENDBRANCH  18  22
ENDBRANCH   1  18
TORSDOF 6
ENDMDL
MODEL 8
REMARK VINA RESULT:    -5.738      4.138      6.175
REMARK INTER + INTRA:          -9.917
REMARK INTER:                  -7.527
REMARK INTRA:                  -2.390
REMARK CONF_INDEPENDENT:        1.790
REMARK UNBOUND:                -2.390
REMARK  6 active torsions:
REMARK  status: ('A' for Active; 'I' for Inactive)
REMARK    1  A    between atoms: C_2  and  C_4 
REMARK    2  A    between atoms: C_4  and  N_5 
REMARK    3  A    between atoms: C_4  and  C_9 
REMARK       I    between atoms: N_5  and  C_6 
REMARK       I    between atoms: C_6  and  N_7 
REMARK       I    between atoms: C_9  and  N_11 
REMARK    4  A    between atoms: N_11  and  N_12 
REMARK       I    between atoms: N_12  and  C_13 
REMARK    5  A    between atoms: C_13  and  C_15 
REMARK    6  A    between atoms: C_19  and  N_20 
ROOT
ATOM      1  C   UNL d   1      25.082 -16.035  -1.001  0.00  0.00     0.259 C 
ATOM      2  O   UNL d   1      25.546 -15.059  -0.399  0.00  0.00    -0.269 OA
ATOM      3  N   UNL d   1      25.128 -16.048  -2.385  0.00  0.00    -0.265 N 
ATOM      4  H   UNL d   1      24.755 -16.787  -2.978  0.00  0.00     0.190 HD
ENDROOT
BRANCH   3   5
ATOM      5  N   UNL d   1      25.732 -14.926  -3.052  0.00  0.00    -0.263 N 
ATOM      6  C   UNL d   1      25.878 -14.945  -4.434  0.00  0.00     0.270 C 
ATOM      7  O   UNL d   1      25.541 -15.910  -5.116  0.00  0.00    -0.266 OA
ATOM      8  H   UNL d   1      25.928 -14.109  -2.473  0.00  0.00     0.190 HD
BRANCH   6   9
ATOM      9  C   UNL d   1      26.491 -13.746  -5.094  0.00  0.00     0.035 A 
ATOM     10  C   UNL d   1      27.744 -13.849  -5.701  0.00  0.00     0.017 A 
ATOM     11  C   UNL d   1      28.389 -12.700  -6.154  0.00  0.00     0.003 A 
ATOM     12  C   UNL d   1      27.763 -11.453  -6.048  0.00  0.00     0.029 A 
ATOM     13  C   UNL d   1      26.507 -11.289  -5.439  0.00  0.00     0.030 A 
ATOM     14  C   UNL d   1      25.896 -12.480  -4.977  0.00  0.00     0.046 A 
BRANCH  13  15
ATOM     15  N   UNL d   1      25.918 -10.042  -5.283  0.00  0.00    -0.390 N 
ATOM     16  C   UNL d   1      25.656  -9.129  -6.402  0.00  0.00     0.149 C 
ATOM     17  C   UNL d   1      25.595  -9.481  -3.970  0.00  0.00     0.149 C 
ENDBRANCH  13  15
ENDBRANCH   6   9
ENDBRANCH   3   5
BRANCH   1  18
ATOM     18  C   UNL d   1      24.512 -17.321  -0.247  0.00  0.00     0.183 C 
BRANCH  18  19
ATOM     19  C   UNL d   1      23.238 -17.839  -1.022  0.00  0.00     0.009 C 
ATOM     20  C   UNL d   1      22.649 -19.178  -0.564  0.00  0.00     0.012 C 
ATOM     21  C   UNL d   1      22.069 -16.849  -0.895  0.00  0.00     0.012 C 
ENDBRANCH  18  19
BRANCH  18  22
ATOM     22  N   UNL d   1      25.569 -18.349  -0.096  0.00  0.00    -0.330 N 
ATOM     23  C   UNL d   1      26.810 -18.282   0.442  0.00  0.00     0.314 C 
ATOM     24  N   UNL d   1      27.376 -17.077   0.619  0.00  0.00    -0.352 N 
ATOM     25  O   UNL d   1      27.407 -19.302   0.790  0.00  0.00    -0.248 OA
ATOM     26  H   UNL d   1      26.874 -16.228   0.430  0.00  0.00     0.160 HD
ATOM     27  H   UNL d   1      28.064 -17.026   1.363  0.00  0.00     0.160 HD
ATOM     28  H   UNL d   1      25.283 -19.317  -0.204  0.00  0.00     0.165 HD
ENDBRANCH  18  22
ENDBRANCH   1  18
TORSDOF 6
ENDMDL
MODEL 9
REMARK VINA RESULT:    -5.597      5.735     10.149
REMARK INTER + INTRA:          -9.820
REMARK INTER:                  -7.387
REMARK INTRA:                  -2.433
REMARK CONF_INDEPENDENT:        1.790
REMARK UNBOUND:                -2.433
REMARK  6 active torsions:
REMARK  status: ('A' for Active; 'I' for Inactive)
REMARK    1  A    between atoms: C_2  and  C_4 
REMARK    2  A    between atoms: C_4  and  N_5 
REMARK    3  A    between atoms: C_4  and  C_9 
REMARK       I    between atoms: N_5  and  C_6 
REMARK       I    between atoms: C_6  and  N_7 
REMARK       I    between atoms: C_9  and  N_11 
REMARK    4  A    between atoms: N_11  and  N_12 
REMARK       I    between atoms: N_12  and  C_13 
REMARK    5  A    between atoms: C_13  and  C_15 
REMARK    6  A    between atoms: C_19  and  N_20 
ROOT
ATOM      1  C   UNL d   1      26.292 -10.490  -3.328  0.00  0.00     0.259 C 
ATOM      2  O   UNL d   1      27.167 -10.566  -2.458  0.00  0.00    -0.269 OA
ATOM      3  N   UNL d   1      25.511 -11.604  -3.587  0.00  0.00    -0.265 N 
ATOM      4  H   UNL d   1      24.782 -11.659  -4.296  0.00  0.00     0.190 HD
ENDROOT
BRANCH   3   5
ATOM      5  N   UNL d   1      25.749 -12.792  -2.813  0.00  0.00    -0.263 N 
ATOM      6  C   UNL d   1      25.153 -13.989  -3.189  0.00  0.00     0.270 C 
ATOM      7  O   UNL d   1      24.389 -14.069  -4.148  0.00  0.00    -0.266 OA
ATOM      8  H   UNL d   1      26.448 -12.716  -2.073  0.00  0.00     0.190 HD
BRANCH   6   9
ATOM      9  C   UNL d   1      25.446 -15.211  -2.369  0.00  0.00     0.035 A 
ATOM     10  C   UNL d   1      24.411 -16.081  -2.020  0.00  0.00     0.017 A 
ATOM     11  C   UNL d   1      24.651 -17.111  -1.114  0.00  0.00     0.003 A 
ATOM     12  C   UNL d   1      25.935 -17.306  -0.594  0.00  0.00     0.029 A 
ATOM     13  C   UNL d   1      27.011 -16.457  -0.903  0.00  0.00     0.030 A 
ATOM     14  C   UNL d   1      26.719 -15.413  -1.813  0.00  0.00     0.046 A 
BRANCH  13  15
ATOM     15  N   UNL d   1      28.268 -16.620  -0.337  0.00  0.00    -0.390 N 
ATOM     16  C   UNL d   1      28.959 -15.562   0.410  0.00  0.00     0.149 C 
ATOM     17  C   UNL d   1      29.065 -17.835  -0.520  0.00  0.00     0.149 C 
ENDBRANCH  13  15
ENDBRANCH   6   9
ENDBRANCH   3   5
BRANCH   1  18
ATOM     18  C   UNL d   1      25.965  -9.134  -4.106  0.00  0.00     0.183 C 
BRANCH  18  19
ATOM     19  C   UNL d   1      25.119  -9.481  -5.394  0.00  0.00     0.009 C 
ATOM     20  C   UNL d   1      24.410  -8.313  -6.089  0.00  0.00     0.012 C 
ATOM     21  C   UNL d   1      26.004 -10.093  -6.491  0.00  0.00     0.012 C 
ENDBRANCH  18  19
BRANCH  18  22
ATOM     22  N   UNL d   1      25.297  -8.164  -3.206  0.00  0.00    -0.330 N 
ATOM     23  C   UNL d   1      25.774  -7.432  -2.170  0.00  0.00     0.314 C 
ATOM     24  N   UNL d   1      26.937  -7.791  -1.604  0.00  0.00    -0.352 N 
ATOM     25  O   UNL d   1      25.171  -6.436  -1.766  0.00  0.00    -0.248 OA
ATOM     26  H   UNL d   1      27.492  -8.542  -1.974  0.00  0.00     0.160 HD
ATOM     27  H   UNL d   1      27.452  -7.040  -1.157  0.00  0.00     0.160 HD
ATOM     28  H   UNL d   1      24.399  -7.802  -3.511  0.00  0.00     0.165 HD
ENDBRANCH  18  22
ENDBRANCH   1  18
TORSDOF 6
ENDMDL
