MODEL 1
REMARK VINA RESULT:   -10.082      0.000      0.000
REMARK INTER + INTRA:         -13.941
REMARK INTER:                 -12.170
REMARK INTRA:                  -1.771
REMARK CONF_INDEPENDENT:        2.088
REMARK UNBOUND:                -1.771
REMARK  7 active torsions:
REMARK  status: ('A' for Active; 'I' for Inactive)
REMARK    1  A    between atoms: C_2  and  C_3 
REMARK       I    between atoms: C_2  and  N_15 
REMARK    2  A    between atoms: C_3  and  N_4 
REMARK    3  A    between atoms: C_6  and  C_7 
REMARK    4  A    between atoms: N_15  and  C_16 
REMARK    5  A    between atoms: C_17  and  C_16 
REMARK    6  A    between atoms: C_17  and  C_27 
REMARK    7  A    between atoms: C_17  and  C_18 
ROOT
ATOM      1  C   UNL d   1      26.287 -14.367  -0.094  0.00  0.00     0.136 C 
ENDROOT
BRANCH   1   2
ATOM      2  N   UNL d   1      27.587 -13.761  -0.038  0.00  0.00    -0.359 N 
ATOM      3  C   UNL d   1      28.244 -13.276   1.040  0.00  0.00     0.237 C 
ATOM      4  O   UNL d   1      29.187 -12.560   0.708  0.00  0.00    -0.272 OA
ATOM      5  H   UNL d   1      27.968 -13.320  -0.874  0.00  0.00     0.162 HD
BRANCH   3   6
ATOM      6  C   UNL d   1      27.776 -13.591   2.479  0.00  0.00     0.251 C 
BRANCH   6   7
ATOM      7  N   UNL d   1      28.658 -14.390   3.338  0.00  0.00    -0.247 N 
ATOM      8  N   UNL d   1      28.157 -15.230   4.361  0.00  0.00    -0.199 NA
ATOM      9  C   UNL d   1      29.194 -15.077   5.406  0.00  0.00     0.265 C 
ATOM     10  H   UNL d   1      28.283 -16.184   4.009  0.00  0.00     0.150 HD
ATOM     11  O   UNL d   1      30.392 -14.681   4.730  0.00  0.00    -0.275 OA
ATOM     12  C   UNL d   1      30.005 -14.147   3.527  0.00  0.00     0.379 C 
ATOM     13  O   UNL d   1      30.754 -13.558   2.768  0.00  0.00    -0.237 OA
BRANCH   9  14
ATOM     14  C   UNL d   1      28.814 -13.974   6.374  0.00  0.00     0.027 C 
ATOM     15  C   UNL d   1      29.171 -13.888   7.704  0.00  0.00     0.019 C 
ATOM     16  C   UNL d   1      28.968 -12.605   8.266  0.00  0.00     0.008 C 
ATOM     17  C   UNL d   1      28.166 -11.839   7.458  0.00  0.00     0.050 C 
ATOM     18  S   UNL d   1      27.888 -12.598   5.936  0.00  0.00    -0.102 SA
ENDBRANCH   9  14
ENDBRANCH   6   7
ENDBRANCH   3   6
ENDBRANCH   1   2
BRANCH   1  19
ATOM     19  C   UNL d   1      26.171 -15.495  -1.170  0.00  0.00     0.069 C 
BRANCH  19  20
ATOM     20  C   UNL d   1      25.073 -16.546  -0.921  0.00  0.00    -0.026 C 
ATOM     21  C   UNL d   1      23.727 -16.318  -1.294  0.00  0.00     0.009 C 
ATOM     22  C   UNL d   1      22.668 -17.044  -0.767  0.00  0.00     0.001 C 
ATOM     23  C   UNL d   1      22.940 -18.190  -0.051  0.00  0.00     0.002 C 
ATOM     24  C   UNL d   1      24.266 -18.577   0.145  0.00  0.00     0.024 C 
ATOM     25  C   UNL d   1      25.323 -17.733  -0.221  0.00  0.00     0.041 C 
ATOM     26 CL   UNL d   1      26.919 -18.197   0.237  0.00  0.00    -0.084 Cl
ENDBRANCH  19  20
BRANCH  19  27
ATOM     27  C   UNL d   1      26.046 -14.817  -2.510  0.00  0.00    -0.040 A 
ATOM     28  C   UNL d   1      26.871 -14.919  -3.562  0.00  0.00    -0.005 A 
ATOM     29  C   UNL d   1      28.108 -15.599  -3.789  0.00  0.00     0.014 A 
ATOM     30  C   UNL d   1      26.356 -13.943  -4.531  0.00  0.00     0.038 A 
ATOM     31  C   UNL d   1      28.809 -15.339  -4.894  0.00  0.00     0.001 A 
ATOM     32  C   UNL d   1      28.303 -14.419  -5.891  0.00  0.00     0.002 A 
ATOM     33  C   UNL d   1      27.147 -13.736  -5.759  0.00  0.00     0.030 A 
ATOM     34  N   UNL d   1      25.280 -13.380  -4.125  0.00  0.00    -0.385 N 
ATOM     35  C   UNL d   1      24.920 -13.866  -2.776  0.00  0.00     0.155 A 
ATOM     36  H   UNL d   1      24.773 -12.681  -4.663  0.00  0.00     0.160 HD
ENDBRANCH  19  27
ENDBRANCH   1  19
TORSDOF 7
ENDMDL
MODEL 2
REMARK VINA RESULT:    -9.948      1.422      4.155
REMARK INTER + INTRA:         -13.947
REMARK INTER:                 -12.037
REMARK INTRA:                  -1.910
REMARK CONF_INDEPENDENT:        2.088
REMARK UNBOUND:                -1.910
REMARK  7 active torsions:
REMARK  status: ('A' for Active; 'I' for Inactive)
REMARK    1  A    between atoms: C_2  and  C_3 
REMARK       I    between atoms: C_2  and  N_15 
REMARK    2  A    between atoms: C_3  and  N_4 
REMARK    3  A    between atoms: C_6  and  C_7 
REMARK    4  A    between atoms: N_15  and  C_16 
REMARK    5  A    between atoms: C_17  and  C_16 
REMARK    6  A    between atoms: C_17  and  C_27 
REMARK    7  A    between atoms: C_17  and  C_18 
ROOT
ATOM      1  C   UNL d   1      27.546 -14.589   0.114  0.00  0.00     0.136 C 
ENDROOT
BRANCH   1   2
ATOM      2  N   UNL d   1      27.691 -13.226   0.535  0.00  0.00    -0.359 N 
ATOM      3  C   UNL d   1      27.394 -12.679   1.736  0.00  0.00     0.237 C 
ATOM      4  O   UNL d   1      27.348 -11.452   1.673  0.00  0.00    -0.272 OA
ATOM      5  H   UNL d   1      27.695 -12.485  -0.165  0.00  0.00     0.162 HD
BRANCH   3   6
ATOM      6  C   UNL d   1      27.113 -13.559   2.976  0.00  0.00     0.251 C 
BRANCH   6   7
ATOM      7  N   UNL d   1      28.239 -14.270   3.593  0.00  0.00    -0.247 N 
ATOM      8  N   UNL d   1      28.058 -15.210   4.635  0.00  0.00    -0.199 NA
ATOM      9  C   UNL d   1      29.258 -14.966   5.468  0.00  0.00     0.265 C 
ATOM     10  H   UNL d   1      28.225 -16.124   4.203  0.00  0.00     0.150 HD
ATOM     11  O   UNL d   1      30.239 -14.389   4.600  0.00  0.00    -0.275 OA
ATOM     12  C   UNL d   1      29.558 -13.861   3.533  0.00  0.00     0.379 C 
ATOM     13  O   UNL d   1      30.063 -13.148   2.684  0.00  0.00    -0.237 OA
BRANCH   9  14
ATOM     14  C   UNL d   1      28.949 -13.963   6.562  0.00  0.00     0.027 C 
ATOM     15  C   UNL d   1      29.282 -14.074   7.897  0.00  0.00     0.019 C 
ATOM     16  C   UNL d   1      29.174 -12.858   8.613  0.00  0.00     0.008 C 
ATOM     17  C   UNL d   1      28.459 -11.931   7.898  0.00  0.00     0.050 C 
ATOM     18  S   UNL d   1      28.153 -12.468   6.289  0.00  0.00    -0.102 SA
ENDBRANCH   9  14
ENDBRANCH   6   7
ENDBRANCH   3   6
ENDBRANCH   1   2
BRANCH   1  19
ATOM     19  C   UNL d   1      26.252 -14.848  -0.724  0.00  0.00     0.069 C 
BRANCH  19  20
ATOM     20  C   UNL d   1      26.336 -14.478  -2.217  0.00  0.00    -0.026 C 
ATOM     21  C   UNL d   1      25.400 -13.606  -2.821  0.00  0.00     0.009 C 
ATOM     22  C   UNL d   1      25.210 -13.543  -4.195  0.00  0.00     0.001 C 
ATOM     23  C   UNL d   1      26.127 -14.156  -5.020  0.00  0.00     0.002 C 
ATOM     24  C   UNL d   1      27.206 -14.841  -4.459  0.00  0.00     0.024 C 
ATOM     25  C   UNL d   1      27.275 -15.062  -3.077  0.00  0.00     0.041 C 
ATOM     26 CL   UNL d   1      28.530 -16.087  -2.489  0.00  0.00    -0.084 Cl
ENDBRANCH  19  20
BRANCH  19  27
ATOM     27  C   UNL d   1      25.856 -16.284  -0.494  0.00  0.00    -0.040 A 
ATOM     28  C   UNL d   1      24.646 -16.838  -0.656  0.00  0.00    -0.005 A 
ATOM     29  C   UNL d   1      23.362 -16.325  -1.020  0.00  0.00     0.014 A 
ATOM     30  C   UNL d   1      24.797 -18.209  -0.152  0.00  0.00     0.038 A 
ATOM     31  C   UNL d   1      22.284 -17.101  -0.895  0.00  0.00     0.001 A 
ATOM     32  C   UNL d   1      22.407 -18.472  -0.448  0.00  0.00     0.002 A 
ATOM     33  C   UNL d   1      23.577 -19.037  -0.086  0.00  0.00     0.030 A 
ATOM     34  N   UNL d   1      26.002 -18.466   0.195  0.00  0.00    -0.385 N 
ATOM     35  C   UNL d   1      26.857 -17.274   0.016  0.00  0.00     0.155 A 
ATOM     36  H   UNL d   1      26.302 -19.367   0.562  0.00  0.00     0.160 HD
ENDBRANCH  19  27
ENDBRANCH   1  19
TORSDOF 7
ENDMDL
MODEL 3
REMARK VINA RESULT:    -9.759      1.627      4.463
REMARK INTER + INTRA:         -13.894
REMARK INTER:                 -11.847
REMARK INTRA:                  -2.047
REMARK CONF_INDEPENDENT:        2.088
REMARK UNBOUND:                -2.047
REMARK  7 active torsions:
REMARK  status: ('A' for Active; 'I' for Inactive)
REMARK    1  A    between atoms: C_2  and  C_3 
REMARK       I    between atoms: C_2  and  N_15 
REMARK    2  A    between atoms: C_3  and  N_4 
REMARK    3  A    between atoms: C_6  and  C_7 
REMARK    4  A    between atoms: N_15  and  C_16 
REMARK    5  A    between atoms: C_17  and  C_16 
REMARK    6  A    between atoms: C_17  and  C_27 
REMARK    7  A    between atoms: C_17  and  C_18 
ROOT
ATOM      1  C   UNL d   1      27.663 -14.575  -0.172  0.00  0.00     0.136 C 
ENDROOT
BRANCH   1   2
ATOM      2  N   UNL d   1      27.506 -13.188   0.161  0.00  0.00    -0.359 N 
ATOM      3  C   UNL d   1      27.091 -12.643   1.326  0.00  0.00     0.237 C 
ATOM      4  O   UNL d   1      26.779 -11.462   1.186  0.00  0.00    -0.272 OA
ATOM      5  H   UNL d   1      27.353 -12.511  -0.585  0.00  0.00     0.162 HD
BRANCH   3   6
ATOM      6  C   UNL d   1      27.001 -13.482   2.622  0.00  0.00     0.251 C 
BRANCH   6   7
ATOM      7  N   UNL d   1      28.237 -14.062   3.162  0.00  0.00    -0.247 N 
ATOM      8  N   UNL d   1      28.226 -15.112   4.110  0.00  0.00    -0.199 NA
ATOM      9  C   UNL d   1      29.391 -14.761   4.955  0.00  0.00     0.265 C 
ATOM     10  H   UNL d   1      28.525 -15.944   3.592  0.00  0.00     0.150 HD
ATOM     11  O   UNL d   1      30.252 -13.958   4.141  0.00  0.00    -0.275 OA
ATOM     12  C   UNL d   1      29.474 -13.447   3.133  0.00  0.00     0.379 C 
ATOM     13  O   UNL d   1      29.845 -12.587   2.353  0.00  0.00    -0.237 OA
BRANCH   9  14
ATOM     14  C   UNL d   1      28.953 -13.926   6.142  0.00  0.00     0.027 C 
ATOM     15  C   UNL d   1      29.356 -14.084   7.452  0.00  0.00     0.019 C 
ATOM     16  C   UNL d   1      29.061 -12.972   8.276  0.00  0.00     0.008 C 
ATOM     17  C   UNL d   1      28.161 -12.136   7.666  0.00  0.00     0.050 C 
ATOM     18  S   UNL d   1      27.889 -12.585   6.025  0.00  0.00    -0.102 SA
ENDBRANCH   9  14
ENDBRANCH   6   7
ENDBRANCH   3   6
ENDBRANCH   1   2
BRANCH   1  19
ATOM     19  C   UNL d   1      26.623 -15.086  -1.221  0.00  0.00     0.069 C 
BRANCH  19  20
ATOM     20  C   UNL d   1      27.113 -15.128  -2.682  0.00  0.00    -0.026 C 
ATOM     21  C   UNL d   1      28.385 -15.641  -3.025  0.00  0.00     0.009 C 
ATOM     22  C   UNL d   1      29.007 -15.360  -4.234  0.00  0.00     0.001 C 
ATOM     23  C   UNL d   1      28.269 -14.776  -5.240  0.00  0.00     0.002 C 
ATOM     24  C   UNL d   1      26.928 -14.462  -5.013  0.00  0.00     0.024 C 
ATOM     25  C   UNL d   1      26.373 -14.568  -3.731  0.00  0.00     0.041 C 
ATOM     26 CL   UNL d   1      24.773 -13.970  -3.496  0.00  0.00    -0.084 Cl
ENDBRANCH  19  20
BRANCH  19  27
ATOM     27  C   UNL d   1      26.117 -16.418  -0.731  0.00  0.00    -0.040 A 
ATOM     28  C   UNL d   1      24.859 -16.880  -0.761  0.00  0.00    -0.005 A 
ATOM     29  C   UNL d   1      23.610 -16.325  -1.178  0.00  0.00     0.014 A 
ATOM     30  C   UNL d   1      24.915 -18.150  -0.027  0.00  0.00     0.038 A 
ATOM     31  C   UNL d   1      22.475 -16.966  -0.890  0.00  0.00     0.001 A 
ATOM     32  C   UNL d   1      22.501 -18.244  -0.210  0.00  0.00     0.002 A 
ATOM     33  C   UNL d   1      23.633 -18.841   0.217  0.00  0.00     0.030 A 
ATOM     34  N   UNL d   1      26.107 -18.451   0.330  0.00  0.00    -0.385 N 
ATOM     35  C   UNL d   1      27.051 -17.390  -0.079  0.00  0.00     0.155 A 
ATOM     36  H   UNL d   1      26.345 -19.297   0.843  0.00  0.00     0.160 HD
ENDBRANCH  19  27
ENDBRANCH   1  19
TORSDOF 7
ENDMDL
MODEL 4
REMARK VINA RESULT:    -9.509      1.016      1.619
REMARK INTER + INTRA:         -13.682
REMARK INTER:                 -11.597
REMARK INTRA:                  -2.084
REMARK CONF_INDEPENDENT:        2.088
REMARK UNBOUND:                -2.084
REMARK  7 active torsions:
REMARK  status: ('A' for Active; 'I' for Inactive)
REMARK    1  A    between atoms: C_2  and  C_3 
REMARK       I    between atoms: C_2  and  N_15 
REMARK    2  A    between atoms: C_3  and  N_4 
REMARK    3  A    between atoms: C_6  and  C_7 
REMARK    4  A    between atoms: N_15  and  C_16 
REMARK    5  A    between atoms: C_17  and  C_16 
REMARK    6  A    between atoms: C_17  and  C_27 
REMARK    7  A    between atoms: C_17  and  C_18 
ROOT
ATOM      1  C   UNL d   1      26.307 -14.079  -0.163  0.00  0.00     0.136 C 
ENDROOT
BRANCH   1   2
ATOM      2  N   UNL d   1      27.473 -13.287   0.107  0.00  0.00    -0.359 N 
ATOM      3  C   UNL d   1      27.989 -12.929   1.304  0.00  0.00     0.237 C 
ATOM      4  O   UNL d   1      28.800 -12.012   1.190  0.00  0.00    -0.272 OA
ATOM      5  H   UNL d   1      27.801 -12.628  -0.597  0.00  0.00     0.162 HD
BRANCH   3   6
ATOM      6  C   UNL d   1      27.529 -13.606   2.616  0.00  0.00     0.251 C 
BRANCH   6   7
ATOM      7  N   UNL d   1      28.515 -14.373   3.385  0.00  0.00    -0.247 N 
ATOM      8  N   UNL d   1      28.142 -15.223   4.454  0.00  0.00    -0.199 NA
ATOM      9  C   UNL d   1      29.273 -15.034   5.392  0.00  0.00     0.265 C 
ATOM     10  H   UNL d   1      28.263 -16.175   4.094  0.00  0.00     0.150 HD
ATOM     11  O   UNL d   1      30.386 -14.605   4.600  0.00  0.00    -0.275 OA
ATOM     12  C   UNL d   1      29.866 -14.089   3.440  0.00  0.00     0.379 C 
ATOM     13  O   UNL d   1      30.519 -13.482   2.610  0.00  0.00    -0.237 OA
BRANCH   9  14
ATOM     14  C   UNL d   1      28.956 -13.938   6.391  0.00  0.00     0.027 C 
ATOM     15  C   UNL d   1      29.567 -13.737   7.612  0.00  0.00     0.019 C 
ATOM     16  C   UNL d   1      29.313 -12.462   8.171  0.00  0.00     0.008 C 
ATOM     17  C   UNL d   1      28.266 -11.847   7.533  0.00  0.00     0.050 C 
ATOM     18  S   UNL d   1      27.783 -12.715   6.125  0.00  0.00    -0.102 SA
ENDBRANCH   9  14
ENDBRANCH   6   7
ENDBRANCH   3   6
ENDBRANCH   1   2
BRANCH   1  19
ATOM     19  C   UNL d   1      26.620 -15.593  -0.391  0.00  0.00     0.069 C 
BRANCH  19  20
ATOM     20  C   UNL d   1      25.394 -16.515  -0.536  0.00  0.00    -0.026 C 
ATOM     21  C   UNL d   1      24.176 -16.052  -1.087  0.00  0.00     0.009 C 
ATOM     22  C   UNL d   1      22.967 -16.708  -0.895  0.00  0.00     0.001 C 
ATOM     23  C   UNL d   1      22.980 -17.981  -0.370  0.00  0.00     0.002 C 
ATOM     24  C   UNL d   1      24.197 -18.569  -0.024  0.00  0.00     0.024 C 
ATOM     25  C   UNL d   1      25.384 -17.824  -0.038  0.00  0.00     0.041 C 
ATOM     26 CL   UNL d   1      26.807 -18.565   0.594  0.00  0.00    -0.084 Cl
ENDBRANCH  19  20
BRANCH  19  27
ATOM     27  C   UNL d   1      27.563 -15.678  -1.564  0.00  0.00    -0.040 A 
ATOM     28  C   UNL d   1      27.371 -15.213  -2.806  0.00  0.00    -0.005 A 
ATOM     29  C   UNL d   1      26.280 -14.565  -3.464  0.00  0.00     0.014 A 
ATOM     30  C   UNL d   1      28.532 -15.697  -3.565  0.00  0.00     0.038 A 
ATOM     31  C   UNL d   1      26.313 -14.403  -4.789  0.00  0.00     0.001 A 
ATOM     32  C   UNL d   1      27.464 -14.826  -5.557  0.00  0.00     0.002 A 
ATOM     33  C   UNL d   1      28.536 -15.443  -5.019  0.00  0.00     0.030 A 
ATOM     34  N   UNL d   1      29.370 -16.316  -2.822  0.00  0.00    -0.385 N 
ATOM     35  C   UNL d   1      28.876 -16.385  -1.431  0.00  0.00     0.155 A 
ATOM     36  H   UNL d   1      30.239 -16.718  -3.168  0.00  0.00     0.160 HD
ENDBRANCH  19  27
ENDBRANCH   1  19
TORSDOF 7
ENDMDL
MODEL 5
REMARK VINA RESULT:    -8.993      1.550      2.266
REMARK INTER + INTRA:         -13.135
REMARK INTER:                 -11.081
REMARK INTRA:                  -2.054
REMARK CONF_INDEPENDENT:        2.088
REMARK UNBOUND:                -2.054
REMARK  7 active torsions:
REMARK  status: ('A' for Active; 'I' for Inactive)
REMARK    1  A    between atoms: C_2  and  C_3 
REMARK       I    between atoms: C_2  and  N_15 
REMARK    2  A    between atoms: C_3  and  N_4 
REMARK    3  A    between atoms: C_6  and  C_7 
REMARK    4  A    between atoms: N_15  and  C_16 
REMARK    5  A    between atoms: C_17  and  C_16 
REMARK    6  A    between atoms: C_17  and  C_27 
REMARK    7  A    between atoms: C_17  and  C_18 
ROOT
ATOM      1  C   UNL d   1      26.524 -14.542  -0.142  0.00  0.00     0.136 C 
ENDROOT
BRANCH   1   2
ATOM      2  N   UNL d   1      27.585 -14.890   0.760  0.00  0.00    -0.359 N 
ATOM      3  C   UNL d   1      28.637 -14.137   1.152  0.00  0.00     0.237 C 
ATOM      4  O   UNL d   1      29.511 -14.823   1.680  0.00  0.00    -0.272 OA
ATOM      5  H   UNL d   1      27.821 -15.871   0.897  0.00  0.00     0.162 HD
BRANCH   3   6
ATOM      6  C   UNL d   1      28.682 -12.614   0.890  0.00  0.00     0.251 C 
BRANCH   6   7
ATOM      7  N   UNL d   1      28.309 -11.709   1.983  0.00  0.00    -0.247 N 
ATOM      8  N   UNL d   1      29.231 -11.309   2.980  0.00  0.00    -0.199 NA
ATOM      9  C   UNL d   1      28.364 -11.247   4.179  0.00  0.00     0.265 C 
ATOM     10  H   UNL d   1      29.448 -10.331   2.767  0.00  0.00     0.150 HD
ATOM     11  O   UNL d   1      27.030 -11.043   3.701  0.00  0.00    -0.275 OA
ATOM     12  C   UNL d   1      27.013 -11.462   2.395  0.00  0.00     0.379 C 
ATOM     13  O   UNL d   1      25.999 -11.586   1.730  0.00  0.00    -0.237 OA
BRANCH   9  14
ATOM     14  C   UNL d   1      28.399 -12.564   4.929  0.00  0.00     0.027 C 
ATOM     15  C   UNL d   1      28.028 -13.799   4.439  0.00  0.00     0.019 C 
ATOM     16  C   UNL d   1      28.479 -14.883   5.229  0.00  0.00     0.008 C 
ATOM     17  C   UNL d   1      28.897 -14.450   6.461  0.00  0.00     0.050 C 
ATOM     18  S   UNL d   1      28.966 -12.730   6.540  0.00  0.00    -0.102 SA
ENDBRANCH   9  14
ENDBRANCH   6   7
ENDBRANCH   3   6
ENDBRANCH   1   2
BRANCH   1  19
ATOM     19  C   UNL d   1      26.274 -15.614  -1.252  0.00  0.00     0.069 C 
BRANCH  19  20
ATOM     20  C   UNL d   1      25.127 -16.605  -0.978  0.00  0.00    -0.026 C 
ATOM     21  C   UNL d   1      23.794 -16.325  -1.362  0.00  0.00     0.009 C 
ATOM     22  C   UNL d   1      22.701 -16.986  -0.818  0.00  0.00     0.001 C 
ATOM     23  C   UNL d   1      22.919 -18.123  -0.071  0.00  0.00     0.002 C 
ATOM     24  C   UNL d   1      24.224 -18.567   0.139  0.00  0.00     0.024 C 
ATOM     25  C   UNL d   1      25.320 -17.783  -0.246  0.00  0.00     0.041 C 
ATOM     26 CL   UNL d   1      26.892 -18.309   0.230  0.00  0.00    -0.084 Cl
ENDBRANCH  19  20
BRANCH  19  27
ATOM     27  C   UNL d   1      26.114 -14.872  -2.554  0.00  0.00    -0.040 A 
ATOM     28  C   UNL d   1      26.916 -14.916  -3.627  0.00  0.00    -0.005 A 
ATOM     29  C   UNL d   1      28.152 -15.575  -3.915  0.00  0.00     0.014 A 
ATOM     30  C   UNL d   1      26.373 -13.898  -4.536  0.00  0.00     0.038 A 
ATOM     31  C   UNL d   1      28.826 -15.256  -5.021  0.00  0.00     0.001 A 
ATOM     32  C   UNL d   1      28.293 -14.292  -5.960  0.00  0.00     0.002 A 
ATOM     33  C   UNL d   1      27.135 -13.626  -5.770  0.00  0.00     0.030 A 
ATOM     34  N   UNL d   1      25.303 -13.365  -4.079  0.00  0.00    -0.385 N 
ATOM     35  C   UNL d   1      24.976 -13.919  -2.749  0.00  0.00     0.155 A 
ATOM     36  H   UNL d   1      24.779 -12.643  -4.571  0.00  0.00     0.160 HD
ENDBRANCH  19  27
ENDBRANCH   1  19
TORSDOF 7
ENDMDL
MODEL 6
REMARK VINA RESULT:    -8.795      1.681      2.034
REMARK INTER + INTRA:         -13.448
REMARK INTER:                 -10.883
REMARK INTRA:                  -2.565
REMARK CONF_INDEPENDENT:        2.088
REMARK UNBOUND:                -2.565
REMARK  7 active torsions:
REMARK  status: ('A' for Active; 'I' for Inactive)
REMARK    1  A    between atoms: C_2  and  C_3 
REMARK       I    between atoms: C_2  and  N_15 
REMARK    2  A    between atoms: C_3  and  N_4 
REMARK    3  A    between atoms: C_6  and  C_7 
REMARK    4  A    between atoms: N_15  and  C_16 
REMARK    5  A    between atoms: C_17  and  C_16 
REMARK    6  A    between atoms: C_17  and  C_27 
REMARK    7  A    between atoms: C_17  and  C_18 
ROOT
ATOM      1  C   UNL d   1      26.262 -14.403  -0.315  0.00  0.00     0.136 C 
ENDROOT
BRANCH   1   2
ATOM      2  N   UNL d   1      27.247 -13.452  -0.743  0.00  0.00    -0.359 N 
ATOM      3  C   UNL d   1      28.554 -13.383  -0.404  0.00  0.00     0.237 C 
ATOM      4  O   UNL d   1      29.038 -12.291  -0.694  0.00  0.00    -0.272 OA
ATOM      5  H   UNL d   1      26.947 -12.532  -1.060  0.00  0.00     0.162 HD
BRANCH   3   6
ATOM      6  C   UNL d   1      29.267 -14.559   0.304  0.00  0.00     0.251 C 
BRANCH   6   7
ATOM      7  N   UNL d   1      29.244 -14.603   1.771  0.00  0.00    -0.247 N 
ATOM      8  N   UNL d   1      28.053 -14.834   2.500  0.00  0.00    -0.199 NA
ATOM      9  C   UNL d   1      28.257 -13.966   3.683  0.00  0.00     0.265 C 
ATOM     10  H   UNL d   1      28.142 -15.789   2.862  0.00  0.00     0.150 HD
ATOM     11  O   UNL d   1      29.671 -13.796   3.819  0.00  0.00    -0.275 OA
ATOM     12  C   UNL d   1      30.219 -14.068   2.591  0.00  0.00     0.379 C 
ATOM     13  O   UNL d   1      31.384 -13.861   2.301  0.00  0.00    -0.237 OA
BRANCH   9  14
ATOM     14  C   UNL d   1      27.638 -12.601   3.453  0.00  0.00     0.027 C 
ATOM     15  C   UNL d   1      27.784 -11.487   4.253  0.00  0.00     0.019 C 
ATOM     16  C   UNL d   1      27.384 -10.282   3.628  0.00  0.00     0.008 C 
ATOM     17  C   UNL d   1      26.647 -10.537   2.500  0.00  0.00     0.050 C 
ATOM     18  S   UNL d   1      26.668 -12.211   2.093  0.00  0.00    -0.102 SA
ENDBRANCH   9  14
ENDBRANCH   6   7
ENDBRANCH   3   6
ENDBRANCH   1   2
BRANCH   1  19
ATOM     19  C   UNL d   1      26.145 -15.646  -1.256  0.00  0.00     0.069 C 
BRANCH  19  20
ATOM     20  C   UNL d   1      25.004 -16.628  -0.927  0.00  0.00    -0.026 C 
ATOM     21  C   UNL d   1      23.659 -16.345  -1.263  0.00  0.00     0.009 C 
ATOM     22  C   UNL d   1      22.584 -16.995  -0.670  0.00  0.00     0.001 C 
ATOM     23  C   UNL d   1      22.824 -18.125   0.080  0.00  0.00     0.002 C 
ATOM     24  C   UNL d   1      24.135 -18.574   0.245  0.00  0.00     0.024 C 
ATOM     25  C   UNL d   1      25.219 -17.800  -0.191  0.00  0.00     0.041 C 
ATOM     26 CL   UNL d   1      26.805 -18.329   0.230  0.00  0.00    -0.084 Cl
ENDBRANCH  19  20
BRANCH  19  27
ATOM     27  C   UNL d   1      26.087 -15.127  -2.670  0.00  0.00    -0.040 A 
ATOM     28  C   UNL d   1      27.040 -15.199  -3.609  0.00  0.00    -0.005 A 
ATOM     29  C   UNL d   1      28.380 -15.697  -3.626  0.00  0.00     0.014 A 
ATOM     30  C   UNL d   1      26.512 -14.412  -4.731  0.00  0.00     0.038 A 
ATOM     31  C   UNL d   1      29.166 -15.438  -4.673  0.00  0.00     0.001 A 
ATOM     32  C   UNL d   1      28.659 -14.707  -5.815  0.00  0.00     0.002 A 
ATOM     33  C   UNL d   1      27.409 -14.203  -5.885  0.00  0.00     0.030 A 
ATOM     34  N   UNL d   1      25.326 -13.988  -4.507  0.00  0.00    -0.385 N 
ATOM     35  C   UNL d   1      24.878 -14.393  -3.159  0.00  0.00     0.155 A 
ATOM     36  H   UNL d   1      24.792 -13.430  -5.172  0.00  0.00     0.160 HD
ENDBRANCH  19  27
ENDBRANCH   1  19
TORSDOF 7
ENDMDL
MODEL 7
REMARK VINA RESULT:    -8.035      4.430      6.702
REMARK INTER + INTRA:         -13.212
REMARK INTER:                 -10.123
REMARK INTRA:                  -3.089
REMARK CONF_INDEPENDENT:        2.088
REMARK UNBOUND:                -3.089
REMARK  7 active torsions:
REMARK  status: ('A' for Active; 'I' for Inactive)
REMARK    1  A    between atoms: C_2  and  C_3 
REMARK       I    between atoms: C_2  and  N_15 
REMARK    2  A    between atoms: C_3  and  N_4 
REMARK    3  A    between atoms: C_6  and  C_7 
REMARK    4  A    between atoms: N_15  and  C_16 
REMARK    5  A    between atoms: C_17  and  C_16 
REMARK    6  A    between atoms: C_17  and  C_27 
REMARK    7  A    between atoms: C_17  and  C_18 
ROOT
ATOM      1  C   UNL d   1      26.530 -15.236  -5.088  0.00  0.00     0.136 C 
ENDROOT
BRANCH   1   2
ATOM      2  N   UNL d   1      25.253 -14.682  -4.745  0.00  0.00    -0.359 N 
ATOM      3  C   UNL d   1      24.842 -14.184  -3.557  0.00  0.00     0.237 C 
ATOM      4  O   UNL d   1      23.618 -14.074  -3.512  0.00  0.00    -0.272 OA
ATOM      5  H   UNL d   1      24.431 -14.953  -5.282  0.00  0.00     0.162 HD
BRANCH   3   6
ATOM      6  C   UNL d   1      25.847 -13.864  -2.426  0.00  0.00     0.251 C 
BRANCH   6   7
ATOM      7  N   UNL d   1      26.441 -14.983  -1.686  0.00  0.00    -0.247 N 
ATOM      8  N   UNL d   1      26.490 -16.295  -2.215  0.00  0.00    -0.199 NA
ATOM      9  C   UNL d   1      26.280 -17.113  -0.998  0.00  0.00     0.265 C 
ATOM     10  H   UNL d   1      27.473 -16.447  -2.461  0.00  0.00     0.150 HD
ATOM     11  O   UNL d   1      26.694 -16.305   0.108  0.00  0.00    -0.275 OA
ATOM     12  C   UNL d   1      26.651 -15.003  -0.320  0.00  0.00     0.379 C 
ATOM     13  O   UNL d   1      26.780 -14.037   0.412  0.00  0.00    -0.237 OA
BRANCH   9  14
ATOM     14  C   UNL d   1      24.808 -17.433  -0.822  0.00  0.00     0.027 C 
ATOM     15  C   UNL d   1      24.277 -18.576  -0.259  0.00  0.00     0.019 C 
ATOM     16  C   UNL d   1      22.908 -18.458   0.082  0.00  0.00     0.008 C 
ATOM     17  C   UNL d   1      22.347 -17.359  -0.518  0.00  0.00     0.050 C 
ATOM     18  S   UNL d   1      23.540 -16.368  -1.270  0.00  0.00    -0.102 SA
ENDBRANCH   9  14
ENDBRANCH   6   7
ENDBRANCH   3   6
ENDBRANCH   1   2
BRANCH   1  19
ATOM     19  C   UNL d   1      27.732 -14.306  -4.723  0.00  0.00     0.069 C 
BRANCH  19  20
ATOM     20  C   UNL d   1      28.896 -14.981  -3.971  0.00  0.00    -0.026 C 
ATOM     21  C   UNL d   1      29.317 -16.296  -4.281  0.00  0.00     0.009 C 
ATOM     22  C   UNL d   1      30.079 -17.064  -3.410  0.00  0.00     0.001 C 
ATOM     23  C   UNL d   1      30.661 -16.453  -2.321  0.00  0.00     0.002 C 
ATOM     24  C   UNL d   1      30.454 -15.090  -2.108  0.00  0.00     0.024 C 
ATOM     25  C   UNL d   1      29.527 -14.375  -2.878  0.00  0.00     0.041 C 
ATOM     26 CL   UNL d   1      29.184 -12.748  -2.420  0.00  0.00    -0.084 Cl
ENDBRANCH  19  20
BRANCH  19  27
ATOM     27  C   UNL d   1      28.168 -13.626  -5.996  0.00  0.00    -0.040 A 
ATOM     28  C   UNL d   1      27.698 -12.485  -6.519  0.00  0.00    -0.005 A 
ATOM     29  C   UNL d   1      26.659 -11.578  -6.144  0.00  0.00     0.014 A 
ATOM     30  C   UNL d   1      28.365 -12.374  -7.822  0.00  0.00     0.038 A 
ATOM     31  C   UNL d   1      26.284 -10.619  -6.995  0.00  0.00     0.001 A 
ATOM     32  C   UNL d   1      26.956 -10.454  -8.265  0.00  0.00     0.002 A 
ATOM     33  C   UNL d   1      27.946 -11.262  -8.698  0.00  0.00     0.030 A 
ATOM     34  N   UNL d   1      29.212 -13.315  -8.013  0.00  0.00    -0.385 N 
ATOM     35  C   UNL d   1      29.216 -14.247  -6.867  0.00  0.00     0.155 A 
ATOM     36  H   UNL d   1      29.776 -13.403  -8.856  0.00  0.00     0.160 HD
ENDBRANCH  19  27
ENDBRANCH   1  19
TORSDOF 7
ENDMDL
MODEL 8
REMARK VINA RESULT:    -7.784      3.584      6.771
REMARK INTER + INTRA:         -13.650
REMARK INTER:                  -9.872
REMARK INTRA:                  -3.778
REMARK CONF_INDEPENDENT:        2.088
REMARK UNBOUND:                -3.778
REMARK  7 active torsions:
REMARK  status: ('A' for Active; 'I' for Inactive)
REMARK    1  A    between atoms: C_2  and  C_3 
REMARK       I    between atoms: C_2  and  N_15 
REMARK    2  A    between atoms: C_3  and  N_4 
REMARK    3  A    between atoms: C_6  and  C_7 
REMARK    4  A    between atoms: N_15  and  C_16 
REMARK    5  A    between atoms: C_17  and  C_16 
REMARK    6  A    between atoms: C_17  and  C_27 
REMARK    7  A    between atoms: C_17  and  C_18 
ROOT
ATOM      1  C   UNL d   1      28.079 -16.700  -2.258  0.00  0.00     0.136 C 
ENDROOT
BRANCH   1   2
ATOM      2  N   UNL d   1      28.818 -15.922  -3.211  0.00  0.00    -0.359 N 
ATOM      3  C   UNL d   1      28.374 -15.335  -4.344  0.00  0.00     0.237 C 
ATOM      4  O   UNL d   1      29.305 -15.011  -5.079  0.00  0.00    -0.272 OA
ATOM      5  H   UNL d   1      29.825 -16.057  -3.290  0.00  0.00     0.162 HD
BRANCH   3   6
ATOM      6  C   UNL d   1      26.863 -15.172  -4.630  0.00  0.00     0.251 C 
BRANCH   6   7
ATOM      7  N   UNL d   1      26.306 -13.815  -4.667  0.00  0.00    -0.247 N 
ATOM      8  N   UNL d   1      27.099 -12.681  -4.963  0.00  0.00    -0.199 NA
ATOM      9  C   UNL d   1      26.497 -11.658  -4.079  0.00  0.00     0.265 C 
ATOM     10  H   UNL d   1      26.822 -12.400  -5.909  0.00  0.00     0.150 HD
ATOM     11  O   UNL d   1      25.155 -12.085  -3.824  0.00  0.00    -0.275 OA
ATOM     12  C   UNL d   1      25.119 -13.433  -4.071  0.00  0.00     0.379 C 
ATOM     13  O   UNL d   1      24.175 -14.154  -3.797  0.00  0.00    -0.237 OA
BRANCH   9  14
ATOM     14  C   UNL d   1      27.232 -11.602  -2.754  0.00  0.00     0.027 C 
ATOM     15  C   UNL d   1      28.060 -12.575  -2.232  0.00  0.00     0.019 C 
ATOM     16  C   UNL d   1      28.867 -12.121  -1.161  0.00  0.00     0.008 C 
ATOM     17  C   UNL d   1      28.410 -10.920  -0.680  0.00  0.00     0.050 C 
ATOM     18  S   UNL d   1      27.180 -10.258  -1.689  0.00  0.00    -0.102 SA
ENDBRANCH   9  14
ENDBRANCH   6   7
ENDBRANCH   3   6
ENDBRANCH   1   2
BRANCH   1  19
ATOM     19  C   UNL d   1      27.066 -15.858  -1.417  0.00  0.00     0.069 C 
BRANCH  19  20
ATOM     20  C   UNL d   1      25.713 -16.534  -1.127  0.00  0.00    -0.026 C 
ATOM     21  C   UNL d   1      24.492 -15.973  -1.569  0.00  0.00     0.009 C 
ATOM     22  C   UNL d   1      23.263 -16.326  -1.026  0.00  0.00     0.001 C 
ATOM     23  C   UNL d   1      23.192 -17.435  -0.212  0.00  0.00     0.002 C 
ATOM     24  C   UNL d   1      24.352 -18.158   0.066  0.00  0.00     0.024 C 
ATOM     25  C   UNL d   1      25.609 -17.678  -0.325  0.00  0.00     0.041 C 
ATOM     26 CL   UNL d   1      27.003 -18.526   0.230  0.00  0.00    -0.084 Cl
ENDBRANCH  19  20
BRANCH  19  27
ATOM     27  C   UNL d   1      27.786 -15.419  -0.168  0.00  0.00    -0.040 A 
ATOM     28  C   UNL d   1      27.398 -14.492   0.720  0.00  0.00    -0.005 A 
ATOM     29  C   UNL d   1      26.284 -13.599   0.797  0.00  0.00     0.014 A 
ATOM     30  C   UNL d   1      28.534 -14.366   1.643  0.00  0.00     0.038 A 
ATOM     31  C   UNL d   1      26.279 -12.631   1.717  0.00  0.00     0.001 A 
ATOM     32  C   UNL d   1      27.361 -12.513   2.671  0.00  0.00     0.002 A 
ATOM     33  C   UNL d   1      28.448 -13.312   2.672  0.00  0.00     0.030 A 
ATOM     34  N   UNL d   1      29.468 -15.200   1.375  0.00  0.00    -0.385 N 
ATOM     35  C   UNL d   1      29.120 -16.001   0.183  0.00  0.00     0.155 A 
ATOM     36  H   UNL d   1      30.332 -15.267   1.909  0.00  0.00     0.160 HD
ENDBRANCH  19  27
ENDBRANCH   1  19
TORSDOF 7
ENDMDL
MODEL 9
REMARK VINA RESULT:    -7.218      3.383      5.319
REMARK INTER + INTRA:         -13.148
REMARK INTER:                  -9.306
REMARK INTRA:                  -3.842
REMARK CONF_INDEPENDENT:        2.088
REMARK UNBOUND:                -3.842
REMARK  7 active torsions:
REMARK  status: ('A' for Active; 'I' for Inactive)
REMARK    1  A    between atoms: C_2  and  C_3 
REMARK       I    between atoms: C_2  and  N_15 
REMARK    2  A    between atoms: C_3  and  N_4 
REMARK    3  A    between atoms: C_6  and  C_7 
REMARK    4  A    between atoms: N_15  and  C_16 
REMARK    5  A    between atoms: C_17  and  C_16 
REMARK    6  A    between atoms: C_17  and  C_27 
REMARK    7  A    between atoms: C_17  and  C_18 
ROOT
ATOM      1  C   UNL d   1      26.236 -14.404  -0.388  0.00  0.00     0.136 C 
ENDROOT
BRANCH   1   2
ATOM      2  N   UNL d   1      27.103 -14.563   0.744  0.00  0.00    -0.359 N 
ATOM      3  C   UNL d   1      28.170 -13.813   1.099  0.00  0.00     0.237 C 
ATOM      4  O   UNL d   1      28.867 -14.388   1.934  0.00  0.00    -0.272 OA
ATOM      5  H   UNL d   1      27.194 -15.481   1.176  0.00  0.00     0.162 HD
BRANCH   3   6
ATOM      6  C   UNL d   1      28.439 -12.434   0.454  0.00  0.00     0.251 C 
BRANCH   6   7
ATOM      7  N   UNL d   1      29.201 -12.390  -0.799  0.00  0.00    -0.247 N 
ATOM      8  N   UNL d   1      29.405 -11.188  -1.517  0.00  0.00    -0.199 NA
ATOM      9  C   UNL d   1      29.348 -11.665  -2.918  0.00  0.00     0.265 C 
ATOM     10  H   UNL d   1      30.390 -10.949  -1.366  0.00  0.00     0.150 HD
ATOM     11  O   UNL d   1      29.692 -13.054  -2.885  0.00  0.00    -0.275 OA
ATOM     12  C   UNL d   1      29.461 -13.485  -1.603  0.00  0.00     0.379 C 
ATOM     13  O   UNL d   1      29.489 -14.653  -1.259  0.00  0.00    -0.237 OA
BRANCH   9  14
ATOM     14  C   UNL d   1      27.939 -11.542  -3.464  0.00  0.00     0.027 C 
ATOM     15  C   UNL d   1      26.770 -11.542  -2.731  0.00  0.00     0.019 C 
ATOM     16  C   UNL d   1      25.646 -11.077  -3.454  0.00  0.00     0.008 C 
ATOM     17  C   UNL d   1      25.909 -11.042  -4.800  0.00  0.00     0.050 C 
ATOM     18  S   UNL d   1      27.576 -11.333  -5.128  0.00  0.00    -0.102 SA
ENDBRANCH   9  14
ENDBRANCH   6   7
ENDBRANCH   3   6
ENDBRANCH   1   2
BRANCH   1  19
ATOM     19  C   UNL d   1      26.136 -15.682  -1.281  0.00  0.00     0.069 C 
BRANCH  19  20
ATOM     20  C   UNL d   1      24.987 -16.650  -0.937  0.00  0.00    -0.026 C 
ATOM     21  C   UNL d   1      23.644 -16.358  -1.269  0.00  0.00     0.009 C 
ATOM     22  C   UNL d   1      22.566 -16.991  -0.665  0.00  0.00     0.001 C 
ATOM     23  C   UNL d   1      22.798 -18.115   0.097  0.00  0.00     0.002 C 
ATOM     24  C   UNL d   1      24.106 -18.574   0.261  0.00  0.00     0.024 C 
ATOM     25  C   UNL d   1      25.195 -17.815  -0.187  0.00  0.00     0.041 C 
ATOM     26 CL   UNL d   1      26.778 -18.354   0.232  0.00  0.00    -0.084 Cl
ENDBRANCH  19  20
BRANCH  19  27
ATOM     27  C   UNL d   1      26.106 -15.219  -2.715  0.00  0.00    -0.040 A 
ATOM     28  C   UNL d   1      27.058 -15.373  -3.646  0.00  0.00    -0.005 A 
ATOM     29  C   UNL d   1      28.374 -15.932  -3.636  0.00  0.00     0.014 A 
ATOM     30  C   UNL d   1      26.570 -14.609  -4.802  0.00  0.00     0.038 A 
ATOM     31  C   UNL d   1      29.174 -15.751  -4.689  0.00  0.00     0.001 A 
ATOM     32  C   UNL d   1      28.704 -15.045  -5.862  0.00  0.00     0.002 A 
ATOM     33  C   UNL d   1      27.479 -14.488  -5.958  0.00  0.00     0.030 A 
ATOM     34  N   UNL d   1      25.403 -14.122  -4.601  0.00  0.00    -0.385 N 
ATOM     35  C   UNL d   1      24.933 -14.452  -3.240  0.00  0.00     0.155 A 
ATOM     36  H   UNL d   1      24.898 -13.568  -5.290  0.00  0.00     0.160 HD
ENDBRANCH  19  27
ENDBRANCH   1  19
TORSDOF 7
ENDMDL
