MODEL 1
REMARK VINA RESULT:   -10.470      0.000      0.000
REMARK INTER + INTRA:         -15.414
REMARK INTER:                 -13.453
REMARK INTRA:                  -1.960
REMARK CONF_INDEPENDENT:        2.983
REMARK UNBOUND:                -1.960
REMARK  10 active torsions:
REMARK  status: ('A' for Active; 'I' for Inactive)
REMARK    1  A    between atoms: C_2  and  C_3 
REMARK       I    between atoms: C_2  and  N_26 
REMARK    2  A    between atoms: C_3  and  O_4 
REMARK    3  A    between atoms: O_4  and  C_5 
REMARK    4  A    between atoms: C_7  and  C_5 
REMARK    5  A    between atoms: C_7  and  N_18 
REMARK    6  A    between atoms: C_7  and  C_8 
REMARK    7  A    between atoms: C_8  and  C_9 
REMARK       I    between atoms: N_18  and  C_19 
REMARK    8  A    between atoms: C_19  and  C_21 
REMARK    9  A    between atoms: N_26  and  C_27 
REMARK   10  A    between atoms: C_30  and  N_31 
ROOT
ATOM      1  C   UNL d   1      26.429 -13.302  -4.006  0.00  0.00     0.188 C 
ENDROOT
BRANCH   1   2
ATOM      2  N   UNL d   1      27.697 -14.050  -4.391  0.00  0.00    -0.342 N 
ATOM      3  C   UNL d   1      27.798 -15.042  -5.344  0.00  0.00     0.259 C 
ATOM      4  O   UNL d   1      26.806 -15.344  -6.032  0.00  0.00    -0.267 OA
ATOM      5  H   UNL d   1      28.562 -13.819  -3.908  0.00  0.00     0.163 HD
BRANCH   3   6
ATOM      6  C   UNL d   1      29.126 -15.609  -5.552  0.00  0.00     0.072 A 
ATOM      7  C   UNL d   1      29.998 -15.415  -6.610  0.00  0.00     0.025 A 
ATOM      8  C   UNL d   1      31.240 -16.106  -6.446  0.00  0.00     0.009 A 
ATOM      9  C   UNL d   1      31.280 -16.827  -5.274  0.00  0.00     0.050 A 
ATOM     10  S   UNL d   1      29.835 -16.637  -4.367  0.00  0.00    -0.097 SA
ENDBRANCH   3   6
ENDBRANCH   1   2
BRANCH   1  11
ATOM     11  C   UNL d   1      26.245 -12.238  -5.114  0.00  0.00     0.072 C 
BRANCH  11  12
ATOM     12  C   UNL d   1      26.115 -10.823  -4.570  0.00  0.00    -0.048 C 
ATOM     13  C   UNL d   1      26.175  -9.639  -5.227  0.00  0.00    -0.006 A 
ATOM     14  C   UNL d   1      26.373  -9.261  -6.606  0.00  0.00     0.014 A 
ATOM     15  C   UNL d   1      25.458  -8.700  -4.339  0.00  0.00     0.038 A 
ATOM     16  C   UNL d   1      25.828  -8.155  -7.115  0.00  0.00     0.001 A 
ATOM     17  C   UNL d   1      25.155  -7.218  -6.263  0.00  0.00     0.002 A 
ATOM     18  C   UNL d   1      25.017  -7.403  -4.933  0.00  0.00     0.030 A 
ATOM     19  N   UNL d   1      25.137  -9.237  -3.221  0.00  0.00    -0.385 N 
ATOM     20  C   UNL d   1      25.561 -10.649  -3.177  0.00  0.00     0.155 C 
ATOM     21  H   UNL d   1      24.474  -8.810  -2.574  0.00  0.00     0.160 HD
ENDBRANCH  11  12
ENDBRANCH   1  11
BRANCH   1  22
ATOM     22  C   UNL d   1      24.986 -14.081  -3.725  0.00  0.00     0.282 C 
ATOM     23  O   UNL d   1      23.928 -13.772  -4.251  0.00  0.00    -0.263 OA
BRANCH  22  24
ATOM     24  O   UNL d   1      25.025 -15.032  -2.693  0.00  0.00    -0.310 OA
BRANCH  24  25
ATOM     25  C   UNL d   1      26.072 -16.055  -2.755  0.00  0.00     0.281 C 
BRANCH  25  26
ATOM     26  C   UNL d   1      26.701 -16.731  -1.393  0.00  0.00     0.246 C 
ATOM     27  O   UNL d   1      27.924 -16.821  -1.221  0.00  0.00    -0.271 OA
ATOM     28  N   UNL d   1      25.858 -17.053  -0.308  0.00  0.00    -0.325 N 
ATOM     29  H   UNL d   1      26.278 -17.144   0.616  0.00  0.00     0.169 HD
BRANCH  28  30
ATOM     30  C   UNL d   1      24.486 -17.318  -0.406  0.00  0.00     0.034 C 
ATOM     31  C   UNL d   1      24.112 -18.651  -0.347  0.00  0.00     0.032 C 
ATOM     32  C   UNL d   1      22.860 -19.073  -0.712  0.00  0.00     0.038 C 
ATOM     33  C   UNL d   1      21.868 -18.118  -0.854  0.00  0.00     0.103 C 
ATOM     34  C   UNL d   1      22.157 -16.753  -0.675  0.00  0.00     0.038 C 
ATOM     35  C   UNL d   1      23.493 -16.340  -0.516  0.00  0.00     0.032 C 
BRANCH  33  36
ATOM     36  N   UNL d   1      20.517 -18.585  -1.155  0.00  0.00    -0.116 N 
ATOM     37  O   UNL d   1      20.404 -19.712  -1.660  0.00  0.00    -0.532 OA
ATOM     38  O   UNL d   1      19.578 -17.825  -0.896  0.00  0.00    -0.532 OA
ENDBRANCH  33  36
ENDBRANCH  28  30
ENDBRANCH  25  26
ENDBRANCH  24  25
ENDBRANCH  22  24
ENDBRANCH   1  22
TORSDOF 10
ENDMDL
MODEL 2
REMARK VINA RESULT:   -10.049      1.747      2.131
REMARK INTER + INTRA:         -14.684
REMARK INTER:                 -13.032
REMARK INTRA:                  -1.652
REMARK CONF_INDEPENDENT:        2.983
REMARK UNBOUND:                -1.652
REMARK  10 active torsions:
REMARK  status: ('A' for Active; 'I' for Inactive)
REMARK    1  A    between atoms: C_2  and  C_3 
REMARK       I    between atoms: C_2  and  N_26 
REMARK    2  A    between atoms: C_3  and  O_4 
REMARK    3  A    between atoms: O_4  and  C_5 
REMARK    4  A    between atoms: C_7  and  C_5 
REMARK    5  A    between atoms: C_7  and  N_18 
REMARK    6  A    between atoms: C_7  and  C_8 
REMARK    7  A    between atoms: C_8  and  C_9 
REMARK       I    between atoms: N_18  and  C_19 
REMARK    8  A    between atoms: C_19  and  C_21 
REMARK    9  A    between atoms: N_26  and  C_27 
REMARK   10  A    between atoms: C_30  and  N_31 
ROOT
ATOM      1  C   UNL d   1      26.710 -13.892  -4.408  0.00  0.00     0.188 C 
ENDROOT
BRANCH   1   2
ATOM      2  N   UNL d   1      27.615 -13.274  -5.465  0.00  0.00    -0.342 N 
ATOM      3  C   UNL d   1      28.374 -13.962  -6.388  0.00  0.00     0.259 C 
ATOM      4  O   UNL d   1      28.296 -15.202  -6.455  0.00  0.00    -0.267 OA
ATOM      5  H   UNL d   1      27.689 -12.260  -5.508  0.00  0.00     0.163 HD
BRANCH   3   6
ATOM      6  C   UNL d   1      29.158 -13.153  -7.315  0.00  0.00     0.072 A 
ATOM      7  C   UNL d   1      28.792 -11.998  -7.986  0.00  0.00     0.025 A 
ATOM      8  C   UNL d   1      29.849 -11.453  -8.781  0.00  0.00     0.009 A 
ATOM      9  C   UNL d   1      30.994 -12.216  -8.713  0.00  0.00     0.050 A 
ATOM     10  S   UNL d   1      30.793 -13.561  -7.666  0.00  0.00    -0.097 SA
ENDBRANCH   3   6
ENDBRANCH   1   2
BRANCH   1  11
ATOM     11  C   UNL d   1      25.626 -12.822  -4.142  0.00  0.00     0.072 C 
BRANCH  11  12
ATOM     12  C   UNL d   1      26.201 -11.433  -3.899  0.00  0.00    -0.048 C 
ATOM     13  C   UNL d   1      26.072 -10.306  -4.640  0.00  0.00    -0.006 A 
ATOM     14  C   UNL d   1      25.393  -9.982  -5.871  0.00  0.00     0.014 A 
ATOM     15  C   UNL d   1      26.346  -9.215  -3.682  0.00  0.00     0.038 A 
ATOM     16  C   UNL d   1      24.909  -8.761  -6.105  0.00  0.00     0.001 A 
ATOM     17  C   UNL d   1      25.190  -7.683  -5.202  0.00  0.00     0.002 A 
ATOM     18  C   UNL d   1      25.923  -7.838  -4.079  0.00  0.00     0.030 A 
ATOM     19  N   UNL d   1      26.731  -9.653  -2.541  0.00  0.00    -0.385 N 
ATOM     20  C   UNL d   1      26.755 -11.128  -2.528  0.00  0.00     0.155 C 
ATOM     21  H   UNL d   1      26.771  -9.065  -1.710  0.00  0.00     0.160 HD
ENDBRANCH  11  12
ENDBRANCH   1  11
BRANCH   1  22
ATOM     22  C   UNL d   1      25.997 -15.382  -4.608  0.00  0.00     0.282 C 
ATOM     23  O   UNL d   1      25.885 -15.948  -5.684  0.00  0.00    -0.263 OA
BRANCH  22  24
ATOM     24  O   UNL d   1      25.364 -15.886  -3.460  0.00  0.00    -0.310 OA
BRANCH  24  25
ATOM     25  C   UNL d   1      25.966 -15.571  -2.162  0.00  0.00     0.281 C 
BRANCH  25  26
ATOM     26  C   UNL d   1      26.639 -16.737  -1.216  0.00  0.00     0.246 C 
ATOM     27  O   UNL d   1      27.866 -16.899  -1.163  0.00  0.00    -0.271 OA
ATOM     28  N   UNL d   1      25.841 -17.455  -0.301  0.00  0.00    -0.325 N 
ATOM     29  H   UNL d   1      26.302 -17.907   0.487  0.00  0.00     0.169 HD
BRANCH  28  30
ATOM     30  C   UNL d   1      24.458 -17.647  -0.418  0.00  0.00     0.034 C 
ATOM     31  C   UNL d   1      24.000 -18.941  -0.233  0.00  0.00     0.032 C 
ATOM     32  C   UNL d   1      22.735 -19.325  -0.594  0.00  0.00     0.038 C 
ATOM     33  C   UNL d   1      21.809 -18.334  -0.869  0.00  0.00     0.103 C 
ATOM     34  C   UNL d   1      22.177 -16.977  -0.824  0.00  0.00     0.038 C 
ATOM     35  C   UNL d   1      23.532 -16.629  -0.664  0.00  0.00     0.032 C 
BRANCH  33  36
ATOM     36  N   UNL d   1      20.440 -18.750  -1.167  0.00  0.00    -0.116 N 
ATOM     37  O   UNL d   1      19.531 -17.951  -0.895  0.00  0.00    -0.532 OA
ATOM     38  O   UNL d   1      20.278 -19.870  -1.661  0.00  0.00    -0.532 OA
ENDBRANCH  33  36
ENDBRANCH  28  30
ENDBRANCH  25  26
ENDBRANCH  24  25
ENDBRANCH  22  24
ENDBRANCH   1  22
TORSDOF 10
ENDMDL
MODEL 3
REMARK VINA RESULT:    -9.873      2.006      5.914
REMARK INTER + INTRA:         -14.924
REMARK INTER:                 -12.856
REMARK INTRA:                  -2.068
REMARK CONF_INDEPENDENT:        2.983
REMARK UNBOUND:                -2.068
REMARK  10 active torsions:
REMARK  status: ('A' for Active; 'I' for Inactive)
REMARK    1  A    between atoms: C_2  and  C_3 
REMARK       I    between atoms: C_2  and  N_26 
REMARK    2  A    between atoms: C_3  and  O_4 
REMARK    3  A    between atoms: O_4  and  C_5 
REMARK    4  A    between atoms: C_7  and  C_5 
REMARK    5  A    between atoms: C_7  and  N_18 
REMARK    6  A    between atoms: C_7  and  C_8 
REMARK    7  A    between atoms: C_8  and  C_9 
REMARK       I    between atoms: N_18  and  C_19 
REMARK    8  A    between atoms: C_19  and  C_21 
REMARK    9  A    between atoms: N_26  and  C_27 
REMARK   10  A    between atoms: C_30  and  N_31 
ROOT
ATOM      1  C   UNL d   1      26.808 -13.668  -5.049  0.00  0.00     0.188 C 
ENDROOT
BRANCH   1   2
ATOM      2  N   UNL d   1      26.384 -12.262  -4.652  0.00  0.00    -0.342 N 
ATOM      3  C   UNL d   1      26.373 -11.154  -5.473  0.00  0.00     0.259 C 
ATOM      4  O   UNL d   1      26.659 -11.272  -6.679  0.00  0.00    -0.267 OA
ATOM      5  H   UNL d   1      26.085 -12.097  -3.694  0.00  0.00     0.163 HD
BRANCH   3   6
ATOM      6  C   UNL d   1      25.913  -9.906  -4.873  0.00  0.00     0.072 A 
ATOM      7  C   UNL d   1      24.903  -9.058  -5.296  0.00  0.00     0.025 A 
ATOM      8  C   UNL d   1      24.705  -7.943  -4.422  0.00  0.00     0.009 A 
ATOM      9  C   UNL d   1      25.582  -7.955  -3.361  0.00  0.00     0.050 A 
ATOM     10  S   UNL d   1      26.612  -9.328  -3.410  0.00  0.00    -0.097 SA
ENDBRANCH   3   6
ENDBRANCH   1   2
BRANCH   1  11
ATOM     11  C   UNL d   1      28.124 -13.918  -4.276  0.00  0.00     0.072 C 
BRANCH  11  12
ATOM     12  C   UNL d   1      29.253 -14.424  -5.162  0.00  0.00    -0.048 C 
ATOM     13  C   UNL d   1      29.948 -15.586  -5.093  0.00  0.00    -0.006 A 
ATOM     14  C   UNL d   1      29.908 -16.732  -4.218  0.00  0.00     0.014 A 
ATOM     15  C   UNL d   1      30.482 -15.764  -6.459  0.00  0.00     0.038 A 
ATOM     16  C   UNL d   1      30.227 -17.954  -4.648  0.00  0.00     0.001 A 
ATOM     17  C   UNL d   1      30.776 -18.142  -5.959  0.00  0.00     0.002 A 
ATOM     18  C   UNL d   1      30.977 -17.125  -6.824  0.00  0.00     0.030 A 
ATOM     19  N   UNL d   1      30.249 -14.752  -7.210  0.00  0.00    -0.385 N 
ATOM     20  C   UNL d   1      29.486 -13.723  -6.479  0.00  0.00     0.155 C 
ATOM     21  H   UNL d   1      30.366 -14.779  -8.222  0.00  0.00     0.160 HD
ENDBRANCH  11  12
ENDBRANCH   1  11
BRANCH   1  22
ATOM     22  C   UNL d   1      25.799 -14.981  -4.886  0.00  0.00     0.282 C 
ATOM     23  O   UNL d   1      25.832 -15.963  -5.612  0.00  0.00    -0.263 OA
BRANCH  22  24
ATOM     24  O   UNL d   1      24.770 -14.816  -3.946  0.00  0.00    -0.310 OA
BRANCH  24  25
ATOM     25  C   UNL d   1      25.145 -14.789  -2.530  0.00  0.00     0.281 C 
BRANCH  25  26
ATOM     26  C   UNL d   1      26.187 -15.892  -1.891  0.00  0.00     0.246 C 
ATOM     27  O   UNL d   1      27.406 -15.823  -2.094  0.00  0.00    -0.271 OA
ATOM     28  N   UNL d   1      25.729 -16.833  -0.945  0.00  0.00    -0.325 N 
ATOM     29  H   UNL d   1      26.414 -17.263  -0.326  0.00  0.00     0.169 HD
BRANCH  28  30
ATOM     30  C   UNL d   1      24.404 -17.272  -0.822  0.00  0.00     0.034 C 
ATOM     31  C   UNL d   1      24.226 -18.614  -0.535  0.00  0.00     0.032 C 
ATOM     32  C   UNL d   1      23.010 -19.233  -0.668  0.00  0.00     0.038 C 
ATOM     33  C   UNL d   1      21.886 -18.436  -0.804  0.00  0.00     0.103 C 
ATOM     34  C   UNL d   1      22.004 -17.035  -0.851  0.00  0.00     0.038 C 
ATOM     35  C   UNL d   1      23.281 -16.446  -0.930  0.00  0.00     0.032 C 
BRANCH  33  36
ATOM     36  N   UNL d   1      20.586 -19.101  -0.856  0.00  0.00    -0.116 N 
ATOM     37  O   UNL d   1      19.863 -19.016   0.147  0.00  0.00    -0.532 OA
ATOM     38  O   UNL d   1      20.297 -19.710  -1.892  0.00  0.00    -0.532 OA
ENDBRANCH  33  36
ENDBRANCH  28  30
ENDBRANCH  25  26
ENDBRANCH  24  25
ENDBRANCH  22  24
ENDBRANCH   1  22
TORSDOF 10
ENDMDL
MODEL 4
REMARK VINA RESULT:    -9.425      3.202      7.562
REMARK INTER + INTRA:         -15.333
REMARK INTER:                 -12.408
REMARK INTRA:                  -2.925
REMARK CONF_INDEPENDENT:        2.983
REMARK UNBOUND:                -2.925
REMARK  10 active torsions:
REMARK  status: ('A' for Active; 'I' for Inactive)
REMARK    1  A    between atoms: C_2  and  C_3 
REMARK       I    between atoms: C_2  and  N_26 
REMARK    2  A    between atoms: C_3  and  O_4 
REMARK    3  A    between atoms: O_4  and  C_5 
REMARK    4  A    between atoms: C_7  and  C_5 
REMARK    5  A    between atoms: C_7  and  N_18 
REMARK    6  A    between atoms: C_7  and  C_8 
REMARK    7  A    between atoms: C_8  and  C_9 
REMARK       I    between atoms: N_18  and  C_19 
REMARK    8  A    between atoms: C_19  and  C_21 
REMARK    9  A    between atoms: N_26  and  C_27 
REMARK   10  A    between atoms: C_30  and  N_31 
ROOT
ATOM      1  C   UNL d   1      26.109 -15.177  -2.897  0.00  0.00     0.188 C 
ENDROOT
BRANCH   1   2
ATOM      2  N   UNL d   1      27.419 -15.306  -3.659  0.00  0.00    -0.342 N 
ATOM      3  C   UNL d   1      27.554 -15.492  -5.019  0.00  0.00     0.259 C 
ATOM      4  O   UNL d   1      26.545 -15.492  -5.749  0.00  0.00    -0.267 OA
ATOM      5  H   UNL d   1      28.291 -15.261  -3.137  0.00  0.00     0.163 HD
BRANCH   3   6
ATOM      6  C   UNL d   1      28.917 -15.575  -5.531  0.00  0.00     0.072 A 
ATOM      7  C   UNL d   1      29.963 -16.374  -5.096  0.00  0.00     0.025 A 
ATOM      8  C   UNL d   1      31.151 -16.216  -5.877  0.00  0.00     0.009 A 
ATOM      9  C   UNL d   1      30.991 -15.285  -6.879  0.00  0.00     0.050 A 
ATOM     10  S   UNL d   1      29.402 -14.638  -6.891  0.00  0.00    -0.097 SA
ENDBRANCH   3   6
ENDBRANCH   1   2
BRANCH   1  11
ATOM     11  C   UNL d   1      26.519 -15.152  -1.406  0.00  0.00     0.072 C 
BRANCH  11  12
ATOM     12  C   UNL d   1      26.033 -16.368  -0.630  0.00  0.00    -0.048 C 
ATOM     13  C   UNL d   1      24.766 -16.779  -0.380  0.00  0.00    -0.006 A 
ATOM     14  C   UNL d   1      23.457 -16.272  -0.717  0.00  0.00     0.014 A 
ATOM     15  C   UNL d   1      24.907 -18.222  -0.098  0.00  0.00     0.038 A 
ATOM     16  C   UNL d   1      22.414 -17.085  -0.893  0.00  0.00     0.001 A 
ATOM     17  C   UNL d   1      22.525 -18.483  -0.595  0.00  0.00     0.002 A 
ATOM     18  C   UNL d   1      23.667 -19.052  -0.151  0.00  0.00     0.030 A 
ATOM     19  N   UNL d   1      26.133 -18.591  -0.048  0.00  0.00    -0.385 N 
ATOM     20  C   UNL d   1      27.033 -17.454  -0.318  0.00  0.00     0.155 C 
ATOM     21  H   UNL d   1      26.416 -19.570  -0.062  0.00  0.00     0.160 HD
ENDBRANCH  11  12
ENDBRANCH   1  11
BRANCH   1  22
ATOM     22  C   UNL d   1      25.017 -13.959  -3.203  0.00  0.00     0.282 C 
ATOM     23  O   UNL d   1      24.053 -14.074  -3.944  0.00  0.00    -0.263 OA
BRANCH  22  24
ATOM     24  O   UNL d   1      25.374 -12.707  -2.676  0.00  0.00    -0.310 OA
BRANCH  24  25
ATOM     25  C   UNL d   1      26.560 -12.052  -3.233  0.00  0.00     0.281 C 
BRANCH  25  26
ATOM     26  C   UNL d   1      28.077 -12.422  -2.711  0.00  0.00     0.246 C 
ATOM     27  O   UNL d   1      28.822 -13.165  -3.364  0.00  0.00    -0.271 OA
ATOM     28  N   UNL d   1      28.627 -11.749  -1.600  0.00  0.00    -0.325 N 
ATOM     29  H   UNL d   1      29.640 -11.735  -1.501  0.00  0.00     0.169 HD
BRANCH  28  30
ATOM     30  C   UNL d   1      27.884 -11.142  -0.579  0.00  0.00     0.034 C 
ATOM     31  C   UNL d   1      27.415  -9.864  -0.837  0.00  0.00     0.032 C 
ATOM     32  C   UNL d   1      26.932  -9.051   0.154  0.00  0.00     0.038 C 
ATOM     33  C   UNL d   1      26.631  -9.627   1.377  0.00  0.00     0.103 C 
ATOM     34  C   UNL d   1      26.865 -10.995   1.602  0.00  0.00     0.038 C 
ATOM     35  C   UNL d   1      27.562 -11.750   0.638  0.00  0.00     0.032 C 
BRANCH  33  36
ATOM     36  N   UNL d   1      26.033  -8.771   2.399  0.00  0.00    -0.116 N 
ATOM     37  O   UNL d   1      25.530  -7.702   2.023  0.00  0.00    -0.532 OA
ATOM     38  O   UNL d   1      26.075  -9.164   3.570  0.00  0.00    -0.532 OA
ENDBRANCH  33  36
ENDBRANCH  28  30
ENDBRANCH  25  26
ENDBRANCH  24  25
ENDBRANCH  22  24
ENDBRANCH   1  22
TORSDOF 10
ENDMDL
MODEL 5
REMARK VINA RESULT:    -9.402      1.311      2.036
REMARK INTER + INTRA:         -14.703
REMARK INTER:                 -12.385
REMARK INTRA:                  -2.318
REMARK CONF_INDEPENDENT:        2.983
REMARK UNBOUND:                -2.318
REMARK  10 active torsions:
REMARK  status: ('A' for Active; 'I' for Inactive)
REMARK    1  A    between atoms: C_2  and  C_3 
REMARK       I    between atoms: C_2  and  N_26 
REMARK    2  A    between atoms: C_3  and  O_4 
REMARK    3  A    between atoms: O_4  and  C_5 
REMARK    4  A    between atoms: C_7  and  C_5 
REMARK    5  A    between atoms: C_7  and  N_18 
REMARK    6  A    between atoms: C_7  and  C_8 
REMARK    7  A    between atoms: C_8  and  C_9 
REMARK       I    between atoms: N_18  and  C_19 
REMARK    8  A    between atoms: C_19  and  C_21 
REMARK    9  A    between atoms: N_26  and  C_27 
REMARK   10  A    between atoms: C_30  and  N_31 
ROOT
ATOM      1  C   UNL d   1      26.729 -13.885  -3.752  0.00  0.00     0.188 C 
ENDROOT
BRANCH   1   2
ATOM      2  N   UNL d   1      27.899 -14.855  -3.833  0.00  0.00    -0.342 N 
ATOM      3  C   UNL d   1      28.293 -15.562  -4.950  0.00  0.00     0.259 C 
ATOM      4  O   UNL d   1      27.718 -15.375  -6.038  0.00  0.00    -0.267 OA
ATOM      5  H   UNL d   1      28.452 -15.019  -2.996  0.00  0.00     0.163 HD
BRANCH   3   6
ATOM      6  C   UNL d   1      29.457 -16.426  -4.793  0.00  0.00     0.072 A 
ATOM      7  C   UNL d   1      29.938 -17.040  -3.648  0.00  0.00     0.025 A 
ATOM      8  C   UNL d   1      31.086 -17.858  -3.890  0.00  0.00     0.009 A 
ATOM      9  C   UNL d   1      31.468 -17.835  -5.213  0.00  0.00     0.050 A 
ATOM     10  S   UNL d   1      30.419 -16.856  -6.155  0.00  0.00    -0.097 SA
ENDBRANCH   3   6
ENDBRANCH   1   2
BRANCH   1  11
ATOM     11  C   UNL d   1      26.924 -12.929  -4.952  0.00  0.00     0.072 C 
BRANCH  11  12
ATOM     12  C   UNL d   1      26.208 -11.597  -4.779  0.00  0.00    -0.048 C 
ATOM     13  C   UNL d   1      26.140 -10.791  -3.691  0.00  0.00    -0.006 A 
ATOM     14  C   UNL d   1      26.674 -10.859  -2.352  0.00  0.00     0.014 A 
ATOM     15  C   UNL d   1      25.817  -9.462  -4.251  0.00  0.00     0.038 A 
ATOM     16  C   UNL d   1      26.988  -9.759  -1.666  0.00  0.00     0.001 A 
ATOM     17  C   UNL d   1      26.655  -8.463  -2.179  0.00  0.00     0.002 A 
ATOM     18  C   UNL d   1      26.038  -8.279  -3.367  0.00  0.00     0.030 A 
ATOM     19  N   UNL d   1      25.581  -9.507  -5.509  0.00  0.00    -0.385 N 
ATOM     20  C   UNL d   1      25.734 -10.882  -6.021  0.00  0.00     0.155 C 
ATOM     21  H   UNL d   1      25.538  -8.672  -6.092  0.00  0.00     0.160 HD
ENDBRANCH  11  12
ENDBRANCH   1  11
BRANCH   1  22
ATOM     22  C   UNL d   1      25.148 -14.401  -3.691  0.00  0.00     0.282 C 
ATOM     23  O   UNL d   1      24.397 -14.420  -4.654  0.00  0.00    -0.263 OA
BRANCH  22  24
ATOM     24  O   UNL d   1      24.666 -14.660  -2.398  0.00  0.00    -0.310 OA
BRANCH  24  25
ATOM     25  C   UNL d   1      25.653 -14.822  -1.328  0.00  0.00     0.281 C 
BRANCH  25  26
ATOM     26  C   UNL d   1      26.512 -16.214  -1.147  0.00  0.00     0.246 C 
ATOM     27  O   UNL d   1      27.735 -16.250  -1.343  0.00  0.00    -0.271 OA
ATOM     28  N   UNL d   1      25.902 -17.354  -0.583  0.00  0.00    -0.325 N 
ATOM     29  H   UNL d   1      26.503 -18.068  -0.175  0.00  0.00     0.169 HD
BRANCH  28  30
ATOM     30  C   UNL d   1      24.526 -17.617  -0.590  0.00  0.00     0.034 C 
ATOM     31  C   UNL d   1      24.143 -18.899  -0.234  0.00  0.00     0.032 C 
ATOM     32  C   UNL d   1      22.879 -19.375  -0.469  0.00  0.00     0.038 C 
ATOM     33  C   UNL d   1      21.891 -18.460  -0.793  0.00  0.00     0.103 C 
ATOM     34  C   UNL d   1      22.195 -17.093  -0.923  0.00  0.00     0.038 C 
ATOM     35  C   UNL d   1      23.539 -16.672  -0.889  0.00  0.00     0.032 C 
BRANCH  33  36
ATOM     36  N   UNL d   1      20.529 -18.964  -0.955  0.00  0.00    -0.116 N 
ATOM     37  O   UNL d   1      19.683 -18.593  -0.127  0.00  0.00    -0.532 OA
ATOM     38  O   UNL d   1      20.312 -19.732  -1.898  0.00  0.00    -0.532 OA
ENDBRANCH  33  36
ENDBRANCH  28  30
ENDBRANCH  25  26
ENDBRANCH  24  25
ENDBRANCH  22  24
ENDBRANCH   1  22
TORSDOF 10
ENDMDL
MODEL 6
REMARK VINA RESULT:    -8.880      2.900      5.581
REMARK INTER + INTRA:         -15.135
REMARK INTER:                 -11.863
REMARK INTRA:                  -3.271
REMARK CONF_INDEPENDENT:        2.983
REMARK UNBOUND:                -3.271
REMARK  10 active torsions:
REMARK  status: ('A' for Active; 'I' for Inactive)
REMARK    1  A    between atoms: C_2  and  C_3 
REMARK       I    between atoms: C_2  and  N_26 
REMARK    2  A    between atoms: C_3  and  O_4 
REMARK    3  A    between atoms: O_4  and  C_5 
REMARK    4  A    between atoms: C_7  and  C_5 
REMARK    5  A    between atoms: C_7  and  N_18 
REMARK    6  A    between atoms: C_7  and  C_8 
REMARK    7  A    between atoms: C_8  and  C_9 
REMARK       I    between atoms: N_18  and  C_19 
REMARK    8  A    between atoms: C_19  and  C_21 
REMARK    9  A    between atoms: N_26  and  C_27 
REMARK   10  A    between atoms: C_30  and  N_31 
ROOT
ATOM      1  C   UNL d   1      27.386 -13.571  -4.168  0.00  0.00     0.188 C 
ENDROOT
BRANCH   1   2
ATOM      2  N   UNL d   1      27.819 -13.728  -2.718  0.00  0.00    -0.342 N 
ATOM      3  C   UNL d   1      27.333 -13.014  -1.643  0.00  0.00     0.259 C 
ATOM      4  O   UNL d   1      26.403 -12.203  -1.805  0.00  0.00    -0.267 OA
ATOM      5  H   UNL d   1      28.540 -14.411  -2.498  0.00  0.00     0.163 HD
BRANCH   3   6
ATOM      6  C   UNL d   1      27.892 -13.346  -0.337  0.00  0.00     0.072 A 
ATOM      7  C   UNL d   1      27.527 -12.872   0.912  0.00  0.00     0.025 A 
ATOM      8  C   UNL d   1      28.275 -13.464   1.978  0.00  0.00     0.009 A 
ATOM      9  C   UNL d   1      29.210 -14.364   1.516  0.00  0.00     0.050 A 
ATOM     10  S   UNL d   1      29.151 -14.511  -0.193  0.00  0.00    -0.097 SA
ENDBRANCH   3   6
ENDBRANCH   1   2
BRANCH   1  11
ATOM     11  C   UNL d   1      28.625 -12.994  -4.891  0.00  0.00     0.072 C 
BRANCH  11  12
ATOM     12  C   UNL d   1      29.509 -14.065  -5.513  0.00  0.00    -0.048 C 
ATOM     13  C   UNL d   1      30.036 -15.181  -4.951  0.00  0.00    -0.006 A 
ATOM     14  C   UNL d   1      29.982 -15.766  -3.633  0.00  0.00     0.014 A 
ATOM     15  C   UNL d   1      30.305 -16.068  -6.102  0.00  0.00     0.038 A 
ATOM     16  C   UNL d   1      30.050 -17.086  -3.448  0.00  0.00     0.001 A 
ATOM     17  C   UNL d   1      30.341 -17.958  -4.548  0.00  0.00     0.002 A 
ATOM     18  C   UNL d   1      30.537 -17.514  -5.808  0.00  0.00     0.030 A 
ATOM     19  N   UNL d   1      30.095 -15.487  -7.224  0.00  0.00    -0.385 N 
ATOM     20  C   UNL d   1      29.616 -14.107  -7.019  0.00  0.00     0.155 C 
ATOM     21  H   UNL d   1      30.036 -15.996  -8.106  0.00  0.00     0.160 HD
ENDBRANCH  11  12
ENDBRANCH   1  11
BRANCH   1  22
ATOM     22  C   UNL d   1      26.754 -14.833  -5.050  0.00  0.00     0.282 C 
ATOM     23  O   UNL d   1      27.175 -15.182  -6.142  0.00  0.00    -0.263 OA
BRANCH  22  24
ATOM     24  O   UNL d   1      25.571 -15.379  -4.527  0.00  0.00    -0.310 OA
BRANCH  24  25
ATOM     25  C   UNL d   1      25.407 -15.368  -3.071  0.00  0.00     0.281 C 
BRANCH  25  26
ATOM     26  C   UNL d   1      26.351 -16.292  -2.089  0.00  0.00     0.246 C 
ATOM     27  O   UNL d   1      27.583 -16.320  -2.214  0.00  0.00    -0.271 OA
ATOM     28  N   UNL d   1      25.790 -16.929  -0.962  0.00  0.00    -0.325 N 
ATOM     29  H   UNL d   1      26.412 -17.200  -0.203  0.00  0.00     0.169 HD
BRANCH  28  30
ATOM     30  C   UNL d   1      24.439 -17.275  -0.823  0.00  0.00     0.034 C 
ATOM     31  C   UNL d   1      24.144 -18.627  -0.869  0.00  0.00     0.032 C 
ATOM     32  C   UNL d   1      22.863 -19.089  -1.033  0.00  0.00     0.038 C 
ATOM     33  C   UNL d   1      21.822 -18.195  -0.849  0.00  0.00     0.103 C 
ATOM     34  C   UNL d   1      22.081 -16.845  -0.551  0.00  0.00     0.038 C 
ATOM     35  C   UNL d   1      23.403 -16.362  -0.605  0.00  0.00     0.032 C 
BRANCH  33  36
ATOM     36  N   UNL d   1      20.460 -18.715  -0.939  0.00  0.00    -0.116 N 
ATOM     37  O   UNL d   1      19.533 -17.892  -0.894  0.00  0.00    -0.532 OA
ATOM     38  O   UNL d   1      20.320 -19.938  -1.045  0.00  0.00    -0.532 OA
ENDBRANCH  33  36
ENDBRANCH  28  30
ENDBRANCH  25  26
ENDBRANCH  24  25
ENDBRANCH  22  24
ENDBRANCH   1  22
TORSDOF 10
ENDMDL
MODEL 7
REMARK VINA RESULT:    -8.685      4.010      7.610
REMARK INTER + INTRA:         -14.679
REMARK INTER:                 -11.668
REMARK INTRA:                  -3.011
REMARK CONF_INDEPENDENT:        2.983
REMARK UNBOUND:                -3.011
REMARK  10 active torsions:
REMARK  status: ('A' for Active; 'I' for Inactive)
REMARK    1  A    between atoms: C_2  and  C_3 
REMARK       I    between atoms: C_2  and  N_26 
REMARK    2  A    between atoms: C_3  and  O_4 
REMARK    3  A    between atoms: O_4  and  C_5 
REMARK    4  A    between atoms: C_7  and  C_5 
REMARK    5  A    between atoms: C_7  and  N_18 
REMARK    6  A    between atoms: C_7  and  C_8 
REMARK    7  A    between atoms: C_8  and  C_9 
REMARK       I    between atoms: N_18  and  C_19 
REMARK    8  A    between atoms: C_19  and  C_21 
REMARK    9  A    between atoms: N_26  and  C_27 
REMARK   10  A    between atoms: C_30  and  N_31 
ROOT
ATOM      1  C   UNL d   1      27.399 -14.386  -2.648  0.00  0.00     0.188 C 
ENDROOT
BRANCH   1   2
ATOM      2  N   UNL d   1      26.524 -15.382  -1.901  0.00  0.00    -0.342 N 
ATOM      3  C   UNL d   1      25.156 -15.513  -2.021  0.00  0.00     0.259 C 
ATOM      4  O   UNL d   1      24.538 -14.826  -2.855  0.00  0.00    -0.267 OA
ATOM      5  H   UNL d   1      26.966 -16.016  -1.240  0.00  0.00     0.163 HD
BRANCH   3   6
ATOM      6  C   UNL d   1      24.529 -16.551  -1.210  0.00  0.00     0.072 A 
ATOM      7  C   UNL d   1      23.191 -16.720  -0.896  0.00  0.00     0.025 A 
ATOM      8  C   UNL d   1      22.943 -17.888  -0.109  0.00  0.00     0.009 A 
ATOM      9  C   UNL d   1      24.102 -18.575   0.176  0.00  0.00     0.050 A 
ATOM     10  S   UNL d   1      25.471 -17.825  -0.536  0.00  0.00    -0.097 SA
ENDBRANCH   3   6
ENDBRANCH   1   2
BRANCH   1  11
ATOM     11  C   UNL d   1      26.967 -14.514  -4.128  0.00  0.00     0.072 C 
BRANCH  11  12
ATOM     12  C   UNL d   1      28.144 -14.634  -5.087  0.00  0.00    -0.048 C 
ATOM     13  C   UNL d   1      29.184 -15.503  -5.069  0.00  0.00    -0.006 A 
ATOM     14  C   UNL d   1      29.576 -16.587  -4.200  0.00  0.00     0.014 A 
ATOM     15  C   UNL d   1      29.663 -15.516  -6.466  0.00  0.00     0.038 A 
ATOM     16  C   UNL d   1      30.251 -17.643  -4.657  0.00  0.00     0.001 A 
ATOM     17  C   UNL d   1      30.750 -17.659  -6.001  0.00  0.00     0.002 A 
ATOM     18  C   UNL d   1      30.554 -16.645  -6.870  0.00  0.00     0.030 A 
ATOM     19  N   UNL d   1      29.065 -14.648  -7.194  0.00  0.00    -0.385 N 
ATOM     20  C   UNL d   1      28.053 -13.915  -6.411  0.00  0.00     0.155 C 
ATOM     21  H   UNL d   1      29.122 -14.649  -8.212  0.00  0.00     0.160 HD
ENDBRANCH  11  12
ENDBRANCH   1  11
BRANCH   1  22
ATOM     22  C   UNL d   1      27.484 -12.781  -2.221  0.00  0.00     0.282 C 
ATOM     23  O   UNL d   1      27.185 -11.859  -2.963  0.00  0.00    -0.263 OA
BRANCH  22  24
ATOM     24  O   UNL d   1      28.098 -12.536  -0.982  0.00  0.00    -0.310 OA
BRANCH  24  25
ATOM     25  C   UNL d   1      28.986 -13.573  -0.451  0.00  0.00     0.281 C 
BRANCH  25  26
ATOM     26  C   UNL d   1      28.439 -14.737   0.576  0.00  0.00     0.246 C 
ATOM     27  O   UNL d   1      28.489 -15.938   0.278  0.00  0.00    -0.271 OA
ATOM     28  N   UNL d   1      28.073 -14.401   1.897  0.00  0.00    -0.325 N 
ATOM     29  H   UNL d   1      28.067 -15.141   2.596  0.00  0.00     0.169 HD
BRANCH  28  30
ATOM     30  C   UNL d   1      27.657 -13.131   2.318  0.00  0.00     0.034 C 
ATOM     31  C   UNL d   1      26.600 -12.569   1.622  0.00  0.00     0.032 C 
ATOM     32  C   UNL d   1      26.280 -11.240   1.731  0.00  0.00     0.038 C 
ATOM     33  C   UNL d   1      26.833 -10.523   2.778  0.00  0.00     0.103 C 
ATOM     34  C   UNL d   1      27.734 -11.134   3.668  0.00  0.00     0.038 C 
ATOM     35  C   UNL d   1      28.206 -12.433   3.399  0.00  0.00     0.032 C 
BRANCH  33  36
ATOM     36  N   UNL d   1      26.418  -9.131   2.939  0.00  0.00    -0.116 N 
ATOM     37  O   UNL d   1      27.024  -8.450   3.779  0.00  0.00    -0.532 OA
ATOM     38  O   UNL d   1      25.486  -8.728   2.234  0.00  0.00    -0.532 OA
ENDBRANCH  33  36
ENDBRANCH  28  30
ENDBRANCH  25  26
ENDBRANCH  24  25
ENDBRANCH  22  24
ENDBRANCH   1  22
TORSDOF 10
ENDMDL
MODEL 8
REMARK VINA RESULT:    -8.457      3.056      5.896
REMARK INTER + INTRA:         -15.180
REMARK INTER:                 -11.440
REMARK INTRA:                  -3.740
REMARK CONF_INDEPENDENT:        2.983
REMARK UNBOUND:                -3.740
REMARK  10 active torsions:
REMARK  status: ('A' for Active; 'I' for Inactive)
REMARK    1  A    between atoms: C_2  and  C_3 
REMARK       I    between atoms: C_2  and  N_26 
REMARK    2  A    between atoms: C_3  and  O_4 
REMARK    3  A    between atoms: O_4  and  C_5 
REMARK    4  A    between atoms: C_7  and  C_5 
REMARK    5  A    between atoms: C_7  and  N_18 
REMARK    6  A    between atoms: C_7  and  C_8 
REMARK    7  A    between atoms: C_8  and  C_9 
REMARK       I    between atoms: N_18  and  C_19 
REMARK    8  A    between atoms: C_19  and  C_21 
REMARK    9  A    between atoms: N_26  and  C_27 
REMARK   10  A    between atoms: C_30  and  N_31 
ROOT
ATOM      1  C   UNL d   1      27.305 -13.706  -3.946  0.00  0.00     0.188 C 
ENDROOT
BRANCH   1   2
ATOM      2  N   UNL d   1      27.323 -13.620  -2.427  0.00  0.00    -0.342 N 
ATOM      3  C   UNL d   1      27.064 -12.494  -1.673  0.00  0.00     0.259 C 
ATOM      4  O   UNL d   1      26.710 -11.440  -2.233  0.00  0.00    -0.267 OA
ATOM      5  H   UNL d   1      27.552 -14.457  -1.896  0.00  0.00     0.163 HD
BRANCH   3   6
ATOM      6  C   UNL d   1      27.127 -12.654  -0.225  0.00  0.00     0.072 A 
ATOM      7  C   UNL d   1      27.197 -11.678   0.756  0.00  0.00     0.025 A 
ATOM      8  C   UNL d   1      27.197 -12.215   2.082  0.00  0.00     0.009 A 
ATOM      9  C   UNL d   1      27.147 -13.591   2.083  0.00  0.00     0.050 A 
ATOM     10  S   UNL d   1      27.065 -14.220   0.488  0.00  0.00    -0.097 SA
ENDBRANCH   3   6
ENDBRANCH   1   2
BRANCH   1  11
ATOM     11  C   UNL d   1      28.788 -13.568  -4.366  0.00  0.00     0.072 C 
BRANCH  11  12
ATOM     12  C   UNL d   1      29.622 -14.796  -4.028  0.00  0.00    -0.048 C 
ATOM     13  C   UNL d   1      30.121 -15.196  -2.833  0.00  0.00    -0.006 A 
ATOM     14  C   UNL d   1      30.072 -14.664  -1.493  0.00  0.00     0.014 A 
ATOM     15  C   UNL d   1      30.338 -16.647  -3.004  0.00  0.00     0.038 A 
ATOM     16  C   UNL d   1      30.100 -15.458  -0.421  0.00  0.00     0.001 A 
ATOM     17  C   UNL d   1      30.340 -16.864  -0.566  0.00  0.00     0.002 A 
ATOM     18  C   UNL d   1      30.527 -17.458  -1.764  0.00  0.00     0.030 A 
ATOM     19  N   UNL d   1      30.127 -17.033  -4.207  0.00  0.00    -0.385 N 
ATOM     20  C   UNL d   1      29.699 -15.902  -5.052  0.00  0.00     0.155 C 
ATOM     21  H   UNL d   1      30.034 -18.016  -4.463  0.00  0.00     0.160 HD
ENDBRANCH  11  12
ENDBRANCH   1  11
BRANCH   1  22
ATOM     22  C   UNL d   1      26.603 -14.977  -4.758  0.00  0.00     0.282 C 
ATOM     23  O   UNL d   1      27.011 -15.418  -5.821  0.00  0.00    -0.263 OA
BRANCH  22  24
ATOM     24  O   UNL d   1      25.383 -15.415  -4.218  0.00  0.00    -0.310 OA
BRANCH  24  25
ATOM     25  C   UNL d   1      25.240 -15.387  -2.761  0.00  0.00     0.281 C 
BRANCH  25  26
ATOM     26  C   UNL d   1      26.157 -16.341  -1.783  0.00  0.00     0.246 C 
ATOM     27  O   UNL d   1      27.394 -16.331  -1.845  0.00  0.00    -0.271 OA
ATOM     28  N   UNL d   1      25.558 -17.053  -0.723  0.00  0.00    -0.325 N 
ATOM     29  H   UNL d   1      26.149 -17.351   0.051  0.00  0.00     0.169 HD
BRANCH  28  30
ATOM     30  C   UNL d   1      24.212 -17.440  -0.674  0.00  0.00     0.034 C 
ATOM     31  C   UNL d   1      23.964 -18.760  -0.336  0.00  0.00     0.032 C 
ATOM     32  C   UNL d   1      22.738 -19.343  -0.525  0.00  0.00     0.038 C 
ATOM     33  C   UNL d   1      21.657 -18.515  -0.777  0.00  0.00     0.103 C 
ATOM     34  C   UNL d   1      21.830 -17.123  -0.883  0.00  0.00     0.038 C 
ATOM     35  C   UNL d   1      23.130 -16.583  -0.899  0.00  0.00     0.032 C 
BRANCH  33  36
ATOM     36  N   UNL d   1      20.340 -19.137  -0.890  0.00  0.00    -0.116 N 
ATOM     37  O   UNL d   1      20.067 -19.701  -1.960  0.00  0.00    -0.532 OA
ATOM     38  O   UNL d   1      19.583 -19.054   0.083  0.00  0.00    -0.532 OA
ENDBRANCH  33  36
ENDBRANCH  28  30
ENDBRANCH  25  26
ENDBRANCH  24  25
ENDBRANCH  22  24
ENDBRANCH   1  22
TORSDOF 10
ENDMDL
MODEL 9
REMARK VINA RESULT:    -8.360      2.586      4.841
REMARK INTER + INTRA:         -14.919
REMARK INTER:                 -11.343
REMARK INTRA:                  -3.576
REMARK CONF_INDEPENDENT:        2.983
REMARK UNBOUND:                -3.576
REMARK  10 active torsions:
REMARK  status: ('A' for Active; 'I' for Inactive)
REMARK    1  A    between atoms: C_2  and  C_3 
REMARK       I    between atoms: C_2  and  N_26 
REMARK    2  A    between atoms: C_3  and  O_4 
REMARK    3  A    between atoms: O_4  and  C_5 
REMARK    4  A    between atoms: C_7  and  C_5 
REMARK    5  A    between atoms: C_7  and  N_18 
REMARK    6  A    between atoms: C_7  and  C_8 
REMARK    7  A    between atoms: C_8  and  C_9 
REMARK       I    between atoms: N_18  and  C_19 
REMARK    8  A    between atoms: C_19  and  C_21 
REMARK    9  A    between atoms: N_26  and  C_27 
REMARK   10  A    between atoms: C_30  and  N_31 
ROOT
ATOM      1  C   UNL d   1      25.828 -13.275  -2.397  0.00  0.00     0.188 C 
ENDROOT
BRANCH   1   2
ATOM      2  N   UNL d   1      26.853 -13.574  -1.313  0.00  0.00    -0.342 N 
ATOM      3  C   UNL d   1      27.548 -12.642  -0.572  0.00  0.00     0.259 C 
ATOM      4  O   UNL d   1      27.302 -11.430  -0.711  0.00  0.00    -0.267 OA
ATOM      5  H   UNL d   1      27.068 -14.546  -1.104  0.00  0.00     0.163 HD
BRANCH   3   6
ATOM      6  C   UNL d   1      28.475 -13.166   0.426  0.00  0.00     0.072 A 
ATOM      7  C   UNL d   1      29.850 -13.016   0.499  0.00  0.00     0.025 A 
ATOM      8  C   UNL d   1      30.420 -13.637   1.654  0.00  0.00     0.009 A 
ATOM      9  C   UNL d   1      29.469 -14.265   2.427  0.00  0.00     0.050 A 
ATOM     10  S   UNL d   1      27.895 -14.069   1.772  0.00  0.00    -0.097 SA
ENDBRANCH   3   6
ENDBRANCH   1   2
BRANCH   1  11
ATOM     11  C   UNL d   1      26.436 -12.103  -3.203  0.00  0.00     0.072 C 
BRANCH  11  12
ATOM     12  C   UNL d   1      27.347 -12.562  -4.333  0.00  0.00    -0.048 C 
ATOM     13  C   UNL d   1      28.309 -13.517  -4.330  0.00  0.00    -0.006 A 
ATOM     14  C   UNL d   1      28.828 -14.421  -3.331  0.00  0.00     0.014 A 
ATOM     15  C   UNL d   1      28.448 -13.890  -5.753  0.00  0.00     0.038 A 
ATOM     16  C   UNL d   1      29.314 -15.620  -3.655  0.00  0.00     0.001 A 
ATOM     17  C   UNL d   1      29.483 -15.987  -5.031  0.00  0.00     0.002 A 
ATOM     18  C   UNL d   1      29.151 -15.173  -6.055  0.00  0.00     0.030 A 
ATOM     19  N   UNL d   1      27.750 -13.141  -6.523  0.00  0.00    -0.385 N 
ATOM     20  C   UNL d   1      26.994 -12.145  -5.740  0.00  0.00     0.155 C 
ATOM     21  H   UNL d   1      27.567 -13.372  -7.499  0.00  0.00     0.160 HD
ENDBRANCH  11  12
ENDBRANCH   1  11
BRANCH   1  22
ATOM     22  C   UNL d   1      25.266 -14.444  -3.438  0.00  0.00     0.282 C 
ATOM     23  O   UNL d   1      24.791 -14.210  -4.539  0.00  0.00    -0.263 OA
BRANCH  22  24
ATOM     24  O   UNL d   1      25.213 -15.737  -2.893  0.00  0.00    -0.310 OA
BRANCH  24  25
ATOM     25  C   UNL d   1      26.471 -16.329  -2.433  0.00  0.00     0.281 C 
BRANCH  25  26
ATOM     26  C   UNL d   1      26.758 -16.618  -0.838  0.00  0.00     0.246 C 
ATOM     27  O   UNL d   1      27.875 -16.430  -0.337  0.00  0.00    -0.271 OA
ATOM     28  N   UNL d   1      25.687 -16.908   0.033  0.00  0.00    -0.325 N 
ATOM     29  H   UNL d   1      25.822 -16.751   1.030  0.00  0.00     0.169 HD
BRANCH  28  30
ATOM     30  C   UNL d   1      24.458 -17.457  -0.359  0.00  0.00     0.034 C 
ATOM     31  C   UNL d   1      23.448 -16.555  -0.651  0.00  0.00     0.032 C 
ATOM     32  C   UNL d   1      22.138 -16.940  -0.766  0.00  0.00     0.038 C 
ATOM     33  C   UNL d   1      21.866 -18.292  -0.887  0.00  0.00     0.103 C 
ATOM     34  C   UNL d   1      22.906 -19.238  -0.843  0.00  0.00     0.038 C 
ATOM     35  C   UNL d   1      24.210 -18.825  -0.508  0.00  0.00     0.032 C 
BRANCH  33  36
ATOM     36  N   UNL d   1      20.475 -18.687  -1.098  0.00  0.00    -0.116 N 
ATOM     37  O   UNL d   1      19.603 -17.829  -0.893  0.00  0.00    -0.532 OA
ATOM     38  O   UNL d   1      20.259 -19.849  -1.457  0.00  0.00    -0.532 OA
ENDBRANCH  33  36
ENDBRANCH  28  30
ENDBRANCH  25  26
ENDBRANCH  24  25
ENDBRANCH  22  24
ENDBRANCH   1  22
TORSDOF 10
ENDMDL
