MODEL 1
REMARK VINA RESULT:    -9.643      0.000      0.000
REMARK INTER + INTRA:         -13.832
REMARK INTER:                 -11.731
REMARK INTRA:                  -2.102
REMARK CONF_INDEPENDENT:        2.088
REMARK UNBOUND:                -2.102
REMARK  7 active torsions:
REMARK  status: ('A' for Active; 'I' for Inactive)
REMARK    1  A    between atoms: C_2  and  C_3 
REMARK    2  A    between atoms: C_3  and  N_6 
REMARK    3  A    between atoms: C_10  and  C_11 
REMARK    4  A    between atoms: C_11  and  C_12 
REMARK    5  A    between atoms: C_11  and  N_26 
REMARK    6  A    between atoms: N_29  and  C_30 
REMARK    7  A    between atoms: C_33  and  O_34 
ROOT
ATOM      1  C   UNL d   1      28.833 -15.613  -0.549  0.00  0.00     0.298 C 
ENDROOT
BRANCH   1   2
ATOM      2  C   UNL d   1      29.653 -16.586  -1.375  0.00  0.00     0.173 A 
ATOM      3  N   UNL d   1      30.368 -17.552  -0.822  0.00  0.00    -0.145 NA
ATOM      4  N   UNL d   1      31.049 -18.173  -1.828  0.00  0.00     0.018 NA
ATOM      5  N   UNL d   1      30.769 -17.623  -2.999  0.00  0.00    -0.002 NA
ATOM      6  N   UNL d   1      29.938 -16.586  -2.743  0.00  0.00    -0.252 N 
BRANCH   6   7
ATOM      7  C   UNL d   1      29.418 -15.700  -3.934  0.00  0.00     0.046 C 
ATOM      8  C   UNL d   1      29.750 -16.700  -5.184  0.00  0.00     0.039 C 
ATOM      9  C   UNL d   1      30.158 -14.307  -3.729  0.00  0.00     0.039 C 
BRANCH   7  10
ATOM     10  C   UNL d   1      27.689 -15.575  -3.952  0.00  0.00     0.027 C 
ATOM     11  C   UNL d   1      25.956 -15.142  -4.943  0.00  0.00     0.007 C 
ENDBRANCH   7  10
ENDBRANCH   6   7
ENDBRANCH   1   2
BRANCH   1  12
ATOM     12  C   UNL d   1      27.361 -15.990  -0.476  0.00  0.00     0.049 C 
ATOM     13  C   UNL d   1      26.923 -17.214  -0.101  0.00  0.00     0.028 C 
ATOM     14  C   UNL d   1      25.518 -17.602  -0.338  0.00  0.00    -0.009 C 
ATOM     15  C   UNL d   1      24.892 -18.848  -0.066  0.00  0.00     0.035 C 
ATOM     16  C   UNL d   1      24.702 -16.620  -0.876  0.00  0.00     0.047 C 
ATOM     17  C   UNL d   1      23.467 -18.930  -0.150  0.00  0.00     0.171 C 
ATOM     18  C   UNL d   1      22.813 -17.738  -0.066  0.00  0.00     0.093 C 
ATOM     19  O   UNL d   1      22.626 -19.569  -1.192  0.00  0.00    -0.341 OA
ATOM     20  C   UNL d   1      23.353 -16.684  -0.745  0.00  0.00     0.066 C 
ATOM     21  O   UNL d   1      21.461 -17.825  -0.145  0.00  0.00    -0.327 OA
ATOM     22  C   UNL d   1      21.490 -18.595  -1.333  0.00  0.00     0.346 C 
ATOM     23  N   UNL d   1      25.173 -15.434  -1.375  0.00  0.00    -0.322 N 
ATOM     24  C   UNL d   1      26.349 -14.964  -0.936  0.00  0.00     0.254 C 
ATOM     25  H   UNL d   1      24.521 -14.736  -1.719  0.00  0.00     0.169 HD
ATOM     26  O   UNL d   1      26.548 -13.767  -1.091  0.00  0.00    -0.268 OA
ENDBRANCH   1  12
BRANCH   1  27
ATOM     27  N   UNL d   1      29.323 -15.303   0.891  0.00  0.00    -0.052 N 
ATOM     28  C   UNL d   1      30.433 -13.681   0.528  0.00  0.00     0.256 C 
ATOM     29  C   UNL d   1      30.306 -12.191   1.766  0.00  0.00     0.150 C 
ATOM     30  N   UNL d   1      28.652 -11.963   2.777  0.00  0.00    -0.378 N 
ATOM     31  C   UNL d   1      27.617 -13.566   3.264  0.00  0.00     0.150 C 
ATOM     32  C   UNL d   1      27.780 -15.216   2.178  0.00  0.00     0.256 C 
ATOM     33  H   UNL d   1      30.011 -15.945   1.309  0.00  0.00     0.281 HD
BRANCH  30  34
ATOM     34  C   UNL d   1      28.173 -10.670   2.973  0.00  0.00     0.030 C 
ATOM     35  C   UNL d   1      27.194 -10.078   2.163  0.00  0.00     0.032 C 
ATOM     36  C   UNL d   1      26.724  -8.817   2.266  0.00  0.00     0.039 C 
ATOM     37  C   UNL d   1      27.121  -8.184   3.399  0.00  0.00     0.065 C 
ATOM     38  C   UNL d   1      27.946  -8.801   4.352  0.00  0.00     0.039 C 
ATOM     39  C   UNL d   1      28.541 -10.025   4.104  0.00  0.00     0.032 C 
BRANCH  37  40
ATOM     40  O   UNL d   1      26.655  -6.931   3.594  0.00  0.00    -0.361 OA
ATOM     41  H   UNL d   1      27.429  -6.349   3.485  0.00  0.00     0.217 HD
ENDBRANCH  37  40
ENDBRANCH  30  34
ENDBRANCH   1  27
TORSDOF 7
ENDMDL
MODEL 2
REMARK VINA RESULT:    -9.505      0.849      1.452
REMARK INTER + INTRA:         -13.348
REMARK INTER:                 -11.593
REMARK INTRA:                  -1.755
REMARK CONF_INDEPENDENT:        2.088
REMARK UNBOUND:                -1.755
REMARK  7 active torsions:
REMARK  status: ('A' for Active; 'I' for Inactive)
REMARK    1  A    between atoms: C_2  and  C_3 
REMARK    2  A    between atoms: C_3  and  N_6 
REMARK    3  A    between atoms: C_10  and  C_11 
REMARK    4  A    between atoms: C_11  and  C_12 
REMARK    5  A    between atoms: C_11  and  N_26 
REMARK    6  A    between atoms: N_29  and  C_30 
REMARK    7  A    between atoms: C_33  and  O_34 
ROOT
ATOM      1  C   UNL d   1      28.836 -15.858  -0.733  0.00  0.00     0.298 C 
ENDROOT
BRANCH   1   2
ATOM      2  C   UNL d   1      29.649 -16.991  -1.334  0.00  0.00     0.173 A 
ATOM      3  N   UNL d   1      30.157 -17.963  -0.593  0.00  0.00    -0.145 NA
ATOM      4  N   UNL d   1      30.900 -18.750  -1.422  0.00  0.00     0.018 NA
ATOM      5  N   UNL d   1      30.862 -18.298  -2.666  0.00  0.00    -0.002 NA
ATOM      6  N   UNL d   1      30.130 -17.160  -2.634  0.00  0.00    -0.252 N 
BRANCH   6   7
ATOM      7  C   UNL d   1      29.898 -16.353  -3.964  0.00  0.00     0.046 C 
ATOM      8  C   UNL d   1      31.213 -15.382  -3.928  0.00  0.00     0.039 C 
ATOM      9  C   UNL d   1      28.415 -15.796  -3.822  0.00  0.00     0.039 C 
BRANCH   7  10
ATOM     10  C   UNL d   1      30.143 -17.330  -5.375  0.00  0.00     0.027 C 
ATOM     11  C   UNL d   1      30.420 -19.163  -6.232  0.00  0.00     0.007 C 
ENDBRANCH   7  10
ENDBRANCH   6   7
ENDBRANCH   1   2
BRANCH   1  12
ATOM     12  C   UNL d   1      27.354 -16.184  -0.625  0.00  0.00     0.049 C 
ATOM     13  C   UNL d   1      26.883 -17.386  -0.218  0.00  0.00     0.028 C 
ATOM     14  C   UNL d   1      25.462 -17.731  -0.420  0.00  0.00    -0.009 C 
ATOM     15  C   UNL d   1      24.801 -18.950  -0.112  0.00  0.00     0.035 C 
ATOM     16  C   UNL d   1      24.668 -16.732  -0.961  0.00  0.00     0.047 C 
ATOM     17  C   UNL d   1      23.372 -18.986  -0.167  0.00  0.00     0.171 C 
ATOM     18  C   UNL d   1      22.760 -17.771  -0.094  0.00  0.00     0.093 C 
ATOM     19  O   UNL d   1      22.491 -19.616  -1.180  0.00  0.00    -0.341 OA
ATOM     20  C   UNL d   1      23.321 -16.748  -0.803  0.00  0.00     0.066 C 
ATOM     21  O   UNL d   1      21.405 -17.815  -0.145  0.00  0.00    -0.327 OA
ATOM     22  C   UNL d   1      21.384 -18.607  -1.319  0.00  0.00     0.346 C 
ATOM     23  N   UNL d   1      25.169 -15.573  -1.493  0.00  0.00    -0.322 N 
ATOM     24  C   UNL d   1      26.368 -15.134  -1.086  0.00  0.00     0.254 C 
ATOM     25  H   UNL d   1      24.533 -14.859  -1.837  0.00  0.00     0.169 HD
ATOM     26  O   UNL d   1      26.604 -13.947  -1.267  0.00  0.00    -0.268 OA
ENDBRANCH   1  12
BRANCH   1  27
ATOM     27  N   UNL d   1      29.304 -15.283   0.630  0.00  0.00    -0.052 N 
ATOM     28  C   UNL d   1      30.201 -13.611   0.001  0.00  0.00     0.256 C 
ATOM     29  C   UNL d   1      29.908 -11.981   1.015  0.00  0.00     0.150 C 
ATOM     30  N   UNL d   1      28.252 -11.806   2.034  0.00  0.00    -0.378 N 
ATOM     31  C   UNL d   1      27.430 -13.433   2.781  0.00  0.00     0.150 C 
ATOM     32  C   UNL d   1      27.780 -15.193   1.940  0.00  0.00     0.256 C 
ATOM     33  H   UNL d   1      30.072 -15.768   1.115  0.00  0.00     0.281 HD
BRANCH  30  34
ATOM     34  C   UNL d   1      27.620 -10.566   2.056  0.00  0.00     0.030 C 
ATOM     35  C   UNL d   1      27.034  -9.977   0.926  0.00  0.00     0.032 C 
ATOM     36  C   UNL d   1      26.453  -8.760   0.867  0.00  0.00     0.039 C 
ATOM     37  C   UNL d   1      26.266  -8.192   2.085  0.00  0.00     0.065 C 
ATOM     38  C   UNL d   1      26.655  -8.825   3.276  0.00  0.00     0.039 C 
ATOM     39  C   UNL d   1      27.407  -9.986   3.260  0.00  0.00     0.032 C 
BRANCH  37  40
ATOM     40  O   UNL d   1      25.650  -6.989   2.110  0.00  0.00    -0.361 OA
ATOM     41  H   UNL d   1      26.355  -6.336   1.947  0.00  0.00     0.217 HD
ENDBRANCH  37  40
ENDBRANCH  30  34
ENDBRANCH   1  27
TORSDOF 7
ENDMDL
MODEL 3
REMARK VINA RESULT:    -9.135      2.809      7.838
REMARK INTER + INTRA:         -12.991
REMARK INTER:                 -11.223
REMARK INTRA:                  -1.768
REMARK CONF_INDEPENDENT:        2.088
REMARK UNBOUND:                -1.768
REMARK  7 active torsions:
REMARK  status: ('A' for Active; 'I' for Inactive)
REMARK    1  A    between atoms: C_2  and  C_3 
REMARK    2  A    between atoms: C_3  and  N_6 
REMARK    3  A    between atoms: C_10  and  C_11 
REMARK    4  A    between atoms: C_11  and  C_12 
REMARK    5  A    between atoms: C_11  and  N_26 
REMARK    6  A    between atoms: N_29  and  C_30 
REMARK    7  A    between atoms: C_33  and  O_34 
ROOT
ATOM      1  C   UNL d   1      28.149 -14.695   0.581  0.00  0.00     0.298 C 
ENDROOT
BRANCH   1   2
ATOM      2  C   UNL d   1      27.601 -13.514   1.362  0.00  0.00     0.173 A 
ATOM      3  N   UNL d   1      26.836 -12.592   0.800  0.00  0.00    -0.145 NA
ATOM      4  N   UNL d   1      26.602 -11.637   1.745  0.00  0.00     0.018 NA
ATOM      5  N   UNL d   1      27.196 -11.944   2.888  0.00  0.00    -0.002 NA
ATOM      6  N   UNL d   1      27.879 -13.090   2.663  0.00  0.00    -0.252 N 
BRANCH   6   7
ATOM      7  C   UNL d   1      28.717 -13.730   3.830  0.00  0.00     0.046 C 
ATOM      8  C   UNL d   1      30.113 -14.030   3.033  0.00  0.00     0.039 C 
ATOM      9  C   UNL d   1      27.780 -14.889   4.387  0.00  0.00     0.039 C 
BRANCH   7  10
ATOM     10  C   UNL d   1      29.169 -12.563   5.030  0.00  0.00     0.027 C 
ATOM     11  C   UNL d   1      29.869 -10.707   5.519  0.00  0.00     0.007 C 
ENDBRANCH   7  10
ENDBRANCH   6   7
ENDBRANCH   1   2
BRANCH   1  12
ATOM     12  C   UNL d   1      27.063 -15.654   0.117  0.00  0.00     0.049 C 
ATOM     13  C   UNL d   1      25.795 -15.268  -0.155  0.00  0.00     0.028 C 
ATOM     14  C   UNL d   1      24.730 -16.280  -0.308  0.00  0.00    -0.009 C 
ATOM     15  C   UNL d   1      23.344 -16.070  -0.540  0.00  0.00     0.035 C 
ATOM     16  C   UNL d   1      25.138 -17.603  -0.236  0.00  0.00     0.047 C 
ATOM     17  C   UNL d   1      22.532 -17.193  -0.895  0.00  0.00     0.171 C 
ATOM     18  C   UNL d   1      23.213 -18.264  -1.389  0.00  0.00     0.093 C 
ATOM     19  O   UNL d   1      21.535 -17.923  -0.075  0.00  0.00    -0.341 OA
ATOM     20  C   UNL d   1      24.384 -18.596  -0.771  0.00  0.00     0.066 C 
ATOM     21  O   UNL d   1      22.435 -19.324  -1.726  0.00  0.00    -0.327 OA
ATOM     22  C   UNL d   1      21.775 -19.353  -0.472  0.00  0.00     0.346 C 
ATOM     23  N   UNL d   1      26.389 -17.987   0.169  0.00  0.00    -0.322 N 
ATOM     24  C   UNL d   1      27.407 -17.125   0.047  0.00  0.00     0.254 C 
ATOM     25  H   UNL d   1      26.642 -18.971   0.162  0.00  0.00     0.169 HD
ATOM     26  O   UNL d   1      28.532 -17.608   0.043  0.00  0.00    -0.268 OA
ENDBRANCH   1  12
BRANCH   1  27
ATOM     27  N   UNL d   1      29.072 -14.390  -0.628  0.00  0.00    -0.052 N 
ATOM     28  C   UNL d   1      30.638 -15.539  -0.155  0.00  0.00     0.256 C 
ATOM     29  C   UNL d   1      31.482 -16.562  -1.572  0.00  0.00     0.150 C 
ATOM     30  N   UNL d   1      30.403 -17.073  -3.117  0.00  0.00    -0.378 N 
ATOM     31  C   UNL d   1      28.942 -15.879  -3.682  0.00  0.00     0.150 C 
ATOM     32  C   UNL d   1      28.100 -14.657  -2.368  0.00  0.00     0.256 C 
ATOM     33  H   UNL d   1      29.500 -13.455  -0.678  0.00  0.00     0.281 HD
BRANCH  30  34
ATOM     34  C   UNL d   1      30.592 -18.340  -3.662  0.00  0.00     0.030 C 
ATOM     35  C   UNL d   1      30.404 -18.632  -5.021  0.00  0.00     0.032 C 
ATOM     36  C   UNL d   1      30.521 -19.843  -5.604  0.00  0.00     0.039 C 
ATOM     37  C   UNL d   1      31.072 -20.781  -4.793  0.00  0.00     0.065 C 
ATOM     38  C   UNL d   1      31.468 -20.496  -3.476  0.00  0.00     0.039 C 
ATOM     39  C   UNL d   1      31.156 -19.288  -2.879  0.00  0.00     0.032 C 
BRANCH  37  40
ATOM     40  O   UNL d   1      31.261 -22.011  -5.321  0.00  0.00    -0.361 OA
ATOM     41  H   UNL d   1      30.439 -22.500  -5.135  0.00  0.00     0.217 HD
ENDBRANCH  37  40
ENDBRANCH  30  34
ENDBRANCH   1  27
TORSDOF 7
ENDMDL
MODEL 4
REMARK VINA RESULT:    -8.996      3.758      7.157
REMARK INTER + INTRA:         -13.131
REMARK INTER:                 -11.084
REMARK INTRA:                  -2.047
REMARK CONF_INDEPENDENT:        2.088
REMARK UNBOUND:                -2.047
REMARK  7 active torsions:
REMARK  status: ('A' for Active; 'I' for Inactive)
REMARK    1  A    between atoms: C_2  and  C_3 
REMARK    2  A    between atoms: C_3  and  N_6 
REMARK    3  A    between atoms: C_10  and  C_11 
REMARK    4  A    between atoms: C_11  and  C_12 
REMARK    5  A    between atoms: C_11  and  N_26 
REMARK    6  A    between atoms: N_29  and  C_30 
REMARK    7  A    between atoms: C_33  and  O_34 
ROOT
ATOM      1  C   UNL d   1      28.712 -15.774  -3.123  0.00  0.00     0.298 C 
ENDROOT
BRANCH   1   2
ATOM      2  C   UNL d   1      27.222 -15.567  -3.326  0.00  0.00     0.173 A 
ATOM      3  N   UNL d   1      26.735 -14.957  -4.395  0.00  0.00    -0.145 NA
ATOM      4  N   UNL d   1      25.386 -14.854  -4.217  0.00  0.00     0.018 NA
ATOM      5  N   UNL d   1      25.017 -15.395  -3.065  0.00  0.00    -0.002 NA
ATOM      6  N   UNL d   1      26.155 -15.802  -2.456  0.00  0.00    -0.252 N 
BRANCH   6   7
ATOM      7  C   UNL d   1      26.071 -16.485  -1.041  0.00  0.00     0.046 C 
ATOM      8  C   UNL d   1      25.596 -15.203  -0.145  0.00  0.00     0.039 C 
ATOM      9  C   UNL d   1      27.492 -17.178  -0.864  0.00  0.00     0.039 C 
BRANCH   7  10
ATOM     10  C   UNL d   1      24.739 -17.588  -0.924  0.00  0.00     0.027 C 
ATOM     11  C   UNL d   1      22.726 -17.935  -0.892  0.00  0.00     0.007 C 
ENDBRANCH   7  10
ENDBRANCH   6   7
ENDBRANCH   1   2
BRANCH   1  12
ATOM     12  C   UNL d   1      29.431 -16.196  -4.396  0.00  0.00     0.049 C 
ATOM     13  C   UNL d   1      29.656 -17.487  -4.732  0.00  0.00     0.028 C 
ATOM     14  C   UNL d   1      30.609 -17.817  -5.811  0.00  0.00    -0.009 C 
ATOM     15  C   UNL d   1      31.012 -19.100  -6.266  0.00  0.00     0.035 C 
ATOM     16  C   UNL d   1      31.164 -16.735  -6.478  0.00  0.00     0.047 C 
ATOM     17  C   UNL d   1      31.761 -19.190  -7.482  0.00  0.00     0.171 C 
ATOM     18  C   UNL d   1      31.658 -18.111  -8.305  0.00  0.00     0.093 C 
ATOM     19  O   UNL d   1      33.203 -19.477  -7.673  0.00  0.00    -0.341 OA
ATOM     20  C   UNL d   1      31.690 -16.877  -7.720  0.00  0.00     0.066 C 
ATOM     21  O   UNL d   1      32.369 -18.205  -9.457  0.00  0.00    -0.327 OA
ATOM     22  C   UNL d   1      33.573 -18.543  -8.792  0.00  0.00     0.346 C 
ATOM     23  N   UNL d   1      31.039 -15.439  -6.052  0.00  0.00    -0.322 N 
ATOM     24  C   UNL d   1      29.998 -15.105  -5.277  0.00  0.00     0.254 C 
ATOM     25  H   UNL d   1      31.434 -14.685  -6.607  0.00  0.00     0.169 HD
ATOM     26  O   UNL d   1      29.703 -13.918  -5.243  0.00  0.00    -0.268 OA
ENDBRANCH   1  12
BRANCH   1  27
ATOM     27  N   UNL d   1      29.516 -14.616  -2.476  0.00  0.00    -0.052 N 
ATOM     28  C   UNL d   1      28.029 -13.646  -1.556  0.00  0.00     0.256 C 
ATOM     29  C   UNL d   1      28.343 -12.986   0.242  0.00  0.00     0.150 C 
ATOM     30  N   UNL d   1      29.662 -13.905   1.350  0.00  0.00    -0.378 N 
ATOM     31  C   UNL d   1      31.209 -14.747   0.470  0.00  0.00     0.150 C 
ATOM     32  C   UNL d   1      31.079 -15.320  -1.423  0.00  0.00     0.256 C 
ATOM     33  H   UNL d   1      29.893 -13.889  -3.099  0.00  0.00     0.281 HD
BRANCH  30  34
ATOM     34  C   UNL d   1      29.379 -14.078   2.703  0.00  0.00     0.030 C 
ATOM     35  C   UNL d   1      28.091 -14.331   3.196  0.00  0.00     0.032 C 
ATOM     36  C   UNL d   1      27.741 -14.458   4.493  0.00  0.00     0.039 C 
ATOM     37  C   UNL d   1      28.803 -14.544   5.333  0.00  0.00     0.065 C 
ATOM     38  C   UNL d   1      30.129 -14.497   4.873  0.00  0.00     0.039 C 
ATOM     39  C   UNL d   1      30.422 -14.185   3.558  0.00  0.00     0.032 C 
BRANCH  37  40
ATOM     40  O   UNL d   1      28.532 -14.716   6.646  0.00  0.00    -0.361 OA
ATOM     41  H   UNL d   1      28.525 -15.681   6.783  0.00  0.00     0.217 HD
ENDBRANCH  37  40
ENDBRANCH  30  34
ENDBRANCH   1  27
TORSDOF 7
ENDMDL
MODEL 5
REMARK VINA RESULT:    -8.881      2.611      8.878
REMARK INTER + INTRA:         -13.324
REMARK INTER:                 -10.969
REMARK INTRA:                  -2.355
REMARK CONF_INDEPENDENT:        2.088
REMARK UNBOUND:                -2.355
REMARK  7 active torsions:
REMARK  status: ('A' for Active; 'I' for Inactive)
REMARK    1  A    between atoms: C_2  and  C_3 
REMARK    2  A    between atoms: C_3  and  N_6 
REMARK    3  A    between atoms: C_10  and  C_11 
REMARK    4  A    between atoms: C_11  and  C_12 
REMARK    5  A    between atoms: C_11  and  N_26 
REMARK    6  A    between atoms: N_29  and  C_30 
REMARK    7  A    between atoms: C_33  and  O_34 
ROOT
ATOM      1  C   UNL d   1      28.304 -13.664   1.541  0.00  0.00     0.298 C 
ENDROOT
BRANCH   1   2
ATOM      2  C   UNL d   1      29.456 -14.000   2.470  0.00  0.00     0.173 A 
ATOM      3  N   UNL d   1      30.616 -14.449   2.020  0.00  0.00    -0.145 NA
ATOM      4  N   UNL d   1      31.383 -14.738   3.110  0.00  0.00     0.018 NA
ATOM      5  N   UNL d   1      30.733 -14.472   4.232  0.00  0.00    -0.002 NA
ATOM      6  N   UNL d   1      29.497 -14.059   3.865  0.00  0.00    -0.252 N 
BRANCH   6   7
ATOM      7  C   UNL d   1      28.452 -13.670   4.975  0.00  0.00     0.046 C 
ATOM      8  C   UNL d   1      29.112 -14.443   6.255  0.00  0.00     0.039 C 
ATOM      9  C   UNL d   1      27.052 -14.088   4.347  0.00  0.00     0.039 C 
BRANCH   7  10
ATOM     10  C   UNL d   1      28.549 -11.995   5.407  0.00  0.00     0.027 C 
ATOM     11  C   UNL d   1      28.418 -10.022   4.891  0.00  0.00     0.007 C 
ENDBRANCH   7  10
ENDBRANCH   6   7
ENDBRANCH   1   2
BRANCH   1  12
ATOM     12  C   UNL d   1      28.138 -12.168   1.318  0.00  0.00     0.049 C 
ATOM     13  C   UNL d   1      27.353 -11.382   2.091  0.00  0.00     0.028 C 
ATOM     14  C   UNL d   1      27.004 -10.018   1.645  0.00  0.00    -0.009 C 
ATOM     15  C   UNL d   1      26.159  -9.073   2.285  0.00  0.00     0.035 C 
ATOM     16  C   UNL d   1      27.593  -9.600   0.462  0.00  0.00     0.047 C 
ATOM     17  C   UNL d   1      26.151  -7.726   1.804  0.00  0.00     0.171 C 
ATOM     18  C   UNL d   1      27.241  -7.368   1.070  0.00  0.00     0.093 C 
ATOM     19  O   UNL d   1      25.112  -7.021   1.014  0.00  0.00    -0.341 OA
ATOM     20  C   UNL d   1      27.712  -8.280   0.170  0.00  0.00     0.066 C 
ATOM     21  O   UNL d   1      27.226  -6.089   0.619  0.00  0.00    -0.327 OA
ATOM     22  C   UNL d   1      25.934  -6.207   0.053  0.00  0.00     0.346 C 
ATOM     23  N   UNL d   1      28.276 -10.437  -0.381  0.00  0.00    -0.322 N 
ATOM     24  C   UNL d   1      28.820 -11.557   0.114  0.00  0.00     0.254 C 
ATOM     25  H   UNL d   1      28.721 -10.063  -1.214  0.00  0.00     0.169 HD
ATOM     26  O   UNL d   1      29.721 -12.061  -0.543  0.00  0.00    -0.268 OA
ENDBRANCH   1  12
BRANCH   1  27
ATOM     27  N   UNL d   1      28.270 -14.365   0.157  0.00  0.00    -0.052 N 
ATOM     28  C   UNL d   1      28.089 -16.267   0.746  0.00  0.00     0.256 C 
ATOM     29  C   UNL d   1      26.853 -17.409  -0.221  0.00  0.00     0.150 C 
ATOM     30  N   UNL d   1      25.332 -16.579  -1.121  0.00  0.00    -0.378 N 
ATOM     31  C   UNL d   1      25.540 -14.754  -1.832  0.00  0.00     0.150 C 
ATOM     32  C   UNL d   1      26.887 -13.533  -1.043  0.00  0.00     0.256 C 
ATOM     33  H   UNL d   1      29.144 -14.391  -0.386  0.00  0.00     0.281 HD
BRANCH  30  34
ATOM     34  C   UNL d   1      24.105 -17.236  -1.082  0.00  0.00     0.030 C 
ATOM     35  C   UNL d   1      23.975 -18.615  -0.868  0.00  0.00     0.032 C 
ATOM     36  C   UNL d   1      22.824 -19.321  -0.869  0.00  0.00     0.039 C 
ATOM     37  C   UNL d   1      21.713 -18.542  -0.878  0.00  0.00     0.065 C 
ATOM     38  C   UNL d   1      21.781 -17.140  -0.892  0.00  0.00     0.039 C 
ATOM     39  C   UNL d   1      22.983 -16.480  -1.073  0.00  0.00     0.032 C 
BRANCH  37  40
ATOM     40  O   UNL d   1      20.521 -19.177  -0.836  0.00  0.00    -0.361 OA
ATOM     41  H   UNL d   1      19.877 -18.538  -1.191  0.00  0.00     0.217 HD
ENDBRANCH  37  40
ENDBRANCH  30  34
ENDBRANCH   1  27
TORSDOF 7
ENDMDL
MODEL 6
REMARK VINA RESULT:    -8.658      3.049      4.336
REMARK INTER + INTRA:         -13.014
REMARK INTER:                 -10.746
REMARK INTRA:                  -2.268
REMARK CONF_INDEPENDENT:        2.088
REMARK UNBOUND:                -2.268
REMARK  7 active torsions:
REMARK  status: ('A' for Active; 'I' for Inactive)
REMARK    1  A    between atoms: C_2  and  C_3 
REMARK    2  A    between atoms: C_3  and  N_6 
REMARK    3  A    between atoms: C_10  and  C_11 
REMARK    4  A    between atoms: C_11  and  C_12 
REMARK    5  A    between atoms: C_11  and  N_26 
REMARK    6  A    between atoms: N_29  and  C_30 
REMARK    7  A    between atoms: C_33  and  O_34 
ROOT
ATOM      1  C   UNL d   1      27.763 -13.191  -4.028  0.00  0.00     0.298 C 
ENDROOT
BRANCH   1   2
ATOM      2  C   UNL d   1      28.186 -13.927  -5.288  0.00  0.00     0.173 A 
ATOM      3  N   UNL d   1      28.238 -15.247  -5.348  0.00  0.00    -0.145 NA
ATOM      4  N   UNL d   1      28.741 -15.572  -6.574  0.00  0.00     0.018 NA
ATOM      5  N   UNL d   1      28.995 -14.484  -7.285  0.00  0.00    -0.002 NA
ATOM      6  N   UNL d   1      28.710 -13.432  -6.484  0.00  0.00    -0.252 N 
BRANCH   6   7
ATOM      7  C   UNL d   1      28.917 -11.970  -7.026  0.00  0.00     0.046 C 
ATOM      8  C   UNL d   1      28.785 -12.252  -8.631  0.00  0.00     0.039 C 
ATOM      9  C   UNL d   1      30.275 -11.496  -6.346  0.00  0.00     0.039 C 
BRANCH   7  10
ATOM     10  C   UNL d   1      27.566 -10.942  -6.674  0.00  0.00     0.027 C 
ATOM     11  C   UNL d   1      25.555 -10.687  -6.420  0.00  0.00     0.007 C 
ENDBRANCH   7  10
ENDBRANCH   6   7
ENDBRANCH   1   2
BRANCH   1  12
ATOM     12  C   UNL d   1      26.818 -14.003  -3.155  0.00  0.00     0.049 C 
ATOM     13  C   UNL d   1      27.236 -14.965  -2.300  0.00  0.00     0.028 C 
ATOM     14  C   UNL d   1      26.263 -15.909  -1.714  0.00  0.00    -0.009 C 
ATOM     15  C   UNL d   1      26.514 -17.006  -0.848  0.00  0.00     0.035 C 
ATOM     16  C   UNL d   1      24.933 -15.681  -2.034  0.00  0.00     0.047 C 
ATOM     17  C   UNL d   1      25.403 -17.640  -0.208  0.00  0.00     0.171 C 
ATOM     18  C   UNL d   1      24.268 -16.890  -0.145  0.00  0.00     0.093 C 
ATOM     19  O   UNL d   1      24.782 -18.956  -0.497  0.00  0.00    -0.341 OA
ATOM     20  C   UNL d   1      23.935 -16.170  -1.256  0.00  0.00     0.066 C 
ATOM     21  O   UNL d   1      23.219 -17.498   0.466  0.00  0.00    -0.327 OA
ATOM     22  C   UNL d   1      23.317 -18.666  -0.330  0.00  0.00     0.346 C 
ATOM     23  N   UNL d   1      24.528 -14.797  -2.998  0.00  0.00    -0.322 N 
ATOM     24  C   UNL d   1      25.333 -13.777  -3.328  0.00  0.00     0.254 C 
ATOM     25  H   UNL d   1      23.537 -14.643  -3.159  0.00  0.00     0.169 HD
ATOM     26  O   UNL d   1      24.804 -12.820  -3.876  0.00  0.00    -0.268 OA
ENDBRANCH   1  12
BRANCH   1  27
ATOM     27  N   UNL d   1      28.885 -12.618  -3.122  0.00  0.00    -0.052 N 
ATOM     28  C   UNL d   1      27.774 -11.570  -1.832  0.00  0.00     0.256 C 
ATOM     29  C   UNL d   1      28.239 -11.652   0.051  0.00  0.00     0.150 C 
ATOM     30  N   UNL d   1      29.155 -13.244   0.712  0.00  0.00    -0.378 N 
ATOM     31  C   UNL d   1      30.364 -14.209  -0.506  0.00  0.00     0.150 C 
ATOM     32  C   UNL d   1      30.104 -14.078  -2.467  0.00  0.00     0.256 C 
ATOM     33  H   UNL d   1      29.495 -11.891  -3.519  0.00  0.00     0.281 HD
BRANCH  30  34
ATOM     34  C   UNL d   1      28.796 -13.738   1.963  0.00  0.00     0.030 C 
ATOM     35  C   UNL d   1      29.727 -14.087   2.952  0.00  0.00     0.032 C 
ATOM     36  C   UNL d   1      29.451 -14.617   4.162  0.00  0.00     0.039 C 
ATOM     37  C   UNL d   1      28.129 -14.594   4.472  0.00  0.00     0.065 C 
ATOM     38  C   UNL d   1      27.163 -14.071   3.598  0.00  0.00     0.039 C 
ATOM     39  C   UNL d   1      27.487 -13.710   2.303  0.00  0.00     0.032 C 
BRANCH  37  40
ATOM     40  O   UNL d   1      27.779 -15.070   5.687  0.00  0.00    -0.361 OA
ATOM     41  H   UNL d   1      28.562 -15.551   6.011  0.00  0.00     0.217 HD
ENDBRANCH  37  40
ENDBRANCH  30  34
ENDBRANCH   1  27
TORSDOF 7
ENDMDL
MODEL 7
REMARK VINA RESULT:    -8.637      3.922      8.659
REMARK INTER + INTRA:         -13.262
REMARK INTER:                 -10.726
REMARK INTRA:                  -2.536
REMARK CONF_INDEPENDENT:        2.088
REMARK UNBOUND:                -2.536
REMARK  7 active torsions:
REMARK  status: ('A' for Active; 'I' for Inactive)
REMARK    1  A    between atoms: C_2  and  C_3 
REMARK    2  A    between atoms: C_3  and  N_6 
REMARK    3  A    between atoms: C_10  and  C_11 
REMARK    4  A    between atoms: C_11  and  C_12 
REMARK    5  A    between atoms: C_11  and  N_26 
REMARK    6  A    between atoms: N_29  and  C_30 
REMARK    7  A    between atoms: C_33  and  O_34 
ROOT
ATOM      1  C   UNL d   1      29.074 -14.943   0.252  0.00  0.00     0.298 C 
ENDROOT
BRANCH   1   2
ATOM      2  C   UNL d   1      28.020 -15.966  -0.133  0.00  0.00     0.173 A 
ATOM      3  N   UNL d   1      27.807 -17.059   0.580  0.00  0.00    -0.145 NA
ATOM      4  N   UNL d   1      26.873 -17.796  -0.087  0.00  0.00     0.018 NA
ATOM      5  N   UNL d   1      26.491 -17.184  -1.198  0.00  0.00    -0.002 NA
ATOM      6  N   UNL d   1      27.235 -16.057  -1.284  0.00  0.00    -0.252 N 
BRANCH   6   7
ATOM      7  C   UNL d   1      27.036 -15.093  -2.511  0.00  0.00     0.046 C 
ATOM      8  C   UNL d   1      25.433 -15.290  -2.758  0.00  0.00     0.039 C 
ATOM      9  C   UNL d   1      28.133 -15.572  -3.559  0.00  0.00     0.039 C 
BRANCH   7  10
ATOM     10  C   UNL d   1      27.183 -13.424  -2.064  0.00  0.00     0.027 C 
ATOM     11  C   UNL d   1      27.458 -11.992  -0.633  0.00  0.00     0.007 C 
ENDBRANCH   7  10
ENDBRANCH   6   7
ENDBRANCH   1   2
BRANCH   1  12
ATOM     12  C   UNL d   1      29.184 -14.741   1.756  0.00  0.00     0.049 C 
ATOM     13  C   UNL d   1      28.133 -14.414   2.542  0.00  0.00     0.028 C 
ATOM     14  C   UNL d   1      28.359 -13.944   3.924  0.00  0.00    -0.009 C 
ATOM     15  C   UNL d   1      27.397 -13.508   4.874  0.00  0.00     0.035 C 
ATOM     16  C   UNL d   1      29.677 -13.948   4.355  0.00  0.00     0.047 C 
ATOM     17  C   UNL d   1      27.810 -13.326   6.231  0.00  0.00     0.171 C 
ATOM     18  C   UNL d   1      28.953 -13.978   6.580  0.00  0.00     0.093 C 
ATOM     19  O   UNL d   1      28.039 -12.065   6.977  0.00  0.00    -0.341 OA
ATOM     20  C   UNL d   1      29.978 -13.963   5.678  0.00  0.00     0.066 C 
ATOM     21  O   UNL d   1      29.337 -13.801   7.869  0.00  0.00    -0.327 OA
ATOM     22  C   UNL d   1      29.260 -12.389   7.793  0.00  0.00     0.346 C 
ATOM     23  N   UNL d   1      30.745 -14.151   3.521  0.00  0.00    -0.322 N 
ATOM     24  C   UNL d   1      30.560 -14.825   2.378  0.00  0.00     0.254 C 
ATOM     25  H   UNL d   1      31.685 -14.184   3.904  0.00  0.00     0.169 HD
ATOM     26  O   UNL d   1      31.558 -15.317   1.868  0.00  0.00    -0.268 OA
ENDBRANCH   1  12
BRANCH   1  27
ATOM     27  N   UNL d   1      30.505 -15.140  -0.314  0.00  0.00    -0.052 N 
ATOM     28  C   UNL d   1      30.606 -17.137  -0.290  0.00  0.00     0.256 C 
ATOM     29  C   UNL d   1      31.402 -18.030  -1.819  0.00  0.00     0.150 C 
ATOM     30  N   UNL d   1      31.339 -17.135  -3.553  0.00  0.00    -0.378 N 
ATOM     31  C   UNL d   1      31.381 -15.167  -3.600  0.00  0.00     0.150 C 
ATOM     32  C   UNL d   1      30.750 -14.127  -2.035  0.00  0.00     0.256 C 
ATOM     33  H   UNL d   1      31.298 -14.878   0.289  0.00  0.00     0.281 HD
BRANCH  30  34
ATOM     34  C   UNL d   1      31.098 -17.910  -4.684  0.00  0.00     0.030 C 
ATOM     35  C   UNL d   1      30.616 -19.226  -4.631  0.00  0.00     0.032 C 
ATOM     36  C   UNL d   1      30.410 -20.047  -5.682  0.00  0.00     0.039 C 
ATOM     37  C   UNL d   1      30.497 -19.419  -6.882  0.00  0.00     0.065 C 
ATOM     38  C   UNL d   1      30.782 -18.049  -6.993  0.00  0.00     0.039 C 
ATOM     39  C   UNL d   1      31.161 -17.303  -5.892  0.00  0.00     0.032 C 
BRANCH  37  40
ATOM     40  O   UNL d   1      30.259 -20.168  -7.982  0.00  0.00    -0.361 OA
ATOM     41  H   UNL d   1      29.314 -20.400  -7.936  0.00  0.00     0.217 HD
ENDBRANCH  37  40
ENDBRANCH  30  34
ENDBRANCH   1  27
TORSDOF 7
ENDMDL
MODEL 8
REMARK VINA RESULT:    -8.605      4.285      9.611
REMARK INTER + INTRA:         -13.272
REMARK INTER:                 -10.693
REMARK INTRA:                  -2.579
REMARK CONF_INDEPENDENT:        2.088
REMARK UNBOUND:                -2.579
REMARK  7 active torsions:
REMARK  status: ('A' for Active; 'I' for Inactive)
REMARK    1  A    between atoms: C_2  and  C_3 
REMARK    2  A    between atoms: C_3  and  N_6 
REMARK    3  A    between atoms: C_10  and  C_11 
REMARK    4  A    between atoms: C_11  and  C_12 
REMARK    5  A    between atoms: C_11  and  N_26 
REMARK    6  A    between atoms: N_29  and  C_30 
REMARK    7  A    between atoms: C_33  and  O_34 
ROOT
ATOM      1  C   UNL d   1      29.326 -12.504   3.889  0.00  0.00     0.298 C 
ENDROOT
BRANCH   1   2
ATOM      2  C   UNL d   1      28.140 -11.670   3.439  0.00  0.00     0.173 A 
ATOM      3  N   UNL d   1      27.125 -12.193   2.771  0.00  0.00    -0.145 NA
ATOM      4  N   UNL d   1      26.291 -11.165   2.443  0.00  0.00     0.018 NA
ATOM      5  N   UNL d   1      26.756 -10.012   2.899  0.00  0.00    -0.002 NA
ATOM      6  N   UNL d   1      27.946 -10.288   3.482  0.00  0.00    -0.252 N 
BRANCH   6   7
ATOM      7  C   UNL d   1      28.781  -9.119   4.123  0.00  0.00     0.046 C 
ATOM      8  C   UNL d   1      27.798  -7.859   3.779  0.00  0.00     0.039 C 
ATOM      9  C   UNL d   1      30.227  -9.281   3.479  0.00  0.00     0.039 C 
BRANCH   7  10
ATOM     10  C   UNL d   1      28.779  -9.185   5.855  0.00  0.00     0.027 C 
ATOM     11  C   UNL d   1      29.796  -9.291   7.624  0.00  0.00     0.007 C 
ENDBRANCH   7  10
ENDBRANCH   6   7
ENDBRANCH   1   2
BRANCH   1  12
ATOM     12  C   UNL d   1      29.193 -13.002   5.321  0.00  0.00     0.049 C 
ATOM     13  C   UNL d   1      28.546 -12.315   6.291  0.00  0.00     0.028 C 
ATOM     14  C   UNL d   1      28.709 -12.701   7.707  0.00  0.00    -0.009 C 
ATOM     15  C   UNL d   1      28.160 -12.076   8.858  0.00  0.00     0.035 C 
ATOM     16  C   UNL d   1      29.480 -13.830   7.940  0.00  0.00     0.047 C 
ATOM     17  C   UNL d   1      28.248 -12.756  10.113  0.00  0.00     0.171 C 
ATOM     18  C   UNL d   1      28.461 -14.099  10.029  0.00  0.00     0.093 C 
ATOM     19  O   UNL d   1      29.124 -12.466  11.275  0.00  0.00    -0.341 OA
ATOM     20  C   UNL d   1      29.361 -14.529   9.096  0.00  0.00     0.066 C 
ATOM     21  O   UNL d   1      28.542 -14.737  11.224  0.00  0.00    -0.327 OA
ATOM     22  C   UNL d   1      29.513 -13.843  11.738  0.00  0.00     0.346 C 
ATOM     23  N   UNL d   1      30.238 -14.441   6.976  0.00  0.00    -0.322 N 
ATOM     24  C   UNL d   1      29.902 -14.286   5.688  0.00  0.00     0.254 C 
ATOM     25  H   UNL d   1      30.749 -15.290   7.198  0.00  0.00     0.169 HD
ATOM     26  O   UNL d   1      30.332 -15.126   4.908  0.00  0.00    -0.268 OA
ENDBRANCH   1  12
BRANCH   1  27
ATOM     27  N   UNL d   1      29.738 -13.705   2.998  0.00  0.00    -0.052 N 
ATOM     28  C   UNL d   1      28.029 -14.742   3.017  0.00  0.00     0.256 C 
ATOM     29  C   UNL d   1      27.420 -15.530   1.351  0.00  0.00     0.150 C 
ATOM     30  N   UNL d   1      27.966 -14.694  -0.326  0.00  0.00    -0.378 N 
ATOM     31  C   UNL d   1      29.713 -13.787  -0.401  0.00  0.00     0.150 C 
ATOM     32  C   UNL d   1      30.531 -13.079   1.259  0.00  0.00     0.256 C 
ATOM     33  H   UNL d   1      30.405 -14.385   3.390  0.00  0.00     0.281 HD
BRANCH  30  34
ATOM     34  C   UNL d   1      27.035 -14.620  -1.358  0.00  0.00     0.030 C 
ATOM     35  C   UNL d   1      26.738 -13.435  -2.048  0.00  0.00     0.032 C 
ATOM     36  C   UNL d   1      25.814 -13.284  -3.020  0.00  0.00     0.039 C 
ATOM     37  C   UNL d   1      25.306 -14.459  -3.469  0.00  0.00     0.065 C 
ATOM     38  C   UNL d   1      25.712 -15.699  -2.951  0.00  0.00     0.039 C 
ATOM     39  C   UNL d   1      26.526 -15.779  -1.835  0.00  0.00     0.032 C 
BRANCH  37  40
ATOM     40  O   UNL d   1      24.405 -14.390  -4.474  0.00  0.00    -0.361 OA
ATOM     41  H   UNL d   1      24.566 -13.532  -4.906  0.00  0.00     0.217 HD
ENDBRANCH  37  40
ENDBRANCH  30  34
ENDBRANCH   1  27
TORSDOF 7
ENDMDL
MODEL 9
REMARK VINA RESULT:    -8.336      3.827      9.102
REMARK INTER + INTRA:         -13.040
REMARK INTER:                 -10.424
REMARK INTRA:                  -2.617
REMARK CONF_INDEPENDENT:        2.088
REMARK UNBOUND:                -2.617
REMARK  7 active torsions:
REMARK  status: ('A' for Active; 'I' for Inactive)
REMARK    1  A    between atoms: C_2  and  C_3 
REMARK    2  A    between atoms: C_3  and  N_6 
REMARK    3  A    between atoms: C_10  and  C_11 
REMARK    4  A    between atoms: C_11  and  C_12 
REMARK    5  A    between atoms: C_11  and  N_26 
REMARK    6  A    between atoms: N_29  and  C_30 
REMARK    7  A    between atoms: C_33  and  O_34 
ROOT
ATOM      1  C   UNL d   1      29.205 -13.057   3.251  0.00  0.00     0.298 C 
ENDROOT
BRANCH   1   2
ATOM      2  C   UNL d   1      28.240 -12.156   2.500  0.00  0.00     0.173 A 
ATOM      3  N   UNL d   1      26.997 -11.960   2.909  0.00  0.00    -0.145 NA
ATOM      4  N   UNL d   1      26.384 -11.186   1.968  0.00  0.00     0.018 NA
ATOM      5  N   UNL d   1      27.218 -10.887   0.983  0.00  0.00    -0.002 NA
ATOM      6  N   UNL d   1      28.377 -11.529   1.260  0.00  0.00    -0.252 N 
BRANCH   6   7
ATOM      7  C   UNL d   1      29.590 -11.393   0.269  0.00  0.00     0.046 C 
ATOM      8  C   UNL d   1      29.471  -9.803  -0.094  0.00  0.00     0.039 C 
ATOM      9  C   UNL d   1      29.341 -12.540  -0.805  0.00  0.00     0.039 C 
BRANCH   7  10
ATOM     10  C   UNL d   1      31.117 -11.519   1.080  0.00  0.00     0.027 C 
ATOM     11  C   UNL d   1      32.197 -11.650   2.810  0.00  0.00     0.007 C 
ENDBRANCH   7  10
ENDBRANCH   6   7
ENDBRANCH   1   2
BRANCH   1  12
ATOM     12  C   UNL d   1      28.964 -13.063   4.753  0.00  0.00     0.049 C 
ATOM     13  C   UNL d   1      29.155 -11.980   5.542  0.00  0.00     0.028 C 
ATOM     14  C   UNL d   1      29.194 -12.131   7.011  0.00  0.00    -0.009 C 
ATOM     15  C   UNL d   1      29.433 -11.133   7.992  0.00  0.00     0.035 C 
ATOM     16  C   UNL d   1      28.944 -13.407   7.493  0.00  0.00     0.047 C 
ATOM     17  C   UNL d   1      29.188 -11.450   9.364  0.00  0.00     0.171 C 
ATOM     18  C   UNL d   1      28.359 -12.510   9.573  0.00  0.00     0.093 C 
ATOM     19  O   UNL d   1      30.160 -11.713  10.453  0.00  0.00    -0.341 OA
ATOM     20  C   UNL d   1      28.530 -13.601   8.770  0.00  0.00     0.066 C 
ATOM     21  O   UNL d   1      28.129 -12.803  10.878  0.00  0.00    -0.327 OA
ATOM     22  C   UNL d   1      29.506 -12.837  11.206  0.00  0.00     0.346 C 
ATOM     23  N   UNL d   1      28.885 -14.519   6.696  0.00  0.00    -0.322 N 
ATOM     24  C   UNL d   1      28.580 -14.375   5.398  0.00  0.00     0.254 C 
ATOM     25  H   UNL d   1      28.657 -15.421   7.103  0.00  0.00     0.169 HD
ATOM     26  O   UNL d   1      28.159 -15.371   4.824  0.00  0.00    -0.268 OA
ENDBRANCH   1  12
BRANCH   1  27
ATOM     27  N   UNL d   1      29.329 -14.529   2.776  0.00  0.00    -0.052 N 
ATOM     28  C   UNL d   1      27.469 -14.826   2.106  0.00  0.00     0.256 C 
ATOM     29  C   UNL d   1      27.243 -15.788   0.435  0.00  0.00     0.150 C 
ATOM     30  N   UNL d   1      28.691 -15.730  -0.873  0.00  0.00    -0.378 N 
ATOM     31  C   UNL d   1      30.543 -15.578  -0.221  0.00  0.00     0.150 C 
ATOM     32  C   UNL d   1      30.905 -14.764   1.549  0.00  0.00     0.256 C 
ATOM     33  H   UNL d   1      29.415 -15.258   3.498  0.00  0.00     0.281 HD
BRANCH  30  34
ATOM     34  C   UNL d   1      28.357 -15.628  -2.220  0.00  0.00     0.030 C 
ATOM     35  C   UNL d   1      27.185 -15.010  -2.681  0.00  0.00     0.032 C 
ATOM     36  C   UNL d   1      26.777 -14.922  -3.965  0.00  0.00     0.039 C 
ATOM     37  C   UNL d   1      27.725 -15.301  -4.859  0.00  0.00     0.065 C 
ATOM     38  C   UNL d   1      28.997 -15.744  -4.463  0.00  0.00     0.039 C 
ATOM     39  C   UNL d   1      29.291 -15.983  -3.132  0.00  0.00     0.032 C 
BRANCH  37  40
ATOM     40  O   UNL d   1      27.405 -15.200  -6.168  0.00  0.00    -0.361 OA
ATOM     41  H   UNL d   1      28.247 -15.026  -6.626  0.00  0.00     0.217 HD
ENDBRANCH  37  40
ENDBRANCH  30  34
ENDBRANCH   1  27
TORSDOF 7
ENDMDL
