MODEL 1
REMARK VINA RESULT:   -28.050      0.000      0.000
REMARK INTER + INTRA:         -34.044
REMARK INTER:                 -31.033
REMARK INTRA:                  -3.011
REMARK CONF_INDEPENDENT:        2.983
REMARK UNBOUND:                -3.011
REMARK  10 active torsions:
REMARK  status: ('A' for Active; 'I' for Inactive)
REMARK    1  A    between atoms: N_1  and  C_2 
REMARK    2  A    between atoms: C_6  and  N_7 
REMARK    3  A    between atoms: C_10  and  C_11 
REMARK    4  A    between atoms: C_11  and  N_12 
REMARK    5  A    between atoms: C_18  and  C_19 
REMARK       I    between atoms: C_19  and  N_21 
REMARK    6  A    between atoms: N_21  and  N_22 
REMARK    7  A    between atoms: C_23  and  C_24 
REMARK    8  A    between atoms: C_27  and  O_28 
REMARK    9  A    between atoms: O_28  and  C_29 
REMARK   10  A    between atoms: C_29  and  C_30 
ROOT
ATOM      1  N   UNL d   1      23.133 -18.332  -0.051  0.00  0.00    -0.208 N 
ATOM      2  N   UNL d   1      23.560 -18.943   1.082  0.00  0.00     0.012 NA
ATOM      3  N   UNL d   1      24.831 -18.574   1.341  0.00  0.00    -0.160 NA
ATOM      4  C   UNL d   1      25.197 -17.606   0.436  0.00  0.00     0.112 C 
ATOM      5  C   UNL d   1      24.065 -17.441  -0.410  0.00  0.00     0.153 C 
ENDROOT
BRANCH   5   6
ATOM      6  C   UNL d   1      23.869 -16.513  -1.454  0.00  0.00     0.292 C 
ATOM      7  O   UNL d   1      22.916 -15.925  -1.185  0.00  0.00    -0.264 OA
ATOM      8  N   UNL d   1      24.435 -16.150  -2.672  0.00  0.00    -0.242 N 
ATOM      9  H   UNL d   1      24.608 -16.876  -3.347  0.00  0.00     0.192 HD
BRANCH   8  10
ATOM     10  N   UNL d   1      24.251 -14.833  -3.169  0.00  0.00    -0.183 NA
ATOM     11  C   UNL d   1      25.187 -13.960  -2.918  0.00  0.00     0.150 C 
BRANCH  11  12
ATOM     12  C   UNL d   1      25.363 -12.639  -3.638  0.00  0.00    -0.017 C 
ATOM     13  C   UNL d   1      25.424 -12.627  -5.036  0.00  0.00     0.015 C 
ATOM     14  C   UNL d   1      25.915 -11.492  -5.714  0.00  0.00     0.037 C 
ATOM     15  C   UNL d   1      26.175 -10.300  -5.028  0.00  0.00     0.069 C 
ATOM     16  C   UNL d   1      25.974 -10.273  -3.653  0.00  0.00     0.037 C 
ATOM     17  C   UNL d   1      25.559 -11.427  -2.967  0.00  0.00     0.015 C 
BRANCH  15  18
ATOM     18  O   UNL d   1      26.601  -9.237  -5.776  0.00  0.00    -0.347 OA
BRANCH  18  19
ATOM     19  C   UNL d   1      25.649  -8.625  -6.669  0.00  0.00     0.214 C 
BRANCH  19  20
ATOM     20  C   UNL d   1      24.682  -7.824  -5.835  0.00  0.00    -0.034 C 
ATOM     21  C   UNL d   1      23.297  -7.898  -6.037  0.00  0.00     0.009 C 
ATOM     22  C   UNL d   1      22.460  -6.938  -5.467  0.00  0.00     0.001 C 
ATOM     23  C   UNL d   1      22.976  -5.998  -4.577  0.00  0.00     0.000 C 
ATOM     24  C   UNL d   1      24.338  -5.984  -4.293  0.00  0.00     0.001 C 
ATOM     25  C   UNL d   1      25.187  -6.897  -4.914  0.00  0.00     0.009 C 
ENDBRANCH  19  20
ENDBRANCH  18  19
ENDBRANCH  15  18
ENDBRANCH  11  12
ENDBRANCH   8  10
ENDBRANCH   5   6
BRANCH   4  26
ATOM     26  C   UNL d   1      26.632 -16.923   0.473  0.00  0.00     0.297 C 
BRANCH  26  27
ATOM     27  N   UNL d   1      26.854 -15.734  -0.513  0.00  0.00    -0.066 N 
ATOM     28  C   UNL d   1      27.618 -14.488   0.306  0.00  0.00     0.235 C 
ATOM     29  C   UNL d   1      28.457 -13.612  -0.706  0.00  0.00     0.028 C 
ATOM     30  C   UNL d   1      29.121 -14.275  -2.016  0.00  0.00     0.003 C 
ATOM     31  C   UNL d   1      28.276 -15.298  -2.757  0.00  0.00     0.028 C 
ATOM     32  C   UNL d   1      27.578 -16.394  -1.905  0.00  0.00     0.235 C 
ATOM     33  H   UNL d   1      25.980 -15.321  -0.849  0.00  0.00     0.280 HD
ENDBRANCH  26  27
ENDBRANCH   4  26
BRANCH   1  34
ATOM     34  C   UNL d   1      21.919 -18.404  -0.800  0.00  0.00     0.220 C 
ATOM     35  N   UNL d   1      22.023 -18.933  -2.029  0.00  0.00    -0.082 NA
ATOM     36  O   UNL d   1      20.731 -19.352  -2.345  0.00  0.00    -0.103 OA
ATOM     37  N   UNL d   1      19.905 -19.323  -1.231  0.00  0.00    -0.089 NA
ATOM     38  C   UNL d   1      20.612 -18.736  -0.258  0.00  0.00     0.180 C 
BRANCH  38  39
ATOM     39  N   UNL d   1      20.218 -18.812   1.058  0.00  0.00    -0.282 NA
ATOM     40  H   UNL d   1      20.981 -18.746   1.746  0.00  0.00     0.126 HD
ATOM     41  H   UNL d   1      19.472 -18.226   1.429  0.00  0.00     0.126 HD
ENDBRANCH  38  39
ENDBRANCH   1  34
TORSDOF 10
ENDMDL
MODEL 2
REMARK VINA RESULT:   -27.273      1.761      3.039
REMARK INTER + INTRA:         -33.450
REMARK INTER:                 -30.256
REMARK INTRA:                  -3.194
REMARK CONF_INDEPENDENT:        2.983
REMARK UNBOUND:                -3.194
REMARK  10 active torsions:
REMARK  status: ('A' for Active; 'I' for Inactive)
REMARK    1  A    between atoms: N_1  and  C_2 
REMARK    2  A    between atoms: C_6  and  N_7 
REMARK    3  A    between atoms: C_10  and  C_11 
REMARK    4  A    between atoms: C_11  and  N_12 
REMARK    5  A    between atoms: C_18  and  C_19 
REMARK       I    between atoms: C_19  and  N_21 
REMARK    6  A    between atoms: N_21  and  N_22 
REMARK    7  A    between atoms: C_23  and  C_24 
REMARK    8  A    between atoms: C_27  and  O_28 
REMARK    9  A    between atoms: O_28  and  C_29 
REMARK   10  A    between atoms: C_29  and  C_30 
ROOT
ATOM      1  N   UNL d   1      23.139 -18.327  -0.050  0.00  0.00    -0.208 N 
ATOM      2  N   UNL d   1      23.578 -18.944   1.076  0.00  0.00     0.012 NA
ATOM      3  N   UNL d   1      24.851 -18.575   1.323  0.00  0.00    -0.160 NA
ATOM      4  C   UNL d   1      25.208 -17.603   0.419  0.00  0.00     0.112 C 
ATOM      5  C   UNL d   1      24.066 -17.434  -0.414  0.00  0.00     0.153 C 
ENDROOT
BRANCH   5   6
ATOM      6  C   UNL d   1      23.858 -16.501  -1.451  0.00  0.00     0.292 C 
ATOM      7  O   UNL d   1      22.907 -15.917  -1.171  0.00  0.00    -0.264 OA
ATOM      8  N   UNL d   1      24.414 -16.129  -2.671  0.00  0.00    -0.242 N 
ATOM      9  H   UNL d   1      24.583 -16.851  -3.352  0.00  0.00     0.192 HD
BRANCH   8  10
ATOM     10  N   UNL d   1      24.222 -14.810  -3.159  0.00  0.00    -0.183 NA
ATOM     11  C   UNL d   1      25.216 -13.975  -3.043  0.00  0.00     0.150 C 
BRANCH  11  12
ATOM     12  C   UNL d   1      25.353 -12.670  -3.798  0.00  0.00    -0.017 C 
ATOM     13  C   UNL d   1      25.423 -12.694  -5.196  0.00  0.00     0.015 C 
ATOM     14  C   UNL d   1      25.880 -11.561  -5.902  0.00  0.00     0.037 C 
ATOM     15  C   UNL d   1      26.095 -10.343  -5.248  0.00  0.00     0.069 C 
ATOM     16  C   UNL d   1      25.884 -10.285  -3.876  0.00  0.00     0.037 C 
ATOM     17  C   UNL d   1      25.504 -11.434  -3.160  0.00  0.00     0.015 C 
BRANCH  15  18
ATOM     18  O   UNL d   1      26.489  -9.288  -6.023  0.00  0.00    -0.347 OA
BRANCH  18  19
ATOM     19  C   UNL d   1      27.902  -9.021  -6.119  0.00  0.00     0.214 C 
BRANCH  19  20
ATOM     20  C   UNL d   1      28.536 -10.157  -6.882  0.00  0.00    -0.034 C 
ATOM     21  C   UNL d   1      28.403 -10.275  -8.273  0.00  0.00     0.009 C 
ATOM     22  C   UNL d   1      28.736 -11.475  -8.902  0.00  0.00     0.001 C 
ATOM     23  C   UNL d   1      29.341 -12.501  -8.179  0.00  0.00     0.000 C 
ATOM     24  C   UNL d   1      29.569 -12.349  -6.814  0.00  0.00     0.001 C 
ATOM     25  C   UNL d   1      29.174 -11.180  -6.170  0.00  0.00     0.009 C 
ENDBRANCH  19  20
ENDBRANCH  18  19
ENDBRANCH  15  18
ENDBRANCH  11  12
ENDBRANCH   8  10
ENDBRANCH   5   6
BRANCH   4  26
ATOM     26  C   UNL d   1      26.643 -16.919   0.444  0.00  0.00     0.297 C 
BRANCH  26  27
ATOM     27  N   UNL d   1      26.846 -15.709  -0.521  0.00  0.00    -0.066 N 
ATOM     28  C   UNL d   1      27.559 -14.454   0.329  0.00  0.00     0.235 C 
ATOM     29  C   UNL d   1      28.388 -13.539  -0.655  0.00  0.00     0.028 C 
ATOM     30  C   UNL d   1      29.094 -14.163  -1.963  0.00  0.00     0.003 C 
ATOM     31  C   UNL d   1      28.292 -15.199  -2.733  0.00  0.00     0.028 C 
ATOM     32  C   UNL d   1      27.612 -16.327  -1.909  0.00  0.00     0.235 C 
ATOM     33  H   UNL d   1      25.965 -15.317  -0.866  0.00  0.00     0.280 HD
ENDBRANCH  26  27
ENDBRANCH   4  26
BRANCH   1  34
ATOM     34  C   UNL d   1      21.917 -18.395  -0.785  0.00  0.00     0.220 C 
ATOM     35  N   UNL d   1      22.010 -18.902  -2.025  0.00  0.00    -0.082 NA
ATOM     36  O   UNL d   1      20.719 -19.326  -2.333  0.00  0.00    -0.103 OA
ATOM     37  N   UNL d   1      19.905 -19.323  -1.210  0.00  0.00    -0.089 NA
ATOM     38  C   UNL d   1      20.618 -18.747  -0.235  0.00  0.00     0.180 C 
BRANCH  38  39
ATOM     39  N   UNL d   1      20.240 -18.849   1.084  0.00  0.00    -0.282 NA
ATOM     40  H   UNL d   1      20.993 -18.686   1.767  0.00  0.00     0.126 HD
ATOM     41  H   UNL d   1      19.432 -18.348   1.450  0.00  0.00     0.126 HD
ENDBRANCH  38  39
ENDBRANCH   1  34
TORSDOF 10
ENDMDL
MODEL 3
REMARK VINA RESULT:   -26.465      1.394      2.117
REMARK INTER + INTRA:         -31.628
REMARK INTER:                 -29.448
REMARK INTRA:                  -2.180
REMARK CONF_INDEPENDENT:        2.983
REMARK UNBOUND:                -2.180
REMARK  10 active torsions:
REMARK  status: ('A' for Active; 'I' for Inactive)
REMARK    1  A    between atoms: N_1  and  C_2 
REMARK    2  A    between atoms: C_6  and  N_7 
REMARK    3  A    between atoms: C_10  and  C_11 
REMARK    4  A    between atoms: C_11  and  N_12 
REMARK    5  A    between atoms: C_18  and  C_19 
REMARK       I    between atoms: C_19  and  N_21 
REMARK    6  A    between atoms: N_21  and  N_22 
REMARK    7  A    between atoms: C_23  and  C_24 
REMARK    8  A    between atoms: C_27  and  O_28 
REMARK    9  A    between atoms: O_28  and  C_29 
REMARK   10  A    between atoms: C_29  and  C_30 
ROOT
ATOM      1  N   UNL d   1      23.135 -18.327  -0.043  0.00  0.00    -0.208 N 
ATOM      2  N   UNL d   1      23.569 -18.942   1.086  0.00  0.00     0.012 NA
ATOM      3  N   UNL d   1      24.842 -18.575   1.335  0.00  0.00    -0.160 NA
ATOM      4  C   UNL d   1      25.203 -17.606   0.430  0.00  0.00     0.112 C 
ATOM      5  C   UNL d   1      24.065 -17.437  -0.407  0.00  0.00     0.153 C 
ENDROOT
BRANCH   5   6
ATOM      6  C   UNL d   1      23.862 -16.506  -1.448  0.00  0.00     0.292 C 
ATOM      7  O   UNL d   1      22.931 -15.896  -1.155  0.00  0.00    -0.264 OA
ATOM      8  N   UNL d   1      24.404 -16.158  -2.681  0.00  0.00    -0.242 N 
ATOM      9  H   UNL d   1      24.542 -16.889  -3.359  0.00  0.00     0.192 HD
BRANCH   8  10
ATOM     10  N   UNL d   1      24.237 -14.838  -3.175  0.00  0.00    -0.183 NA
ATOM     11  C   UNL d   1      25.152 -13.961  -2.870  0.00  0.00     0.150 C 
BRANCH  11  12
ATOM     12  C   UNL d   1      25.356 -12.634  -3.569  0.00  0.00    -0.017 C 
ATOM     13  C   UNL d   1      25.286 -12.580  -4.966  0.00  0.00     0.015 C 
ATOM     14  C   UNL d   1      25.792 -11.460  -5.658  0.00  0.00     0.037 C 
ATOM     15  C   UNL d   1      26.202 -10.312  -4.971  0.00  0.00     0.069 C 
ATOM     16  C   UNL d   1      26.135 -10.317  -3.583  0.00  0.00     0.037 C 
ATOM     17  C   UNL d   1      25.703 -11.461  -2.890  0.00  0.00     0.015 C 
BRANCH  15  18
ATOM     18  O   UNL d   1      26.632  -9.259  -5.728  0.00  0.00    -0.347 OA
BRANCH  18  19
ATOM     19  C   UNL d   1      25.640  -8.325  -6.198  0.00  0.00     0.214 C 
BRANCH  19  20
ATOM     20  C   UNL d   1      26.183  -7.658  -7.436  0.00  0.00    -0.034 C 
ATOM     21  C   UNL d   1      25.351  -7.305  -8.508  0.00  0.00     0.009 C 
ATOM     22  C   UNL d   1      25.913  -6.971  -9.741  0.00  0.00     0.001 C 
ATOM     23  C   UNL d   1      27.295  -6.841  -9.870  0.00  0.00     0.000 C 
ATOM     24  C   UNL d   1      28.121  -7.092  -8.778  0.00  0.00     0.001 C 
ATOM     25  C   UNL d   1      27.567  -7.493  -7.565  0.00  0.00     0.009 C 
ENDBRANCH  19  20
ENDBRANCH  18  19
ENDBRANCH  15  18
ENDBRANCH  11  12
ENDBRANCH   8  10
ENDBRANCH   5   6
BRANCH   4  26
ATOM     26  C   UNL d   1      26.640 -16.924   0.457  0.00  0.00     0.297 C 
BRANCH  26  27
ATOM     27  N   UNL d   1      27.365 -16.791  -0.918  0.00  0.00    -0.066 N 
ATOM     28  C   UNL d   1      27.444 -15.170  -1.333  0.00  0.00     0.235 C 
ATOM     29  C   UNL d   1      28.691 -14.913  -2.269  0.00  0.00     0.028 C 
ATOM     30  C   UNL d   1      30.029 -15.799  -2.121  0.00  0.00     0.003 C 
ATOM     31  C   UNL d   1      29.830 -17.287  -1.880  0.00  0.00     0.028 C 
ATOM     32  C   UNL d   1      28.799 -17.698  -0.793  0.00  0.00     0.235 C 
ATOM     33  H   UNL d   1      26.851 -17.228  -1.688  0.00  0.00     0.280 HD
ENDBRANCH  26  27
ENDBRANCH   4  26
BRANCH   1  34
ATOM     34  C   UNL d   1      21.915 -18.396  -0.783  0.00  0.00     0.220 C 
ATOM     35  N   UNL d   1      22.012 -18.901  -2.022  0.00  0.00    -0.082 NA
ATOM     36  O   UNL d   1      20.722 -19.325  -2.336  0.00  0.00    -0.103 OA
ATOM     37  N   UNL d   1      19.905 -19.325  -1.214  0.00  0.00    -0.089 NA
ATOM     38  C   UNL d   1      20.615 -18.750  -0.236  0.00  0.00     0.180 C 
BRANCH  38  39
ATOM     39  N   UNL d   1      20.233 -18.854   1.081  0.00  0.00    -0.282 NA
ATOM     40  H   UNL d   1      19.959 -19.799   1.382  0.00  0.00     0.126 HD
ATOM     41  H   UNL d   1      20.810 -18.488   1.837  0.00  0.00     0.126 HD
ENDBRANCH  38  39
ENDBRANCH   1  34
TORSDOF 10
ENDMDL
