MODEL 1
REMARK VINA RESULT:    -9.203      0.000      0.000
REMARK INTER + INTRA:         -12.891
REMARK INTER:                 -11.589
REMARK INTRA:                  -1.301
REMARK CONF_INDEPENDENT:        2.386
REMARK UNBOUND:                -1.301
REMARK  8 active torsions:
REMARK  status: ('A' for Active; 'I' for Inactive)
REMARK       I    between atoms: C_2  and  N_3 
REMARK    1  A    between atoms: C_2  and  C_22 
REMARK    2  A    between atoms: N_3  and  C_4 
REMARK    3  A    between atoms: C_4  and  N_6 
REMARK    4  A    between atoms: N_6  and  C_7 
REMARK    5  A    between atoms: C_12  and  C_13 
REMARK       I    between atoms: C_13  and  N_15 
REMARK    6  A    between atoms: N_15  and  C_16 
REMARK    7  A    between atoms: C_24  and  N_25 
REMARK    8  A    between atoms: C_29  and  N_30 
ROOT
ATOM      1  C   UNL d   1      25.952 -14.385  -2.244  0.00  0.00     0.179 C 
ATOM      2  S   UNL d   1      26.098 -14.790  -3.881  0.00  0.00    -0.040 SA
ENDROOT
BRANCH   1   3
ATOM      3  N   UNL d   1      26.627 -13.316  -1.554  0.00  0.00    -0.299 N 
ATOM      4  C   UNL d   1      26.655 -13.183  -0.158  0.00  0.00     0.258 C 
ATOM      5  O   UNL d   1      26.237 -14.077   0.578  0.00  0.00    -0.267 OA
ATOM      6  H   UNL d   1      27.001 -12.560  -2.106  0.00  0.00     0.171 HD
BRANCH   4   7
ATOM      7  C   UNL d   1      27.135 -11.962   0.599  0.00  0.00     0.037 C 
ATOM      8  C   UNL d   1      26.536 -11.176   1.590  0.00  0.00     0.053 C 
ATOM      9  C   UNL d   1      27.095  -9.890   1.848  0.00  0.00     0.106 C 
ATOM     10  C   UNL d   1      28.311  -9.471   1.270  0.00  0.00     0.072 C 
ATOM     11  C   UNL d   1      28.978 -10.352   0.434  0.00  0.00     0.106 C 
ATOM     12  C   UNL d   1      28.417 -11.587   0.155  0.00  0.00     0.053 C 
BRANCH   9  13
ATOM     13  N   UNL d   1      26.288  -8.872   2.547  0.00  0.00    -0.116 N 
ATOM     14  O   UNL d   1      26.764  -8.375   3.575  0.00  0.00    -0.532 OA
ATOM     15  O   UNL d   1      25.155  -8.636   2.104  0.00  0.00    -0.532 OA
ENDBRANCH   9  13
BRANCH  11  16
ATOM     16  N   UNL d   1      30.167  -9.956  -0.328  0.00  0.00    -0.116 N 
ATOM     17  O   UNL d   1      30.717  -8.897  -0.012  0.00  0.00    -0.532 OA
ATOM     18  O   UNL d   1      30.518 -10.685  -1.267  0.00  0.00    -0.532 OA
ENDBRANCH  11  16
ENDBRANCH   4   7
ENDBRANCH   1   3
BRANCH   1  19
ATOM     19  N   UNL d   1      25.203 -15.186  -1.344  0.00  0.00    -0.332 N 
ATOM     20  H   UNL d   1      24.197 -15.169  -1.465  0.00  0.00     0.168 HD
BRANCH  19  21
ATOM     21  C   UNL d   1      25.721 -16.398  -0.757  0.00  0.00     0.050 A 
ATOM     22  C   UNL d   1      27.117 -16.623  -0.758  0.00  0.00     0.030 A 
ATOM     23  C   UNL d   1      27.667 -17.818  -0.257  0.00  0.00     0.002 A 
ATOM     24  C   UNL d   1      26.844 -18.786   0.300  0.00  0.00     0.001 A 
ATOM     25  C   UNL d   1      25.469 -18.575   0.315  0.00  0.00     0.019 A 
ATOM     26  C   UNL d   1      24.883 -17.401  -0.220  0.00  0.00     0.058 A 
BRANCH  26  27
ATOM     27  C   UNL d   1      23.386 -17.357  -0.150  0.00  0.00     0.254 C 
ATOM     28  O   UNL d   1      22.833 -16.300  -0.503  0.00  0.00    -0.268 OA
ATOM     29  N   UNL d   1      22.684 -18.452   0.297  0.00  0.00    -0.352 N 
ATOM     30  H   UNL d   1      23.235 -19.185   0.720  0.00  0.00     0.163 HD
BRANCH  29  31
ATOM     31  C   UNL d   1      21.239 -18.693   0.141  0.00  0.00     0.084 C 
ATOM     32  C   UNL d   1      20.848 -19.466  -1.095  0.00  0.00     0.025 C 
ATOM     33  C   UNL d   1      19.337 -19.647  -1.141  0.00  0.00     0.002 C 
ATOM     34  C   UNL d   1      18.777 -20.440   0.035  0.00  0.00     0.000 C 
ATOM     35  C   UNL d   1      19.165 -19.761   1.324  0.00  0.00     0.002 C 
ATOM     36  C   UNL d   1      20.655 -19.481   1.301  0.00  0.00     0.025 C 
ENDBRANCH  29  31
ENDBRANCH  26  27
ENDBRANCH  19  21
ENDBRANCH   1  19
TORSDOF 8
ENDMDL
MODEL 2
REMARK VINA RESULT:    -8.965      3.516      5.347
REMARK INTER + INTRA:         -12.609
REMARK INTER:                 -11.351
REMARK INTRA:                  -1.257
REMARK CONF_INDEPENDENT:        2.386
REMARK UNBOUND:                -1.257
REMARK  8 active torsions:
REMARK  status: ('A' for Active; 'I' for Inactive)
REMARK       I    between atoms: C_2  and  N_3 
REMARK    1  A    between atoms: C_2  and  C_22 
REMARK    2  A    between atoms: N_3  and  C_4 
REMARK    3  A    between atoms: C_4  and  N_6 
REMARK    4  A    between atoms: N_6  and  C_7 
REMARK    5  A    between atoms: C_12  and  C_13 
REMARK       I    between atoms: C_13  and  N_15 
REMARK    6  A    between atoms: N_15  and  C_16 
REMARK    7  A    between atoms: C_24  and  N_25 
REMARK    8  A    between atoms: C_29  and  N_30 
ROOT
ATOM      1  C   UNL d   1      25.617 -10.492  -4.969  0.00  0.00     0.179 C 
ATOM      2  S   UNL d   1      25.865 -10.229  -6.623  0.00  0.00    -0.040 SA
ENDROOT
BRANCH   1   3
ATOM      3  N   UNL d   1      25.536  -9.492  -3.936  0.00  0.00    -0.299 N 
ATOM      4  C   UNL d   1      26.421  -9.416  -2.850  0.00  0.00     0.258 C 
ATOM      5  O   UNL d   1      27.435 -10.111  -2.803  0.00  0.00    -0.267 OA
ATOM      6  H   UNL d   1      24.731  -8.883  -3.931  0.00  0.00     0.171 HD
BRANCH   4   7
ATOM      7  C   UNL d   1      26.235  -8.547  -1.624  0.00  0.00     0.037 C 
ATOM      8  C   UNL d   1      26.466  -8.780  -0.263  0.00  0.00     0.053 C 
ATOM      9  C   UNL d   1      25.859  -7.897   0.676  0.00  0.00     0.106 C 
ATOM     10  C   UNL d   1      25.194  -6.719   0.278  0.00  0.00     0.072 C 
ATOM     11  C   UNL d   1      25.145  -6.419  -1.074  0.00  0.00     0.106 C 
ATOM     12  C   UNL d   1      25.703  -7.296  -1.989  0.00  0.00     0.053 C 
BRANCH   9  13
ATOM     13  N   UNL d   1      25.710  -8.319   2.082  0.00  0.00    -0.116 N 
ATOM     14  O   UNL d   1      26.341  -7.686   2.937  0.00  0.00    -0.532 OA
ATOM     15  O   UNL d   1      25.024  -9.326   2.308  0.00  0.00    -0.532 OA
ENDBRANCH   9  13
BRANCH  11  16
ATOM     16  N   UNL d   1      24.352  -5.301  -1.598  0.00  0.00    -0.116 N 
ATOM     17  O   UNL d   1      24.763  -4.745  -2.621  0.00  0.00    -0.532 OA
ATOM     18  O   UNL d   1      23.348  -4.958  -0.959  0.00  0.00    -0.532 OA
ENDBRANCH  11  16
ENDBRANCH   4   7
ENDBRANCH   1   3
BRANCH   1  19
ATOM     19  N   UNL d   1      25.589 -11.800  -4.421  0.00  0.00    -0.332 N 
ATOM     20  H   UNL d   1      24.677 -12.150  -4.151  0.00  0.00     0.168 HD
BRANCH  19  21
ATOM     21  C   UNL d   1      26.547 -12.820  -4.777  0.00  0.00     0.050 A 
ATOM     22  C   UNL d   1      27.501 -12.548  -5.784  0.00  0.00     0.030 A 
ATOM     23  C   UNL d   1      28.412 -13.531  -6.214  0.00  0.00     0.002 A 
ATOM     24  C   UNL d   1      28.425 -14.783  -5.615  0.00  0.00     0.001 A 
ATOM     25  C   UNL d   1      27.496 -15.061  -4.617  0.00  0.00     0.019 A 
ATOM     26  C   UNL d   1      26.539 -14.106  -4.193  0.00  0.00     0.058 A 
BRANCH  26  27
ATOM     27  C   UNL d   1      25.596 -14.590  -3.133  0.00  0.00     0.254 C 
ATOM     28  O   UNL d   1      24.412 -14.216  -3.214  0.00  0.00    -0.268 OA
ATOM     29  N   UNL d   1      26.052 -15.404  -2.122  0.00  0.00    -0.352 N 
ATOM     30  H   UNL d   1      27.055 -15.500  -2.054  0.00  0.00     0.163 HD
BRANCH  29  31
ATOM     31  C   UNL d   1      25.228 -16.206  -1.200  0.00  0.00     0.084 C 
ATOM     32  C   UNL d   1      24.047 -16.899  -1.834  0.00  0.00     0.025 C 
ATOM     33  C   UNL d   1      23.280 -17.689  -0.782  0.00  0.00     0.002 C 
ATOM     34  C   UNL d   1      24.101 -18.792  -0.123  0.00  0.00     0.000 C 
ATOM     35  C   UNL d   1      25.337 -18.192   0.498  0.00  0.00     0.002 C 
ATOM     36  C   UNL d   1      26.024 -17.313  -0.529  0.00  0.00     0.025 C 
ENDBRANCH  29  31
ENDBRANCH  26  27
ENDBRANCH  19  21
ENDBRANCH   1  19
TORSDOF 8
ENDMDL
MODEL 3
REMARK VINA RESULT:    -8.342      3.228      5.546
REMARK INTER + INTRA:         -13.133
REMARK INTER:                 -10.728
REMARK INTRA:                  -2.405
REMARK CONF_INDEPENDENT:        2.386
REMARK UNBOUND:                -2.405
REMARK  8 active torsions:
REMARK  status: ('A' for Active; 'I' for Inactive)
REMARK       I    between atoms: C_2  and  N_3 
REMARK    1  A    between atoms: C_2  and  C_22 
REMARK    2  A    between atoms: N_3  and  C_4 
REMARK    3  A    between atoms: C_4  and  N_6 
REMARK    4  A    between atoms: N_6  and  C_7 
REMARK    5  A    between atoms: C_12  and  C_13 
REMARK       I    between atoms: C_13  and  N_15 
REMARK    6  A    between atoms: N_15  and  C_16 
REMARK    7  A    between atoms: C_24  and  N_25 
REMARK    8  A    between atoms: C_29  and  N_30 
ROOT
ATOM      1  C   UNL d   1      26.112 -10.119  -3.974  0.00  0.00     0.179 C 
ATOM      2  S   UNL d   1      26.314  -8.850  -5.076  0.00  0.00    -0.040 SA
ENDROOT
BRANCH   1   3
ATOM      3  N   UNL d   1      26.357 -10.080  -2.556  0.00  0.00    -0.299 N 
ATOM      4  C   UNL d   1      27.245 -10.941  -1.893  0.00  0.00     0.258 C 
ATOM      5  O   UNL d   1      28.001 -11.683  -2.518  0.00  0.00    -0.267 OA
ATOM      6  H   UNL d   1      25.775  -9.480  -1.992  0.00  0.00     0.171 HD
BRANCH   4   7
ATOM      7  C   UNL d   1      27.355 -11.104  -0.391  0.00  0.00     0.037 C 
ATOM      8  C   UNL d   1      27.681 -12.202   0.414  0.00  0.00     0.053 C 
ATOM      9  C   UNL d   1      27.352 -12.133   1.799  0.00  0.00     0.106 C 
ATOM     10  C   UNL d   1      26.880 -10.948   2.400  0.00  0.00     0.072 C 
ATOM     11  C   UNL d   1      26.745  -9.819   1.608  0.00  0.00     0.106 C 
ATOM     12  C   UNL d   1      27.030  -9.896   0.255  0.00  0.00     0.053 C 
BRANCH   9  13
ATOM     13  N   UNL d   1      27.276 -13.375   2.592  0.00  0.00    -0.116 N 
ATOM     14  O   UNL d   1      27.170 -13.261   3.820  0.00  0.00    -0.532 OA
ATOM     15  O   UNL d   1      27.401 -14.449   1.988  0.00  0.00    -0.532 OA
ENDBRANCH   9  13
BRANCH  11  16
ATOM     16  N   UNL d   1      26.124  -8.586   2.104  0.00  0.00    -0.116 N 
ATOM     17  O   UNL d   1      25.327  -8.012   1.357  0.00  0.00    -0.532 OA
ATOM     18  O   UNL d   1      26.472  -8.175   3.219  0.00  0.00    -0.532 OA
ENDBRANCH  11  16
ENDBRANCH   4   7
ENDBRANCH   1   3
BRANCH   1  19
ATOM     19  N   UNL d   1      25.781 -11.430  -4.403  0.00  0.00    -0.332 N 
ATOM     20  H   UNL d   1      24.804 -11.595  -4.614  0.00  0.00     0.168 HD
BRANCH  19  21
ATOM     21  C   UNL d   1      26.706 -12.277  -5.117  0.00  0.00     0.050 A 
ATOM     22  C   UNL d   1      27.516 -11.715  -6.129  0.00  0.00     0.030 A 
ATOM     23  C   UNL d   1      28.386 -12.511  -6.899  0.00  0.00     0.002 A 
ATOM     24  C   UNL d   1      28.502 -13.870  -6.640  0.00  0.00     0.001 A 
ATOM     25  C   UNL d   1      27.716 -14.435  -5.641  0.00  0.00     0.019 A 
ATOM     26  C   UNL d   1      26.801 -13.667  -4.879  0.00  0.00     0.058 A 
BRANCH  26  27
ATOM     27  C   UNL d   1      26.013 -14.446  -3.870  0.00  0.00     0.254 C 
ATOM     28  O   UNL d   1      25.155 -15.233  -4.307  0.00  0.00    -0.268 OA
ATOM     29  N   UNL d   1      26.246 -14.270  -2.526  0.00  0.00    -0.352 N 
ATOM     30  H   UNL d   1      26.835 -13.486  -2.281  0.00  0.00     0.163 HD
BRANCH  29  31
ATOM     31  C   UNL d   1      25.801 -15.152  -1.433  0.00  0.00     0.084 C 
ATOM     32  C   UNL d   1      24.551 -15.947  -1.721  0.00  0.00     0.025 C 
ATOM     33  C   UNL d   1      24.196 -16.813  -0.520  0.00  0.00     0.002 C 
ATOM     34  C   UNL d   1      25.266 -17.840  -0.164  0.00  0.00     0.000 C 
ATOM     35  C   UNL d   1      26.572 -17.131   0.093  0.00  0.00     0.002 C 
ATOM     36  C   UNL d   1      26.850 -16.185  -1.058  0.00  0.00     0.025 C 
ENDBRANCH  29  31
ENDBRANCH  26  27
ENDBRANCH  19  21
ENDBRANCH   1  19
TORSDOF 8
ENDMDL
MODEL 4
REMARK VINA RESULT:    -8.200      2.836      4.913
REMARK INTER + INTRA:         -13.060
REMARK INTER:                 -10.586
REMARK INTRA:                  -2.474
REMARK CONF_INDEPENDENT:        2.386
REMARK UNBOUND:                -2.474
REMARK  8 active torsions:
REMARK  status: ('A' for Active; 'I' for Inactive)
REMARK       I    between atoms: C_2  and  N_3 
REMARK    1  A    between atoms: C_2  and  C_22 
REMARK    2  A    between atoms: N_3  and  C_4 
REMARK    3  A    between atoms: C_4  and  N_6 
REMARK    4  A    between atoms: N_6  and  C_7 
REMARK    5  A    between atoms: C_12  and  C_13 
REMARK       I    between atoms: C_13  and  N_15 
REMARK    6  A    between atoms: N_15  and  C_16 
REMARK    7  A    between atoms: C_24  and  N_25 
REMARK    8  A    between atoms: C_29  and  N_30 
ROOT
ATOM      1  C   UNL d   1      27.389 -11.970  -2.329  0.00  0.00     0.179 C 
ATOM      2  S   UNL d   1      26.206 -11.444  -3.419  0.00  0.00    -0.040 SA
ENDROOT
BRANCH   1   3
ATOM      3  N   UNL d   1      27.626 -11.468  -1.000  0.00  0.00    -0.299 N 
ATOM      4  C   UNL d   1      27.755 -12.285   0.133  0.00  0.00     0.258 C 
ATOM      5  O   UNL d   1      27.838 -13.509   0.031  0.00  0.00    -0.267 OA
ATOM      6  H   UNL d   1      27.582 -10.470  -0.858  0.00  0.00     0.171 HD
BRANCH   4   7
ATOM      7  C   UNL d   1      27.760 -11.803   1.568  0.00  0.00     0.037 C 
ATOM      8  C   UNL d   1      28.058 -12.448   2.775  0.00  0.00     0.053 C 
ATOM      9  C   UNL d   1      27.627 -11.829   3.984  0.00  0.00     0.106 C 
ATOM     10  C   UNL d   1      27.077 -10.531   4.009  0.00  0.00     0.072 C 
ATOM     11  C   UNL d   1      26.967  -9.843   2.811  0.00  0.00     0.106 C 
ATOM     12  C   UNL d   1      27.352 -10.457   1.632  0.00  0.00     0.053 C 
BRANCH   9  13
ATOM     13  N   UNL d   1      27.530 -12.632   5.219  0.00  0.00    -0.116 N 
ATOM     14  O   UNL d   1      27.135 -13.799   5.110  0.00  0.00    -0.532 OA
ATOM     15  O   UNL d   1      27.777 -12.064   6.292  0.00  0.00    -0.532 OA
ENDBRANCH   9  13
BRANCH  11  16
ATOM     16  N   UNL d   1      26.275  -8.553   2.712  0.00  0.00    -0.116 N 
ATOM     17  O   UNL d   1      26.655  -7.647   3.460  0.00  0.00    -0.532 OA
ATOM     18  O   UNL d   1      25.328  -8.467   1.920  0.00  0.00    -0.532 OA
ENDBRANCH  11  16
ENDBRANCH   4   7
ENDBRANCH   1   3
BRANCH   1  19
ATOM     19  N   UNL d   1      28.376 -12.919  -2.703  0.00  0.00    -0.332 N 
ATOM     20  H   UNL d   1      28.802 -13.439  -1.946  0.00  0.00     0.168 HD
BRANCH  19  21
ATOM     21  C   UNL d   1      28.363 -13.602  -3.975  0.00  0.00     0.050 A 
ATOM     22  C   UNL d   1      29.347 -13.283  -4.939  0.00  0.00     0.030 A 
ATOM     23  C   UNL d   1      29.338 -13.873  -6.217  0.00  0.00     0.002 A 
ATOM     24  C   UNL d   1      28.383 -14.826  -6.541  0.00  0.00     0.001 A 
ATOM     25  C   UNL d   1      27.414 -15.155  -5.599  0.00  0.00     0.019 A 
ATOM     26  C   UNL d   1      27.371 -14.548  -4.319  0.00  0.00     0.058 A 
BRANCH  26  27
ATOM     27  C   UNL d   1      26.239 -14.997  -3.447  0.00  0.00     0.254 C 
ATOM     28  O   UNL d   1      25.155 -15.242  -4.006  0.00  0.00    -0.268 OA
ATOM     29  N   UNL d   1      26.419 -15.116  -2.087  0.00  0.00    -0.352 N 
ATOM     30  H   UNL d   1      27.277 -14.726  -1.723  0.00  0.00     0.163 HD
BRANCH  29  31
ATOM     31  C   UNL d   1      25.538 -15.823  -1.142  0.00  0.00     0.084 C 
ATOM     32  C   UNL d   1      24.140 -16.087  -1.645  0.00  0.00     0.025 C 
ATOM     33  C   UNL d   1      23.332 -16.818  -0.581  0.00  0.00     0.002 C 
ATOM     34  C   UNL d   1      23.901 -18.182  -0.207  0.00  0.00     0.000 C 
ATOM     35  C   UNL d   1      25.325 -18.018   0.264  0.00  0.00     0.002 C 
ATOM     36  C   UNL d   1      26.083 -17.186  -0.752  0.00  0.00     0.025 C 
ENDBRANCH  29  31
ENDBRANCH  26  27
ENDBRANCH  19  21
ENDBRANCH   1  19
TORSDOF 8
ENDMDL
MODEL 5
REMARK VINA RESULT:    -8.198      2.999      5.967
REMARK INTER + INTRA:         -12.850
REMARK INTER:                 -10.585
REMARK INTRA:                  -2.266
REMARK CONF_INDEPENDENT:        2.386
REMARK UNBOUND:                -2.266
REMARK  8 active torsions:
REMARK  status: ('A' for Active; 'I' for Inactive)
REMARK       I    between atoms: C_2  and  N_3 
REMARK    1  A    between atoms: C_2  and  C_22 
REMARK    2  A    between atoms: N_3  and  C_4 
REMARK    3  A    between atoms: C_4  and  N_6 
REMARK    4  A    between atoms: N_6  and  C_7 
REMARK    5  A    between atoms: C_12  and  C_13 
REMARK       I    between atoms: C_13  and  N_15 
REMARK    6  A    between atoms: N_15  and  C_16 
REMARK    7  A    between atoms: C_24  and  N_25 
REMARK    8  A    between atoms: C_29  and  N_30 
ROOT
ATOM      1  C   UNL d   1      28.182 -14.569  -1.213  0.00  0.00     0.179 C 
ATOM      2  S   UNL d   1      28.717 -13.804  -2.625  0.00  0.00    -0.040 SA
ENDROOT
BRANCH   1   3
ATOM      3  N   UNL d   1      28.176 -14.021   0.119  0.00  0.00    -0.299 N 
ATOM      4  C   UNL d   1      27.463 -12.871   0.489  0.00  0.00     0.258 C 
ATOM      5  O   UNL d   1      26.655 -12.347  -0.278  0.00  0.00    -0.267 OA
ATOM      6  H   UNL d   1      28.810 -14.419   0.796  0.00  0.00     0.171 HD
BRANCH   4   7
ATOM      7  C   UNL d   1      27.616 -12.124   1.797  0.00  0.00     0.037 C 
ATOM      8  C   UNL d   1      28.087 -12.519   3.055  0.00  0.00     0.053 C 
ATOM      9  C   UNL d   1      27.775 -11.691   4.172  0.00  0.00     0.106 C 
ATOM     10  C   UNL d   1      27.171 -10.426   4.024  0.00  0.00     0.072 C 
ATOM     11  C   UNL d   1      26.886  -9.982   2.743  0.00  0.00     0.106 C 
ATOM     12  C   UNL d   1      27.156 -10.801   1.660  0.00  0.00     0.053 C 
BRANCH   9  13
ATOM     13  N   UNL d   1      27.865 -12.245   5.537  0.00  0.00    -0.116 N 
ATOM     14  O   UNL d   1      27.282 -13.314   5.758  0.00  0.00    -0.532 OA
ATOM     15  O   UNL d   1      28.453 -11.569   6.392  0.00  0.00    -0.532 OA
ENDBRANCH   9  13
BRANCH  11  16
ATOM     16  N   UNL d   1      26.126  -8.752   2.493  0.00  0.00    -0.116 N 
ATOM     17  O   UNL d   1      25.156  -8.828   1.733  0.00  0.00    -0.532 OA
ATOM     18  O   UNL d   1      26.531  -7.708   3.023  0.00  0.00    -0.532 OA
ENDBRANCH  11  16
ENDBRANCH   4   7
ENDBRANCH   1   3
BRANCH   1  19
ATOM     19  N   UNL d   1      27.785 -15.931  -1.210  0.00  0.00    -0.332 N 
ATOM     20  H   UNL d   1      28.490 -16.599  -0.919  0.00  0.00     0.168 HD
BRANCH  19  21
ATOM     21  C   UNL d   1      26.423 -16.350  -0.981  0.00  0.00     0.050 A 
ATOM     22  C   UNL d   1      26.161 -17.341  -0.007  0.00  0.00     0.030 A 
ATOM     23  C   UNL d   1      24.858 -17.831   0.207  0.00  0.00     0.002 A 
ATOM     24  C   UNL d   1      23.789 -17.308  -0.507  0.00  0.00     0.001 A 
ATOM     25  C   UNL d   1      24.032 -16.328  -1.463  0.00  0.00     0.019 A 
ATOM     26  C   UNL d   1      25.337 -15.844  -1.730  0.00  0.00     0.058 A 
BRANCH  26  27
ATOM     27  C   UNL d   1      25.416 -14.814  -2.815  0.00  0.00     0.254 C 
ATOM     28  O   UNL d   1      25.212 -15.200  -3.980  0.00  0.00    -0.268 OA
ATOM     29  N   UNL d   1      25.714 -13.507  -2.506  0.00  0.00    -0.352 N 
ATOM     30  H   UNL d   1      26.032 -13.340  -1.562  0.00  0.00     0.163 HD
BRANCH  29  31
ATOM     31  C   UNL d   1      25.530 -12.333  -3.378  0.00  0.00     0.084 C 
ATOM     32  C   UNL d   1      26.200 -11.069  -2.899  0.00  0.00     0.025 C 
ATOM     33  C   UNL d   1      25.937  -9.935  -3.881  0.00  0.00     0.002 C 
ATOM     34  C   UNL d   1      26.489 -10.191  -5.279  0.00  0.00     0.000 C 
ATOM     35  C   UNL d   1      25.907 -11.473  -5.819  0.00  0.00     0.002 C 
ATOM     36  C   UNL d   1      26.073 -12.563  -4.779  0.00  0.00     0.025 C 
ENDBRANCH  29  31
ENDBRANCH  26  27
ENDBRANCH  19  21
ENDBRANCH   1  19
TORSDOF 8
ENDMDL
MODEL 6
REMARK VINA RESULT:    -8.151      2.804      4.663
REMARK INTER + INTRA:         -13.048
REMARK INTER:                 -10.538
REMARK INTRA:                  -2.511
REMARK CONF_INDEPENDENT:        2.386
REMARK UNBOUND:                -2.511
REMARK  8 active torsions:
REMARK  status: ('A' for Active; 'I' for Inactive)
REMARK       I    between atoms: C_2  and  N_3 
REMARK    1  A    between atoms: C_2  and  C_22 
REMARK    2  A    between atoms: N_3  and  C_4 
REMARK    3  A    between atoms: C_4  and  N_6 
REMARK    4  A    between atoms: N_6  and  C_7 
REMARK    5  A    between atoms: C_12  and  C_13 
REMARK       I    between atoms: C_13  and  N_15 
REMARK    6  A    between atoms: N_15  and  C_16 
REMARK    7  A    between atoms: C_24  and  N_25 
REMARK    8  A    between atoms: C_29  and  N_30 
ROOT
ATOM      1  C   UNL d   1      29.162 -13.983  -0.417  0.00  0.00     0.179 C 
ATOM      2  S   UNL d   1      30.619 -14.829  -0.580  0.00  0.00    -0.040 SA
ENDROOT
BRANCH   1   3
ATOM      3  N   UNL d   1      28.807 -13.065   0.635  0.00  0.00    -0.299 N 
ATOM      4  C   UNL d   1      27.503 -12.908   1.128  0.00  0.00     0.258 C 
ATOM      5  O   UNL d   1      26.599 -13.675   0.799  0.00  0.00    -0.267 OA
ATOM      6  H   UNL d   1      29.512 -12.419   0.955  0.00  0.00     0.171 HD
BRANCH   4   7
ATOM      7  C   UNL d   1      27.039 -11.799   2.049  0.00  0.00     0.037 C 
ATOM      8  C   UNL d   1      26.297 -10.635   1.819  0.00  0.00     0.053 C 
ATOM      9  C   UNL d   1      26.330  -9.616   2.815  0.00  0.00     0.106 C 
ATOM     10  C   UNL d   1      26.931  -9.817   4.074  0.00  0.00     0.072 C 
ATOM     11  C   UNL d   1      27.497 -11.054   4.341  0.00  0.00     0.106 C 
ATOM     12  C   UNL d   1      27.498 -12.031   3.360  0.00  0.00     0.053 C 
BRANCH   9  13
ATOM     13  N   UNL d   1      25.936  -8.239   2.462  0.00  0.00    -0.116 N 
ATOM     14  O   UNL d   1      25.157  -8.094   1.512  0.00  0.00    -0.532 OA
ATOM     15  O   UNL d   1      26.470  -7.312   3.088  0.00  0.00    -0.532 OA
ENDBRANCH   9  13
BRANCH  11  16
ATOM     16  N   UNL d   1      28.273 -11.311   5.559  0.00  0.00    -0.116 N 
ATOM     17  O   UNL d   1      27.783 -12.078   6.393  0.00  0.00    -0.532 OA
ATOM     18  O   UNL d   1      29.348 -10.710   5.695  0.00  0.00    -0.532 OA
ENDBRANCH  11  16
ENDBRANCH   4   7
ENDBRANCH   1   3
BRANCH   1  19
ATOM     19  N   UNL d   1      28.065 -14.216  -1.287  0.00  0.00    -0.332 N 
ATOM     20  H   UNL d   1      27.345 -14.837  -0.938  0.00  0.00     0.168 HD
BRANCH  19  21
ATOM     21  C   UNL d   1      27.610 -13.244  -2.252  0.00  0.00     0.050 A 
ATOM     22  C   UNL d   1      28.386 -12.085  -2.481  0.00  0.00     0.030 A 
ATOM     23  C   UNL d   1      27.953 -11.076  -3.363  0.00  0.00     0.002 A 
ATOM     24  C   UNL d   1      26.768 -11.227  -4.069  0.00  0.00     0.001 A 
ATOM     25  C   UNL d   1      25.999 -12.367  -3.859  0.00  0.00     0.019 A 
ATOM     26  C   UNL d   1      26.388 -13.380  -2.947  0.00  0.00     0.058 A 
BRANCH  26  27
ATOM     27  C   UNL d   1      25.422 -14.518  -2.822  0.00  0.00     0.254 C 
ATOM     28  O   UNL d   1      24.793 -14.843  -3.845  0.00  0.00    -0.268 OA
ATOM     29  N   UNL d   1      25.254 -15.152  -1.612  0.00  0.00    -0.352 N 
ATOM     30  H   UNL d   1      25.679 -14.698  -0.816  0.00  0.00     0.163 HD
BRANCH  29  31
ATOM     31  C   UNL d   1      24.601 -16.453  -1.384  0.00  0.00     0.084 C 
ATOM     32  C   UNL d   1      25.218 -17.297  -0.296  0.00  0.00     0.025 C 
ATOM     33  C   UNL d   1      24.457 -18.609  -0.159  0.00  0.00     0.002 C 
ATOM     34  C   UNL d   1      22.995 -18.434   0.233  0.00  0.00     0.000 C 
ATOM     35  C   UNL d   1      22.307 -17.555  -0.781  0.00  0.00     0.002 C 
ATOM     36  C   UNL d   1      23.140 -16.306  -0.991  0.00  0.00     0.025 C 
ENDBRANCH  29  31
ENDBRANCH  26  27
ENDBRANCH  19  21
ENDBRANCH   1  19
TORSDOF 8
ENDMDL
MODEL 7
REMARK VINA RESULT:    -8.054      3.588      5.577
REMARK INTER + INTRA:         -12.776
REMARK INTER:                 -10.440
REMARK INTRA:                  -2.336
REMARK CONF_INDEPENDENT:        2.386
REMARK UNBOUND:                -2.336
REMARK  8 active torsions:
REMARK  status: ('A' for Active; 'I' for Inactive)
REMARK       I    between atoms: C_2  and  N_3 
REMARK    1  A    between atoms: C_2  and  C_22 
REMARK    2  A    between atoms: N_3  and  C_4 
REMARK    3  A    between atoms: C_4  and  N_6 
REMARK    4  A    between atoms: N_6  and  C_7 
REMARK    5  A    between atoms: C_12  and  C_13 
REMARK       I    between atoms: C_13  and  N_15 
REMARK    6  A    between atoms: N_15  and  C_16 
REMARK    7  A    between atoms: C_24  and  N_25 
REMARK    8  A    between atoms: C_29  and  N_30 
ROOT
ATOM      1  C   UNL d   1      28.414 -13.924   1.366  0.00  0.00     0.179 C 
ATOM      2  S   UNL d   1      27.826 -13.289   2.821  0.00  0.00    -0.040 SA
ENDROOT
BRANCH   1   3
ATOM      3  N   UNL d   1      27.976 -13.588   0.036  0.00  0.00    -0.299 N 
ATOM      4  C   UNL d   1      26.737 -13.971  -0.498  0.00  0.00     0.258 C 
ATOM      5  O   UNL d   1      25.869 -14.486   0.206  0.00  0.00    -0.267 OA
ATOM      6  H   UNL d   1      28.641 -13.153  -0.584  0.00  0.00     0.171 HD
BRANCH   4   7
ATOM      7  C   UNL d   1      26.334 -13.857  -1.954  0.00  0.00     0.037 C 
ATOM      8  C   UNL d   1      26.137 -14.817  -2.953  0.00  0.00     0.053 C 
ATOM      9  C   UNL d   1      26.111 -14.373  -4.307  0.00  0.00     0.106 C 
ATOM     10  C   UNL d   1      26.100 -13.006  -4.649  0.00  0.00     0.072 C 
ATOM     11  C   UNL d   1      26.107 -12.073  -3.623  0.00  0.00     0.106 C 
ATOM     12  C   UNL d   1      26.169 -12.504  -2.309  0.00  0.00     0.053 C 
BRANCH   9  13
ATOM     13  N   UNL d   1      26.331 -15.344  -5.396  0.00  0.00    -0.116 N 
ATOM     14  O   UNL d   1      25.533 -16.285  -5.491  0.00  0.00    -0.532 OA
ATOM     15  O   UNL d   1      27.342 -15.199  -6.097  0.00  0.00    -0.532 OA
ENDBRANCH   9  13
BRANCH  11  16
ATOM     16  N   UNL d   1      26.247 -10.635  -3.876  0.00  0.00    -0.116 N 
ATOM     17  O   UNL d   1      27.074 -10.286  -4.723  0.00  0.00    -0.532 OA
ATOM     18  O   UNL d   1      25.561  -9.862  -3.193  0.00  0.00    -0.532 OA
ENDBRANCH  11  16
ENDBRANCH   4   7
ENDBRANCH   1   3
BRANCH   1  19
ATOM     19  N   UNL d   1      29.355 -14.985   1.345  0.00  0.00    -0.332 N 
ATOM     20  H   UNL d   1      29.462 -15.502   2.210  0.00  0.00     0.168 HD
BRANCH  19  21
ATOM     21  C   UNL d   1      29.664 -15.735   0.151  0.00  0.00     0.050 A 
ATOM     22  C   UNL d   1      30.891 -15.503  -0.511  0.00  0.00     0.030 A 
ATOM     23  C   UNL d   1      31.209 -16.160  -1.715  0.00  0.00     0.002 A 
ATOM     24  C   UNL d   1      30.337 -17.095  -2.253  0.00  0.00     0.001 A 
ATOM     25  C   UNL d   1      29.129 -17.339  -1.608  0.00  0.00     0.019 A 
ATOM     26  C   UNL d   1      28.762 -16.663  -0.417  0.00  0.00     0.058 A 
BRANCH  26  27
ATOM     27  C   UNL d   1      27.411 -17.025   0.121  0.00  0.00     0.254 C 
ATOM     28  O   UNL d   1      27.303 -17.135   1.355  0.00  0.00    -0.268 OA
ATOM     29  N   UNL d   1      26.357 -17.229  -0.740  0.00  0.00    -0.352 N 
ATOM     30  H   UNL d   1      26.595 -17.286  -1.720  0.00  0.00     0.163 HD
BRANCH  29  31
ATOM     31  C   UNL d   1      24.928 -17.281  -0.384  0.00  0.00     0.084 C 
ATOM     32  C   UNL d   1      24.028 -16.400  -1.215  0.00  0.00     0.025 C 
ATOM     33  C   UNL d   1      22.585 -16.542  -0.750  0.00  0.00     0.002 C 
ATOM     34  C   UNL d   1      22.029 -17.954  -0.895  0.00  0.00     0.000 C 
ATOM     35  C   UNL d   1      22.903 -18.916  -0.130  0.00  0.00     0.002 C 
ATOM     36  C   UNL d   1      24.349 -18.679  -0.519  0.00  0.00     0.025 C 
ENDBRANCH  29  31
ENDBRANCH  26  27
ENDBRANCH  19  21
ENDBRANCH   1  19
TORSDOF 8
ENDMDL
MODEL 8
REMARK VINA RESULT:    -7.895      3.669      5.382
REMARK INTER + INTRA:         -13.133
REMARK INTER:                 -10.281
REMARK INTRA:                  -2.852
REMARK CONF_INDEPENDENT:        2.386
REMARK UNBOUND:                -2.852
REMARK  8 active torsions:
REMARK  status: ('A' for Active; 'I' for Inactive)
REMARK       I    between atoms: C_2  and  N_3 
REMARK    1  A    between atoms: C_2  and  C_22 
REMARK    2  A    between atoms: N_3  and  C_4 
REMARK    3  A    between atoms: C_4  and  N_6 
REMARK    4  A    between atoms: N_6  and  C_7 
REMARK    5  A    between atoms: C_12  and  C_13 
REMARK       I    between atoms: C_13  and  N_15 
REMARK    6  A    between atoms: N_15  and  C_16 
REMARK    7  A    between atoms: C_24  and  N_25 
REMARK    8  A    between atoms: C_29  and  N_30 
ROOT
ATOM      1  C   UNL d   1      28.187 -14.056   1.373  0.00  0.00     0.179 C 
ATOM      2  S   UNL d   1      27.406 -13.710   2.835  0.00  0.00    -0.040 SA
ENDROOT
BRANCH   1   3
ATOM      3  N   UNL d   1      28.032 -13.358   0.123  0.00  0.00    -0.299 N 
ATOM      4  C   UNL d   1      26.956 -13.558  -0.755  0.00  0.00     0.258 C 
ATOM      5  O   UNL d   1      25.981 -14.234  -0.428  0.00  0.00    -0.267 OA
ATOM      6  H   UNL d   1      28.795 -12.778  -0.192  0.00  0.00     0.171 HD
BRANCH   4   7
ATOM      7  C   UNL d   1      26.873 -13.038  -2.175  0.00  0.00     0.037 C 
ATOM      8  C   UNL d   1      26.648 -11.758  -2.695  0.00  0.00     0.053 C 
ATOM      9  C   UNL d   1      26.273 -11.653  -4.066  0.00  0.00     0.106 C 
ATOM     10  C   UNL d   1      26.293 -12.762  -4.937  0.00  0.00     0.072 C 
ATOM     11  C   UNL d   1      26.703 -13.985  -4.432  0.00  0.00     0.106 C 
ATOM     12  C   UNL d   1      27.033 -14.095  -3.092  0.00  0.00     0.053 C 
BRANCH   9  13
ATOM     13  N   UNL d   1      25.625 -10.419  -4.552  0.00  0.00    -0.116 N 
ATOM     14  O   UNL d   1      25.157  -9.650  -3.704  0.00  0.00    -0.532 OA
ATOM     15  O   UNL d   1      25.524 -10.270  -5.778  0.00  0.00    -0.532 OA
ENDBRANCH   9  13
BRANCH  11  16
ATOM     16  N   UNL d   1      26.618 -15.222  -5.215  0.00  0.00    -0.116 N 
ATOM     17  O   UNL d   1      27.625 -15.570  -5.838  0.00  0.00    -0.532 OA
ATOM     18  O   UNL d   1      25.530 -15.815  -5.239  0.00  0.00    -0.532 OA
ENDBRANCH  11  16
ENDBRANCH   4   7
ENDBRANCH   1   3
BRANCH   1  19
ATOM     19  N   UNL d   1      29.011 -15.200   1.224  0.00  0.00    -0.332 N 
ATOM     20  H   UNL d   1      28.894 -15.927   1.921  0.00  0.00     0.168 HD
BRANCH  19  21
ATOM     21  C   UNL d   1      29.485 -15.663  -0.059  0.00  0.00     0.050 A 
ATOM     22  C   UNL d   1      30.699 -15.150  -0.571  0.00  0.00     0.030 A 
ATOM     23  C   UNL d   1      31.170 -15.519  -1.846  0.00  0.00     0.002 A 
ATOM     24  C   UNL d   1      30.470 -16.442  -2.609  0.00  0.00     0.001 A 
ATOM     25  C   UNL d   1      29.278 -16.961  -2.113  0.00  0.00     0.019 A 
ATOM     26  C   UNL d   1      28.757 -16.577  -0.852  0.00  0.00     0.058 A 
BRANCH  26  27
ATOM     27  C   UNL d   1      27.447 -17.209  -0.494  0.00  0.00     0.254 C 
ATOM     28  O   UNL d   1      27.483 -18.216   0.235  0.00  0.00    -0.268 OA
ATOM     29  N   UNL d   1      26.271 -16.680  -0.975  0.00  0.00    -0.352 N 
ATOM     30  H   UNL d   1      26.367 -15.977  -1.694  0.00  0.00     0.163 HD
BRANCH  29  31
ATOM     31  C   UNL d   1      24.911 -16.972  -0.488  0.00  0.00     0.084 C 
ATOM     32  C   UNL d   1      23.797 -16.313  -1.264  0.00  0.00     0.025 C 
ATOM     33  C   UNL d   1      22.450 -16.691  -0.664  0.00  0.00     0.002 C 
ATOM     34  C   UNL d   1      22.154 -18.186  -0.707  0.00  0.00     0.000 C 
ATOM     35  C   UNL d   1      23.252 -18.932   0.008  0.00  0.00     0.002 C 
ATOM     36  C   UNL d   1      24.592 -18.458  -0.520  0.00  0.00     0.025 C 
ENDBRANCH  29  31
ENDBRANCH  26  27
ENDBRANCH  19  21
ENDBRANCH   1  19
TORSDOF 8
ENDMDL
MODEL 9
REMARK VINA RESULT:    -7.278      2.683      4.483
REMARK INTER + INTRA:         -12.660
REMARK INTER:                  -9.664
REMARK INTRA:                  -2.995
REMARK CONF_INDEPENDENT:        2.386
REMARK UNBOUND:                -2.995
REMARK  8 active torsions:
REMARK  status: ('A' for Active; 'I' for Inactive)
REMARK       I    between atoms: C_2  and  N_3 
REMARK    1  A    between atoms: C_2  and  C_22 
REMARK    2  A    between atoms: N_3  and  C_4 
REMARK    3  A    between atoms: C_4  and  N_6 
REMARK    4  A    between atoms: N_6  and  C_7 
REMARK    5  A    between atoms: C_12  and  C_13 
REMARK       I    between atoms: C_13  and  N_15 
REMARK    6  A    between atoms: N_15  and  C_16 
REMARK    7  A    between atoms: C_24  and  N_25 
REMARK    8  A    between atoms: C_29  and  N_30 
ROOT
ATOM      1  C   UNL d   1      28.842 -14.707  -1.552  0.00  0.00     0.179 C 
ATOM      2  S   UNL d   1      28.907 -16.203  -0.763  0.00  0.00    -0.040 SA
ENDROOT
BRANCH   1   3
ATOM      3  N   UNL d   1      28.763 -13.407  -0.938  0.00  0.00    -0.299 N 
ATOM      4  C   UNL d   1      27.579 -12.855  -0.428  0.00  0.00     0.258 C 
ATOM      5  O   UNL d   1      26.553 -13.527  -0.326  0.00  0.00    -0.267 OA
ATOM      6  H   UNL d   1      29.579 -12.815  -0.979  0.00  0.00     0.171 HD
BRANCH   4   7
ATOM      7  C   UNL d   1      27.394 -11.414   0.000  0.00  0.00     0.037 C 
ATOM      8  C   UNL d   1      27.139 -10.830   1.247  0.00  0.00     0.053 C 
ATOM      9  C   UNL d   1      26.665  -9.486   1.266  0.00  0.00     0.106 C 
ATOM     10  C   UNL d   1      26.615  -8.689   0.104  0.00  0.00     0.072 C 
ATOM     11  C   UNL d   1      27.055  -9.242  -1.088  0.00  0.00     0.106 C 
ATOM     12  C   UNL d   1      27.481 -10.559  -1.115  0.00  0.00     0.053 C 
BRANCH   9  13
ATOM     13  N   UNL d   1      25.989  -8.969   2.473  0.00  0.00    -0.116 N 
ATOM     14  O   UNL d   1      24.780  -9.201   2.592  0.00  0.00    -0.532 OA
ATOM     15  O   UNL d   1      26.658  -8.273   3.250  0.00  0.00    -0.532 OA
ENDBRANCH   9  13
BRANCH  11  16
ATOM     16  N   UNL d   1      26.905  -8.549  -2.372  0.00  0.00    -0.116 N 
ATOM     17  O   UNL d   1      25.976  -8.903  -3.103  0.00  0.00    -0.532 OA
ATOM     18  O   UNL d   1      27.745  -7.686  -2.662  0.00  0.00    -0.532 OA
ENDBRANCH  11  16
ENDBRANCH   4   7
ENDBRANCH   1   3
BRANCH   1  19
ATOM     19  N   UNL d   1      28.733 -14.616  -2.964  0.00  0.00    -0.332 N 
ATOM     20  H   UNL d   1      28.775 -15.492  -3.471  0.00  0.00     0.168 HD
BRANCH  19  21
ATOM     21  C   UNL d   1      27.991 -13.570  -3.626  0.00  0.00     0.050 A 
ATOM     22  C   UNL d   1      28.659 -12.382  -4.002  0.00  0.00     0.030 A 
ATOM     23  C   UNL d   1      27.967 -11.306  -4.590  0.00  0.00     0.002 A 
ATOM     24  C   UNL d   1      26.611 -11.413  -4.862  0.00  0.00     0.001 A 
ATOM     25  C   UNL d   1      25.942 -12.579  -4.504  0.00  0.00     0.019 A 
ATOM     26  C   UNL d   1      26.603 -13.663  -3.873  0.00  0.00     0.058 A 
BRANCH  26  27
ATOM     27  C   UNL d   1      25.720 -14.823  -3.528  0.00  0.00     0.254 C 
ATOM     28  O   UNL d   1      25.160 -15.410  -4.471  0.00  0.00    -0.268 OA
ATOM     29  N   UNL d   1      25.549 -15.194  -2.214  0.00  0.00    -0.352 N 
ATOM     30  H   UNL d   1      25.905 -14.547  -1.525  0.00  0.00     0.163 HD
BRANCH  29  31
ATOM     31  C   UNL d   1      24.986 -16.465  -1.726  0.00  0.00     0.084 C 
ATOM     32  C   UNL d   1      25.710 -17.077  -0.551  0.00  0.00     0.025 C 
ATOM     33  C   UNL d   1      25.035 -18.380  -0.144  0.00  0.00     0.002 C 
ATOM     34  C   UNL d   1      23.588 -18.209   0.306  0.00  0.00     0.000 C 
ATOM     35  C   UNL d   1      22.796 -17.553  -0.797  0.00  0.00     0.002 C 
ATOM     36  C   UNL d   1      23.543 -16.321  -1.270  0.00  0.00     0.025 C 
ENDBRANCH  29  31
ENDBRANCH  26  27
ENDBRANCH  19  21
ENDBRANCH   1  19
TORSDOF 8
ENDMDL
