MODEL 1
REMARK VINA RESULT:   -29.295      0.000      0.000
REMARK INTER + INTRA:         -31.088
REMARK INTER:                 -30.190
REMARK INTRA:                  -0.898
REMARK CONF_INDEPENDENT:        0.895
REMARK UNBOUND:                -0.898
REMARK  3 active torsions:
REMARK  status: ('A' for Active; 'I' for Inactive)
REMARK    1  A    between atoms: C_2  and  C_5 
REMARK    2  A    between atoms: C_9  and  C_10 
REMARK       I    between atoms: C_10  and  N_12 
REMARK    3  A    between atoms: N_12  and  N_13 
ROOT
ATOM      1  C   UNL d   1      26.365 -15.098  -1.874  0.00  0.00    -0.049 A 
ATOM      2  C   UNL d   1      25.088 -14.863  -2.349  0.00  0.00     0.009 A 
ATOM      3  C   UNL d   1      24.037 -15.684  -2.014  0.00  0.00     0.014 A 
ATOM      4  C   UNL d   1      24.189 -16.810  -1.179  0.00  0.00    -0.003 A 
ATOM      5  C   UNL d   1      23.226 -17.778  -0.675  0.00  0.00     0.051 A 
ATOM      6  C   UNL d   1      23.874 -18.732   0.096  0.00  0.00     0.068 A 
ATOM      7  S   UNL d   1      25.553 -18.488   0.236  0.00  0.00    -0.100 SA
ATOM      8  C   UNL d   1      25.493 -17.076  -0.740  0.00  0.00     0.016 A 
ATOM      9  C   UNL d   1      26.584 -16.241  -1.086  0.00  0.00     0.027 A 
ENDROOT
BRANCH   5  10
ATOM     10  C   UNL d   1      21.766 -17.849  -0.895  0.00  0.00     0.267 C 
ATOM     11  O   UNL d   1      21.069 -16.832  -0.967  0.00  0.00    -0.266 OA
ATOM     12  N   UNL d   1      21.195 -19.114  -1.003  0.00  0.00    -0.290 N 
ATOM     13  H   UNL d   1      21.768 -19.929  -1.088  0.00  0.00     0.183 HD
BRANCH  12  14
ATOM     14  N   UNL d   1      19.831 -19.319  -1.270  0.00  0.00    -0.247 NA
ATOM     15  H   UNL d   1      19.758 -19.714  -2.213  0.00  0.00     0.143 HD
ATOM     16  H   UNL d   1      19.376 -18.404  -1.311  0.00  0.00     0.143 HD
ENDBRANCH  12  14
ENDBRANCH   5  10
BRANCH   1  17
ATOM     17  C   UNL d   1      27.422 -14.056  -2.210  0.00  0.00    -0.024 C 
ATOM     18  C   UNL d   1      26.701 -12.787  -2.723  0.00  0.00     0.019 C 
ATOM     19  C   UNL d   1      28.350 -14.599  -3.318  0.00  0.00     0.019 C 
ATOM     20  C   UNL d   1      28.271 -13.677  -0.992  0.00  0.00     0.019 C 
ENDBRANCH   1  17
TORSDOF 3
ENDMDL
MODEL 2
REMARK VINA RESULT:   -28.732      1.132      1.210
REMARK INTER + INTRA:         -30.500
REMARK INTER:                 -29.627
REMARK INTRA:                  -0.873
REMARK CONF_INDEPENDENT:        0.895
REMARK UNBOUND:                -0.873
REMARK  3 active torsions:
REMARK  status: ('A' for Active; 'I' for Inactive)
REMARK    1  A    between atoms: C_2  and  C_5 
REMARK    2  A    between atoms: C_9  and  C_10 
REMARK       I    between atoms: C_10  and  N_12 
REMARK    3  A    between atoms: N_12  and  N_13 
ROOT
ATOM      1  C   UNL d   1      25.652 -14.917  -2.369  0.00  0.00    -0.049 A 
ATOM      2  C   UNL d   1      24.269 -14.906  -2.382  0.00  0.00     0.009 A 
ATOM      3  C   UNL d   1      23.541 -15.872  -1.728  0.00  0.00     0.014 A 
ATOM      4  C   UNL d   1      24.144 -16.929  -1.017  0.00  0.00    -0.003 A 
ATOM      5  C   UNL d   1      23.578 -18.020  -0.238  0.00  0.00     0.051 A 
ATOM      6  C   UNL d   1      24.593 -18.830   0.250  0.00  0.00     0.068 A 
ATOM      7  S   UNL d   1      26.158 -18.315  -0.179  0.00  0.00    -0.100 SA
ATOM      8  C   UNL d   1      25.546 -16.966  -1.048  0.00  0.00     0.016 A 
ATOM      9  C   UNL d   1      26.305 -15.981  -1.723  0.00  0.00     0.027 A 
ENDROOT
BRANCH   5  10
ATOM     10  C   UNL d   1      22.161 -18.332   0.045  0.00  0.00     0.267 C 
ATOM     11  O   UNL d   1      21.765 -18.574   1.190  0.00  0.00    -0.266 OA
ATOM     12  N   UNL d   1      21.283 -18.359  -1.035  0.00  0.00    -0.290 N 
ATOM     13  H   UNL d   1      21.566 -18.027  -1.934  0.00  0.00     0.183 HD
BRANCH  12  14
ATOM     14  N   UNL d   1      19.903 -18.585  -0.895  0.00  0.00    -0.247 NA
ATOM     15  H   UNL d   1      19.417 -17.794  -1.329  0.00  0.00     0.143 HD
ATOM     16  H   UNL d   1      19.675 -18.545   0.101  0.00  0.00     0.143 HD
ENDBRANCH  12  14
ENDBRANCH   5  10
BRANCH   1  17
ATOM     17  C   UNL d   1      26.350 -13.731  -3.019  0.00  0.00    -0.024 C 
ATOM     18  C   UNL d   1      25.321 -12.994  -3.908  0.00  0.00     0.019 C 
ATOM     19  C   UNL d   1      27.515 -14.235  -3.898  0.00  0.00     0.019 C 
ATOM     20  C   UNL d   1      26.899 -12.742  -1.986  0.00  0.00     0.019 C 
ENDBRANCH   1  17
TORSDOF 3
ENDMDL
MODEL 3
REMARK VINA RESULT:   -26.626      2.150      3.039
REMARK INTER + INTRA:         -28.380
REMARK INTER:                 -27.521
REMARK INTRA:                  -0.858
REMARK CONF_INDEPENDENT:        0.895
REMARK UNBOUND:                -0.858
REMARK  3 active torsions:
REMARK  status: ('A' for Active; 'I' for Inactive)
REMARK    1  A    between atoms: C_2  and  C_5 
REMARK    2  A    between atoms: C_9  and  C_10 
REMARK       I    between atoms: C_10  and  N_12 
REMARK    3  A    between atoms: N_12  and  N_13 
ROOT
ATOM      1  C   UNL d   1      27.576 -17.015  -0.819  0.00  0.00    -0.049 A 
ATOM      2  C   UNL d   1      26.879 -18.034  -0.198  0.00  0.00     0.009 A 
ATOM      3  C   UNL d   1      25.504 -18.065  -0.200  0.00  0.00     0.014 A 
ATOM      4  C   UNL d   1      24.722 -17.069  -0.820  0.00  0.00    -0.003 A 
ATOM      5  C   UNL d   1      23.282 -16.923  -0.972  0.00  0.00     0.051 A 
ATOM      6  C   UNL d   1      22.994 -15.744  -1.644  0.00  0.00     0.068 A 
ATOM      7  S   UNL d   1      24.371 -14.849  -2.095  0.00  0.00    -0.100 SA
ATOM      8  C   UNL d   1      25.431 -16.011  -1.406  0.00  0.00     0.016 A 
ATOM      9  C   UNL d   1      26.846 -15.966  -1.403  0.00  0.00     0.027 A 
ENDROOT
BRANCH   5  10
ATOM     10  C   UNL d   1      22.197 -17.814  -0.511  0.00  0.00     0.267 C 
ATOM     11  O   UNL d   1      22.322 -18.529   0.489  0.00  0.00    -0.266 OA
ATOM     12  N   UNL d   1      21.022 -17.831  -1.257  0.00  0.00    -0.290 N 
ATOM     13  H   UNL d   1      20.862 -17.157  -1.977  0.00  0.00     0.183 HD
BRANCH  12  14
ATOM     14  N   UNL d   1      19.895 -18.589  -0.895  0.00  0.00    -0.247 NA
ATOM     15  H   UNL d   1      19.097 -17.948  -0.846  0.00  0.00     0.143 HD
ATOM     16  H   UNL d   1      20.039 -18.935   0.057  0.00  0.00     0.143 HD
ENDBRANCH  12  14
ENDBRANCH   5  10
BRANCH   1  17
ATOM     17  C   UNL d   1      29.092 -17.151  -0.860  0.00  0.00    -0.024 C 
ATOM     18  C   UNL d   1      29.690 -16.190   0.195  0.00  0.00     0.019 C 
ATOM     19  C   UNL d   1      29.609 -16.757  -2.260  0.00  0.00     0.019 C 
ATOM     20  C   UNL d   1      29.556 -18.576  -0.540  0.00  0.00     0.019 C 
ENDBRANCH   1  17
TORSDOF 3
ENDMDL
