MODEL 1
REMARK VINA RESULT:    -7.636      0.000      0.000
REMARK INTER + INTRA:         -13.947
REMARK INTER:                 -10.917
REMARK INTRA:                  -3.030
REMARK CONF_INDEPENDENT:        3.281
REMARK UNBOUND:                -3.030
REMARK  11 active torsions:
REMARK  status: ('A' for Active; 'I' for Inactive)
REMARK    1  A    between atoms: C_2  and  O_3 
REMARK    2  A    between atoms: O_3  and  C_4 
REMARK    3  A    between atoms: C_4  and  C_6 
REMARK    4  A    between atoms: C_7  and  N_8 
REMARK    5  A    between atoms: N_8  and  C_9 
REMARK    6  A    between atoms: C_9  and  N_11 
REMARK       I    between atoms: N_11  and  C_12 
REMARK    7  A    between atoms: C_12  and  C_14 
REMARK    8  A    between atoms: C_14  and  C_15 
REMARK    9  A    between atoms: C_15  and  C_16 
REMARK   10  A    between atoms: C_16  and  O_17 
REMARK   11  A    between atoms: O_17  and  C_18 
ROOT
ATOM      1  C   UNL d   1      29.732 -16.146  -3.245  0.00  0.00     0.179 C 
ATOM      2  S   UNL d   1      30.808 -17.020  -2.266  0.00  0.00    -0.040 SA
ENDROOT
BRANCH   1   3
ATOM      3  N   UNL d   1      28.542 -15.473  -2.799  0.00  0.00    -0.326 N 
ATOM      4  H   UNL d   1      28.460 -14.464  -2.909  0.00  0.00     0.169 HD
BRANCH   3   5
ATOM      5  C   UNL d   1      27.369 -16.073  -2.202  0.00  0.00     0.093 A 
ATOM      6  C   UNL d   1      26.012 -16.060  -2.590  0.00  0.00     0.080 A 
ATOM      7  C   UNL d   1      25.167 -16.796  -1.622  0.00  0.00    -0.026 A 
ATOM      8  C   UNL d   1      25.909 -17.347  -0.603  0.00  0.00    -0.008 A 
ATOM      9  C   UNL d   1      23.688 -17.044  -1.643  0.00  0.00     0.041 C 
ATOM     10  S   UNL d   1      27.507 -16.978  -0.762  0.00  0.00    -0.075 SA
ATOM     11  C   UNL d   1      25.441 -18.147   0.574  0.00  0.00     0.047 C 
ATOM     12  C   UNL d   1      23.988 -18.575   0.385  0.00  0.00     0.005 C 
ATOM     13  C   UNL d   1      23.163 -17.446  -0.246  0.00  0.00     0.005 C 
BRANCH   6  14
ATOM     14  C   UNL d   1      25.529 -15.413  -3.812  0.00  0.00     0.296 C 
ATOM     15  O   UNL d   1      25.823 -15.826  -4.936  0.00  0.00    -0.259 OA
BRANCH  14  16
ATOM     16  O   UNL d   1      24.772 -14.295  -3.588  0.00  0.00    -0.318 OA
BRANCH  16  17
ATOM     17  C   UNL d   1      25.516 -13.080  -3.380  0.00  0.00     0.174 C 
ATOM     18  C   UNL d   1      25.886 -12.460  -4.720  0.00  0.00     0.034 C 
ENDBRANCH  16  17
ENDBRANCH  14  16
ENDBRANCH   6  14
ENDBRANCH   3   5
ENDBRANCH   1   3
BRANCH   1  19
ATOM     19  N   UNL d   1      30.013 -16.040  -4.649  0.00  0.00    -0.304 N 
ATOM     20  C   UNL d   1      29.314 -15.161  -5.509  0.00  0.00     0.223 C 
ATOM     21  O   UNL d   1      28.404 -14.413  -5.145  0.00  0.00    -0.273 OA
ATOM     22  H   UNL d   1      30.744 -16.609  -5.054  0.00  0.00     0.171 HD
BRANCH  20  23
ATOM     23  C   UNL d   1      29.642 -15.072  -6.989  0.00  0.00     0.105 C 
BRANCH  23  24
ATOM     24  C   UNL d   1      31.184 -15.289  -7.143  0.00  0.00     0.036 C 
BRANCH  24  25
ATOM     25  C   UNL d   1      31.594 -16.747  -7.265  0.00  0.00     0.176 C 
BRANCH  25  26
ATOM     26  O   UNL d   1      30.460 -17.573  -6.968  0.00  0.00    -0.349 OA
BRANCH  26  27
ATOM     27  C   UNL d   1      30.774 -18.785  -6.403  0.00  0.00     0.090 A 
ATOM     28  C   UNL d   1      30.716 -18.989  -5.020  0.00  0.00     0.040 A 
ATOM     29  C   UNL d   1      31.004 -20.245  -4.480  0.00  0.00     0.026 A 
ATOM     30  C   UNL d   1      31.335 -21.306  -5.320  0.00  0.00     0.035 A 
ATOM     31 CL   UNL d   1      31.697 -22.845  -4.641  0.00  0.00    -0.084 Cl
ATOM     32  C   UNL d   1      31.369 -21.128  -6.701  0.00  0.00     0.050 A 
ATOM     33  C   UNL d   1      31.076 -19.871  -7.240  0.00  0.00     0.069 A 
ATOM     34 CL   UNL d   1      31.122 -19.692  -8.958  0.00  0.00    -0.081 Cl
ENDBRANCH  26  27
ENDBRANCH  25  26
ENDBRANCH  24  25
ENDBRANCH  23  24
ENDBRANCH  20  23
ENDBRANCH   1  19
TORSDOF 11
ENDMDL
MODEL 2
REMARK VINA RESULT:    -7.596      5.738      8.176
REMARK INTER + INTRA:         -13.805
REMARK INTER:                 -10.877
REMARK INTRA:                  -2.927
REMARK CONF_INDEPENDENT:        3.281
REMARK UNBOUND:                -2.927
REMARK  11 active torsions:
REMARK  status: ('A' for Active; 'I' for Inactive)
REMARK    1  A    between atoms: C_2  and  O_3 
REMARK    2  A    between atoms: O_3  and  C_4 
REMARK    3  A    between atoms: C_4  and  C_6 
REMARK    4  A    between atoms: C_7  and  N_8 
REMARK    5  A    between atoms: N_8  and  C_9 
REMARK    6  A    between atoms: C_9  and  N_11 
REMARK       I    between atoms: N_11  and  C_12 
REMARK    7  A    between atoms: C_12  and  C_14 
REMARK    8  A    between atoms: C_14  and  C_15 
REMARK    9  A    between atoms: C_15  and  C_16 
REMARK   10  A    between atoms: C_16  and  O_17 
REMARK   11  A    between atoms: O_17  and  C_18 
ROOT
ATOM      1  C   UNL d   1      29.516 -16.403  -0.977  0.00  0.00     0.179 C 
ATOM      2  S   UNL d   1      30.743 -16.997  -1.988  0.00  0.00    -0.040 SA
ENDROOT
BRANCH   1   3
ATOM      3  N   UNL d   1      28.566 -17.198  -0.245  0.00  0.00    -0.326 N 
ATOM      4  H   UNL d   1      28.889 -17.818   0.495  0.00  0.00     0.169 HD
BRANCH   3   5
ATOM      5  C   UNL d   1      27.130 -17.220  -0.413  0.00  0.00     0.093 A 
ATOM      6  C   UNL d   1      26.230 -16.247  -0.896  0.00  0.00     0.080 A 
ATOM      7  C   UNL d   1      24.831 -16.729  -0.841  0.00  0.00    -0.026 A 
ATOM      8  C   UNL d   1      24.748 -18.019  -0.370  0.00  0.00    -0.008 A 
ATOM      9  C   UNL d   1      23.567 -16.039  -1.260  0.00  0.00     0.041 C 
ATOM     10  S   UNL d   1      26.237 -18.608   0.021  0.00  0.00    -0.075 SA
ATOM     11  C   UNL d   1      23.530 -18.862  -0.149  0.00  0.00     0.047 C 
ATOM     12  C   UNL d   1      22.311 -18.221  -0.806  0.00  0.00     0.005 C 
ATOM     13  C   UNL d   1      22.325 -16.699  -0.618  0.00  0.00     0.005 C 
BRANCH   6  14
ATOM     14  C   UNL d   1      26.654 -14.940  -1.406  0.00  0.00     0.296 C 
ATOM     15  O   UNL d   1      26.626 -13.921  -0.711  0.00  0.00    -0.259 OA
BRANCH  14  16
ATOM     16  O   UNL d   1      27.031 -14.951  -2.722  0.00  0.00    -0.318 OA
BRANCH  16  17
ATOM     17  C   UNL d   1      25.950 -15.021  -3.670  0.00  0.00     0.174 C 
ATOM     18  C   UNL d   1      26.503 -15.199  -5.077  0.00  0.00     0.034 C 
ENDBRANCH  16  17
ENDBRANCH  14  16
ENDBRANCH   6  14
ENDBRANCH   3   5
ENDBRANCH   1   3
BRANCH   1  19
ATOM     19  N   UNL d   1      29.395 -14.983  -0.807  0.00  0.00    -0.304 N 
ATOM     20  C   UNL d   1      30.244 -14.234   0.043  0.00  0.00     0.223 C 
ATOM     21  O   UNL d   1      31.155 -14.721   0.716  0.00  0.00    -0.273 OA
ATOM     22  H   UNL d   1      28.680 -14.481  -1.315  0.00  0.00     0.171 HD
BRANCH  20  23
ATOM     23  C   UNL d   1      30.088 -12.732   0.195  0.00  0.00     0.105 C 
BRANCH  23  24
ATOM     24  C   UNL d   1      28.790 -12.475   1.030  0.00  0.00     0.036 C 
BRANCH  24  25
ATOM     25  C   UNL d   1      28.284 -13.697   1.777  0.00  0.00     0.176 C 
BRANCH  25  26
ATOM     26  O   UNL d   1      27.358 -13.271   2.787  0.00  0.00    -0.349 OA
BRANCH  26  27
ATOM     27  C   UNL d   1      27.804 -13.445   4.074  0.00  0.00     0.090 A 
ATOM     28  C   UNL d   1      28.104 -14.713   4.583  0.00  0.00     0.040 A 
ATOM     29  C   UNL d   1      28.594 -14.852   5.885  0.00  0.00     0.026 A 
ATOM     30  C   UNL d   1      28.799 -13.725   6.677  0.00  0.00     0.035 A 
ATOM     31 CL   UNL d   1      29.392 -13.911   8.281  0.00  0.00    -0.084 Cl
ATOM     32  C   UNL d   1      28.532 -12.453   6.177  0.00  0.00     0.050 A 
ATOM     33  C   UNL d   1      28.046 -12.315   4.872  0.00  0.00     0.069 A 
ATOM     34 CL   UNL d   1      27.734 -10.720   4.285  0.00  0.00    -0.081 Cl
ENDBRANCH  26  27
ENDBRANCH  25  26
ENDBRANCH  24  25
ENDBRANCH  23  24
ENDBRANCH  20  23
ENDBRANCH   1  19
TORSDOF 11
ENDMDL
MODEL 3
REMARK VINA RESULT:    -7.471      3.542      5.578
REMARK INTER + INTRA:         -14.007
REMARK INTER:                 -10.752
REMARK INTRA:                  -3.255
REMARK CONF_INDEPENDENT:        3.281
REMARK UNBOUND:                -3.255
REMARK  11 active torsions:
REMARK  status: ('A' for Active; 'I' for Inactive)
REMARK    1  A    between atoms: C_2  and  O_3 
REMARK    2  A    between atoms: O_3  and  C_4 
REMARK    3  A    between atoms: C_4  and  C_6 
REMARK    4  A    between atoms: C_7  and  N_8 
REMARK    5  A    between atoms: N_8  and  C_9 
REMARK    6  A    between atoms: C_9  and  N_11 
REMARK       I    between atoms: N_11  and  C_12 
REMARK    7  A    between atoms: C_12  and  C_14 
REMARK    8  A    between atoms: C_14  and  C_15 
REMARK    9  A    between atoms: C_15  and  C_16 
REMARK   10  A    between atoms: C_16  and  O_17 
REMARK   11  A    between atoms: O_17  and  C_18 
ROOT
ATOM      1  C   UNL d   1      29.717 -15.669  -0.165  0.00  0.00     0.179 C 
ATOM      2  S   UNL d   1      30.434 -14.659   0.994  0.00  0.00    -0.040 SA
ENDROOT
BRANCH   1   3
ATOM      3  N   UNL d   1      28.894 -16.818   0.109  0.00  0.00    -0.326 N 
ATOM      4  H   UNL d   1      29.307 -17.646   0.535  0.00  0.00     0.169 HD
BRANCH   3   5
ATOM      5  C   UNL d   1      27.475 -16.955  -0.132  0.00  0.00     0.093 A 
ATOM      6  C   UNL d   1      26.510 -16.031  -0.586  0.00  0.00     0.080 A 
ATOM      7  C   UNL d   1      25.161 -16.639  -0.636  0.00  0.00    -0.026 A 
ATOM      8  C   UNL d   1      25.178 -17.964  -0.266  0.00  0.00    -0.008 A 
ATOM      9  C   UNL d   1      23.858 -16.034  -1.065  0.00  0.00     0.041 C 
ATOM     10  S   UNL d   1      26.697 -18.447   0.154  0.00  0.00    -0.075 SA
ATOM     11  C   UNL d   1      24.034 -18.927  -0.169  0.00  0.00     0.047 C 
ATOM     12  C   UNL d   1      22.790 -18.348  -0.837  0.00  0.00     0.005 C 
ATOM     13  C   UNL d   1      22.656 -16.850  -0.537  0.00  0.00     0.005 C 
BRANCH   6  14
ATOM     14  C   UNL d   1      26.832 -14.656  -0.976  0.00  0.00     0.296 C 
ATOM     15  O   UNL d   1      27.484 -14.394  -1.989  0.00  0.00    -0.259 OA
BRANCH  14  16
ATOM     16  O   UNL d   1      26.387 -13.708  -0.093  0.00  0.00    -0.318 OA
BRANCH  16  17
ATOM     17  C   UNL d   1      27.356 -13.270   0.878  0.00  0.00     0.174 C 
ATOM     18  C   UNL d   1      26.654 -12.864   2.166  0.00  0.00     0.034 C 
ENDBRANCH  16  17
ENDBRANCH  14  16
ENDBRANCH   6  14
ENDBRANCH   3   5
ENDBRANCH   1   3
BRANCH   1  19
ATOM     19  N   UNL d   1      29.920 -15.373  -1.555  0.00  0.00    -0.304 N 
ATOM     20  C   UNL d   1      30.591 -16.251  -2.439  0.00  0.00     0.223 C 
ATOM     21  O   UNL d   1      31.066 -17.340  -2.107  0.00  0.00    -0.273 OA
ATOM     22  H   UNL d   1      29.568 -14.505  -1.935  0.00  0.00     0.171 HD
BRANCH  20  23
ATOM     23  C   UNL d   1      30.783 -15.906  -3.905  0.00  0.00     0.105 C 
BRANCH  23  24
ATOM     24  C   UNL d   1      29.490 -15.169  -4.388  0.00  0.00     0.036 C 
BRANCH  24  25
ATOM     25  C   UNL d   1      29.097 -15.485  -5.821  0.00  0.00     0.176 C 
BRANCH  25  26
ATOM     26  O   UNL d   1      27.691 -15.250  -5.978  0.00  0.00    -0.349 OA
BRANCH  26  27
ATOM     27  C   UNL d   1      27.252 -14.063  -5.445  0.00  0.00     0.090 A 
ATOM     28  C   UNL d   1      27.749 -12.832  -5.882  0.00  0.00     0.040 A 
ATOM     29  C   UNL d   1      27.252 -11.640  -5.346  0.00  0.00     0.026 A 
ATOM     30  C   UNL d   1      26.246 -11.675  -4.383  0.00  0.00     0.035 A 
ATOM     31 CL   UNL d   1      25.652 -10.201  -3.725  0.00  0.00    -0.084 Cl
ATOM     32  C   UNL d   1      25.720 -12.891  -3.957  0.00  0.00     0.050 A 
ATOM     33  C   UNL d   1      26.215 -14.083  -4.498  0.00  0.00     0.069 A 
ATOM     34 CL   UNL d   1      25.530 -15.571  -3.948  0.00  0.00    -0.081 Cl
ENDBRANCH  26  27
ENDBRANCH  25  26
ENDBRANCH  24  25
ENDBRANCH  23  24
ENDBRANCH  20  23
ENDBRANCH   1  19
TORSDOF 11
ENDMDL
MODEL 4
REMARK VINA RESULT:    -7.162      4.789      7.246
REMARK INTER + INTRA:         -13.882
REMARK INTER:                 -10.443
REMARK INTRA:                  -3.439
REMARK CONF_INDEPENDENT:        3.281
REMARK UNBOUND:                -3.439
REMARK  11 active torsions:
REMARK  status: ('A' for Active; 'I' for Inactive)
REMARK    1  A    between atoms: C_2  and  O_3 
REMARK    2  A    between atoms: O_3  and  C_4 
REMARK    3  A    between atoms: C_4  and  C_6 
REMARK    4  A    between atoms: C_7  and  N_8 
REMARK    5  A    between atoms: N_8  and  C_9 
REMARK    6  A    between atoms: C_9  and  N_11 
REMARK       I    between atoms: N_11  and  C_12 
REMARK    7  A    between atoms: C_12  and  C_14 
REMARK    8  A    between atoms: C_14  and  C_15 
REMARK    9  A    between atoms: C_15  and  C_16 
REMARK   10  A    between atoms: C_16  and  O_17 
REMARK   11  A    between atoms: O_17  and  C_18 
ROOT
ATOM      1  C   UNL d   1      29.822 -14.416  -2.289  0.00  0.00     0.179 C 
ATOM      2  S   UNL d   1      31.427 -14.149  -2.769  0.00  0.00    -0.040 SA
ENDROOT
BRANCH   1   3
ATOM      3  N   UNL d   1      28.888 -15.307  -2.926  0.00  0.00    -0.326 N 
ATOM      4  H   UNL d   1      29.029 -15.578  -3.897  0.00  0.00     0.169 HD
BRANCH   3   5
ATOM      5  C   UNL d   1      27.721 -15.922  -2.332  0.00  0.00     0.093 A 
ATOM      6  C   UNL d   1      26.369 -15.943  -2.734  0.00  0.00     0.080 A 
ATOM      7  C   UNL d   1      25.529 -16.682  -1.764  0.00  0.00    -0.026 A 
ATOM      8  C   UNL d   1      26.270 -17.200  -0.728  0.00  0.00    -0.008 A 
ATOM      9  C   UNL d   1      24.055 -16.961  -1.798  0.00  0.00     0.041 C 
ATOM     10  S   UNL d   1      27.862 -16.800  -0.876  0.00  0.00    -0.075 SA
ATOM     11  C   UNL d   1      25.805 -17.991   0.456  0.00  0.00     0.047 C 
ATOM     12  C   UNL d   1      24.364 -18.452   0.259  0.00  0.00     0.005 C 
ATOM     13  C   UNL d   1      23.523 -17.351  -0.400  0.00  0.00     0.005 C 
BRANCH   6  14
ATOM     14  C   UNL d   1      25.887 -15.327  -3.972  0.00  0.00     0.296 C 
ATOM     15  O   UNL d   1      24.827 -14.700  -4.027  0.00  0.00    -0.259 OA
BRANCH  14  16
ATOM     16  O   UNL d   1      26.692 -15.552  -5.057  0.00  0.00    -0.318 OA
BRANCH  16  17
ATOM     17  C   UNL d   1      27.403 -14.398  -5.544  0.00  0.00     0.174 C 
ATOM     18  C   UNL d   1      28.522 -14.833  -6.479  0.00  0.00     0.034 C 
ENDBRANCH  16  17
ENDBRANCH  14  16
ENDBRANCH   6  14
ENDBRANCH   3   5
ENDBRANCH   1   3
BRANCH   1  19
ATOM     19  N   UNL d   1      29.322 -13.714  -1.141  0.00  0.00    -0.304 N 
ATOM     20  C   UNL d   1      28.334 -12.704  -1.227  0.00  0.00     0.223 C 
ATOM     21  O   UNL d   1      27.816 -12.329  -2.281  0.00  0.00    -0.273 OA
ATOM     22  H   UNL d   1      29.678 -13.945  -0.224  0.00  0.00     0.171 HD
BRANCH  20  23
ATOM     23  C   UNL d   1      27.825 -11.986   0.010  0.00  0.00     0.105 C 
BRANCH  23  24
ATOM     24  C   UNL d   1      26.635 -12.825   0.584  0.00  0.00     0.036 C 
BRANCH  24  25
ATOM     25  C   UNL d   1      27.011 -14.243   0.977  0.00  0.00     0.176 C 
BRANCH  25  26
ATOM     26  O   UNL d   1      28.378 -14.256   1.413  0.00  0.00    -0.349 OA
BRANCH  26  27
ATOM     27  C   UNL d   1      28.540 -14.151   2.773  0.00  0.00     0.090 A 
ATOM     28  C   UNL d   1      27.448 -14.011   3.635  0.00  0.00     0.040 A 
ATOM     29  C   UNL d   1      27.644 -13.945   5.017  0.00  0.00     0.026 A 
ATOM     30  C   UNL d   1      28.931 -14.036   5.543  0.00  0.00     0.035 A 
ATOM     31 CL   UNL d   1      29.160 -13.945   7.246  0.00  0.00    -0.084 Cl
ATOM     32  C   UNL d   1      30.027 -14.205   4.701  0.00  0.00     0.050 A 
ATOM     33  C   UNL d   1      29.828 -14.275   3.318  0.00  0.00     0.069 A 
ATOM     34 CL   UNL d   1      31.212 -14.492   2.307  0.00  0.00    -0.081 Cl
ENDBRANCH  26  27
ENDBRANCH  25  26
ENDBRANCH  24  25
ENDBRANCH  23  24
ENDBRANCH  20  23
ENDBRANCH   1  19
TORSDOF 11
ENDMDL
MODEL 5
REMARK VINA RESULT:    -6.871      1.854      2.594
REMARK INTER + INTRA:         -13.605
REMARK INTER:                 -10.152
REMARK INTRA:                  -3.453
REMARK CONF_INDEPENDENT:        3.281
REMARK UNBOUND:                -3.453
REMARK  11 active torsions:
REMARK  status: ('A' for Active; 'I' for Inactive)
REMARK    1  A    between atoms: C_2  and  O_3 
REMARK    2  A    between atoms: O_3  and  C_4 
REMARK    3  A    between atoms: C_4  and  C_6 
REMARK    4  A    between atoms: C_7  and  N_8 
REMARK    5  A    between atoms: N_8  and  C_9 
REMARK    6  A    between atoms: C_9  and  N_11 
REMARK       I    between atoms: N_11  and  C_12 
REMARK    7  A    between atoms: C_12  and  C_14 
REMARK    8  A    between atoms: C_14  and  C_15 
REMARK    9  A    between atoms: C_15  and  C_16 
REMARK   10  A    between atoms: C_16  and  O_17 
REMARK   11  A    between atoms: O_17  and  C_18 
ROOT
ATOM      1  C   UNL d   1      30.521 -15.873  -3.580  0.00  0.00     0.179 C 
ATOM      2  S   UNL d   1      31.500 -15.526  -2.237  0.00  0.00    -0.040 SA
ENDROOT
BRANCH   1   3
ATOM      3  N   UNL d   1      29.148 -15.478  -3.748  0.00  0.00    -0.326 N 
ATOM      4  H   UNL d   1      28.894 -14.837  -4.497  0.00  0.00     0.169 HD
BRANCH   3   5
ATOM      5  C   UNL d   1      28.011 -15.909  -2.965  0.00  0.00     0.093 A 
ATOM      6  C   UNL d   1      26.623 -15.809  -3.198  0.00  0.00     0.080 A 
ATOM      7  C   UNL d   1      25.844 -16.371  -2.072  0.00  0.00    -0.026 A 
ATOM      8  C   UNL d   1      26.656 -16.888  -1.089  0.00  0.00    -0.008 A 
ATOM      9  C   UNL d   1      24.358 -16.484  -1.902  0.00  0.00     0.041 C 
ATOM     10  S   UNL d   1      28.249 -16.683  -1.462  0.00  0.00    -0.075 SA
ATOM     11  C   UNL d   1      26.270 -17.528   0.209  0.00  0.00     0.047 C 
ATOM     12  C   UNL d   1      24.776 -17.837   0.229  0.00  0.00     0.005 C 
ATOM     13  C   UNL d   1      23.974 -16.703  -0.421  0.00  0.00     0.005 C 
BRANCH   6  14
ATOM     14  C   UNL d   1      26.051 -15.239  -4.420  0.00  0.00     0.296 C 
ATOM     15  O   UNL d   1      26.663 -15.225  -5.490  0.00  0.00    -0.259 OA
BRANCH  14  16
ATOM     16  O   UNL d   1      24.808 -14.690  -4.249  0.00  0.00    -0.318 OA
BRANCH  16  17
ATOM     17  C   UNL d   1      24.798 -13.326  -3.788  0.00  0.00     0.174 C 
ATOM     18  C   UNL d   1      25.892 -12.532  -4.489  0.00  0.00     0.034 C 
ENDBRANCH  16  17
ENDBRANCH  14  16
ENDBRANCH   6  14
ENDBRANCH   3   5
ENDBRANCH   1   3
BRANCH   1  19
ATOM     19  N   UNL d   1      31.088 -16.616  -4.669  0.00  0.00    -0.304 N 
ATOM     20  C   UNL d   1      30.523 -16.632  -5.966  0.00  0.00     0.223 C 
ATOM     21  O   UNL d   1      29.500 -16.022  -6.284  0.00  0.00    -0.273 OA
ATOM     22  H   UNL d   1      31.932 -17.152  -4.519  0.00  0.00     0.171 HD
BRANCH  20  23
ATOM     23  C   UNL d   1      31.154 -17.426  -7.096  0.00  0.00     0.105 C 
BRANCH  23  24
ATOM     24  C   UNL d   1      30.762 -18.928  -6.891  0.00  0.00     0.036 C 
BRANCH  24  25
ATOM     25  C   UNL d   1      30.427 -19.288  -5.454  0.00  0.00     0.176 C 
BRANCH  25  26
ATOM     26  O   UNL d   1      31.637 -19.291  -4.683  0.00  0.00    -0.349 OA
BRANCH  26  27
ATOM     27  C   UNL d   1      31.507 -19.831  -3.427  0.00  0.00     0.090 A 
ATOM     28  C   UNL d   1      31.330 -19.029  -2.296  0.00  0.00     0.040 A 
ATOM     29  C   UNL d   1      31.162 -19.611  -1.037  0.00  0.00     0.026 A 
ATOM     30  C   UNL d   1      31.155 -20.998  -0.906  0.00  0.00     0.035 A 
ATOM     31 CL   UNL d   1      30.957 -21.702   0.652  0.00  0.00    -0.084 Cl
ATOM     32  C   UNL d   1      31.301 -21.813  -2.025  0.00  0.00     0.050 A 
ATOM     33  C   UNL d   1      31.465 -21.228  -3.286  0.00  0.00     0.069 A 
ATOM     34 CL   UNL d   1      31.636 -22.273  -4.651  0.00  0.00    -0.081 Cl
ENDBRANCH  26  27
ENDBRANCH  25  26
ENDBRANCH  24  25
ENDBRANCH  23  24
ENDBRANCH  20  23
ENDBRANCH   1  19
TORSDOF 11
ENDMDL
MODEL 6
REMARK VINA RESULT:    -6.780      3.522      7.353
REMARK INTER + INTRA:         -13.691
REMARK INTER:                 -10.061
REMARK INTRA:                  -3.630
REMARK CONF_INDEPENDENT:        3.281
REMARK UNBOUND:                -3.630
REMARK  11 active torsions:
REMARK  status: ('A' for Active; 'I' for Inactive)
REMARK    1  A    between atoms: C_2  and  O_3 
REMARK    2  A    between atoms: O_3  and  C_4 
REMARK    3  A    between atoms: C_4  and  C_6 
REMARK    4  A    between atoms: C_7  and  N_8 
REMARK    5  A    between atoms: N_8  and  C_9 
REMARK    6  A    between atoms: C_9  and  N_11 
REMARK       I    between atoms: N_11  and  C_12 
REMARK    7  A    between atoms: C_12  and  C_14 
REMARK    8  A    between atoms: C_14  and  C_15 
REMARK    9  A    between atoms: C_15  and  C_16 
REMARK   10  A    between atoms: C_16  and  O_17 
REMARK   11  A    between atoms: O_17  and  C_18 
ROOT
ATOM      1  C   UNL d   1      29.339 -16.767  -2.118  0.00  0.00     0.179 C 
ATOM      2  S   UNL d   1      30.118 -17.791  -1.012  0.00  0.00    -0.040 SA
ENDROOT
BRANCH   1   3
ATOM      3  N   UNL d   1      29.285 -16.950  -3.545  0.00  0.00    -0.326 N 
ATOM      4  H   UNL d   1      29.184 -17.886  -3.931  0.00  0.00     0.169 HD
BRANCH   3   5
ATOM      5  C   UNL d   1      29.335 -15.922  -4.561  0.00  0.00     0.093 A 
ATOM      6  C   UNL d   1      28.319 -15.136  -5.146  0.00  0.00     0.080 A 
ATOM      7  C   UNL d   1      28.866 -14.234  -6.185  0.00  0.00    -0.026 A 
ATOM      8  C   UNL d   1      30.231 -14.350  -6.304  0.00  0.00    -0.008 A 
ATOM      9  C   UNL d   1      28.158 -13.228  -7.043  0.00  0.00     0.041 C 
ATOM     10  S   UNL d   1      30.825 -15.490  -5.272  0.00  0.00    -0.075 SA
ATOM     11  C   UNL d   1      31.158 -13.634  -7.238  0.00  0.00     0.047 C 
ATOM     12  C   UNL d   1      30.441 -12.466  -7.909  0.00  0.00     0.005 C 
ATOM     13  C   UNL d   1      29.002 -12.847  -8.280  0.00  0.00     0.005 C 
BRANCH   6  14
ATOM     14  C   UNL d   1      26.913 -15.205  -4.742  0.00  0.00     0.296 C 
ATOM     15  O   UNL d   1      26.043 -15.697  -5.464  0.00  0.00    -0.259 OA
BRANCH  14  16
ATOM     16  O   UNL d   1      26.655 -14.636  -3.523  0.00  0.00    -0.318 OA
BRANCH  16  17
ATOM     17  C   UNL d   1      25.479 -13.807  -3.469  0.00  0.00     0.174 C 
ATOM     18  C   UNL d   1      25.512 -12.784  -4.596  0.00  0.00     0.034 C 
ENDBRANCH  16  17
ENDBRANCH  14  16
ENDBRANCH   6  14
ENDBRANCH   3   5
ENDBRANCH   1   3
BRANCH   1  19
ATOM     19  N   UNL d   1      28.652 -15.610  -1.617  0.00  0.00    -0.304 N 
ATOM     20  C   UNL d   1      29.213 -14.741  -0.652  0.00  0.00     0.223 C 
ATOM     21  O   UNL d   1      30.329 -14.891  -0.148  0.00  0.00    -0.273 OA
ATOM     22  H   UNL d   1      27.729 -15.391  -1.965  0.00  0.00     0.171 HD
BRANCH  20  23
ATOM     23  C   UNL d   1      28.459 -13.523  -0.148  0.00  0.00     0.105 C 
BRANCH  23  24
ATOM     24  C   UNL d   1      26.945 -13.736  -0.484  0.00  0.00     0.036 C 
BRANCH  24  25
ATOM     25  C   UNL d   1      26.353 -15.004   0.107  0.00  0.00     0.176 C 
BRANCH  25  26
ATOM     26  O   UNL d   1      26.028 -15.905  -0.961  0.00  0.00    -0.349 OA
BRANCH  26  27
ATOM     27  C   UNL d   1      24.910 -16.671  -0.736  0.00  0.00     0.090 A 
ATOM     28  C   UNL d   1      23.633 -16.234  -1.102  0.00  0.00     0.040 A 
ATOM     29  C   UNL d   1      22.521 -17.054  -0.895  0.00  0.00     0.026 A 
ATOM     30  C   UNL d   1      22.682 -18.320  -0.336  0.00  0.00     0.035 A 
ATOM     31 CL   UNL d   1      21.303 -19.315  -0.077  0.00  0.00    -0.084 Cl
ATOM     32  C   UNL d   1      23.950 -18.782   0.008  0.00  0.00     0.050 A 
ATOM     33  C   UNL d   1      25.063 -17.961  -0.204  0.00  0.00     0.069 A 
ATOM     34 CL   UNL d   1      26.620 -18.574   0.228  0.00  0.00    -0.081 Cl
ENDBRANCH  26  27
ENDBRANCH  25  26
ENDBRANCH  24  25
ENDBRANCH  23  24
ENDBRANCH  20  23
ENDBRANCH   1  19
TORSDOF 11
ENDMDL
MODEL 7
REMARK VINA RESULT:    -6.701      3.058      7.545
REMARK INTER + INTRA:         -13.730
REMARK INTER:                  -9.982
REMARK INTRA:                  -3.748
REMARK CONF_INDEPENDENT:        3.281
REMARK UNBOUND:                -3.748
REMARK  11 active torsions:
REMARK  status: ('A' for Active; 'I' for Inactive)
REMARK    1  A    between atoms: C_2  and  O_3 
REMARK    2  A    between atoms: O_3  and  C_4 
REMARK    3  A    between atoms: C_4  and  C_6 
REMARK    4  A    between atoms: C_7  and  N_8 
REMARK    5  A    between atoms: N_8  and  C_9 
REMARK    6  A    between atoms: C_9  and  N_11 
REMARK       I    between atoms: N_11  and  C_12 
REMARK    7  A    between atoms: C_12  and  C_14 
REMARK    8  A    between atoms: C_14  and  C_15 
REMARK    9  A    between atoms: C_15  and  C_16 
REMARK   10  A    between atoms: C_16  and  O_17 
REMARK   11  A    between atoms: O_17  and  C_18 
ROOT
ATOM      1  C   UNL d   1      29.655 -16.707  -1.955  0.00  0.00     0.179 C 
ATOM      2  S   UNL d   1      30.218 -17.986  -0.993  0.00  0.00    -0.040 SA
ENDROOT
BRANCH   1   3
ATOM      3  N   UNL d   1      30.165 -16.335  -3.248  0.00  0.00    -0.326 N 
ATOM      4  H   UNL d   1      30.391 -15.361  -3.441  0.00  0.00     0.169 HD
BRANCH   3   5
ATOM      5  C   UNL d   1      30.438 -17.210  -4.366  0.00  0.00     0.093 A 
ATOM      6  C   UNL d   1      30.542 -16.955  -5.750  0.00  0.00     0.080 A 
ATOM      7  C   UNL d   1      30.800 -18.198  -6.511  0.00  0.00    -0.026 A 
ATOM      8  C   UNL d   1      30.913 -19.294  -5.687  0.00  0.00    -0.008 A 
ATOM      9  C   UNL d   1      30.991 -18.391  -7.985  0.00  0.00     0.041 C 
ATOM     10  S   UNL d   1      30.687 -18.879  -4.108  0.00  0.00    -0.075 SA
ATOM     11  C   UNL d   1      31.155 -20.726  -6.055  0.00  0.00     0.047 C 
ATOM     12  C   UNL d   1      31.580 -20.837  -7.516  0.00  0.00     0.005 C 
ATOM     13  C   UNL d   1      30.778 -19.867  -8.394  0.00  0.00     0.005 C 
BRANCH   6  14
ATOM     14  C   UNL d   1      30.431 -15.615  -6.332  0.00  0.00     0.296 C 
ATOM     15  O   UNL d   1      30.687 -15.388  -7.517  0.00  0.00    -0.259 OA
BRANCH  14  16
ATOM     16  O   UNL d   1      30.066 -14.647  -5.436  0.00  0.00    -0.318 OA
BRANCH  16  17
ATOM     17  C   UNL d   1      28.720 -14.155  -5.577  0.00  0.00     0.174 C 
ATOM     18  C   UNL d   1      27.729 -15.205  -5.093  0.00  0.00     0.034 C 
ENDBRANCH  16  17
ENDBRANCH  14  16
ENDBRANCH   6  14
ENDBRANCH   3   5
ENDBRANCH   1   3
BRANCH   1  19
ATOM     19  N   UNL d   1      28.564 -15.910  -1.469  0.00  0.00    -0.304 N 
ATOM     20  C   UNL d   1      28.509 -14.505  -1.622  0.00  0.00     0.223 C 
ATOM     21  O   UNL d   1      29.382 -13.833  -2.176  0.00  0.00    -0.273 OA
ATOM     22  H   UNL d   1      27.790 -16.361  -0.999  0.00  0.00     0.171 HD
BRANCH  20  23
ATOM     23  C   UNL d   1      27.335 -13.695  -1.099  0.00  0.00     0.105 C 
BRANCH  23  24
ATOM     24  C   UNL d   1      26.210 -13.742  -2.187  0.00  0.00     0.036 C 
BRANCH  24  25
ATOM     25  C   UNL d   1      25.578 -15.112  -2.365  0.00  0.00     0.176 C 
BRANCH  25  26
ATOM     26  O   UNL d   1      25.664 -15.826  -1.123  0.00  0.00    -0.349 OA
BRANCH  26  27
ATOM     27  C   UNL d   1      24.572 -16.610  -0.844  0.00  0.00     0.090 A 
ATOM     28  C   UNL d   1      23.272 -16.198  -1.153  0.00  0.00     0.040 A 
ATOM     29  C   UNL d   1      22.185 -17.037  -0.892  0.00  0.00     0.026 A 
ATOM     30  C   UNL d   1      22.395 -18.297  -0.335  0.00  0.00     0.035 A 
ATOM     31 CL   UNL d   1      21.047 -19.315  -0.009  0.00  0.00    -0.084 Cl
ATOM     32  C   UNL d   1      23.685 -18.734  -0.047  0.00  0.00     0.050 A 
ATOM     33  C   UNL d   1      24.772 -17.895  -0.314  0.00  0.00     0.069 A 
ATOM     34 CL   UNL d   1      26.358 -18.478   0.051  0.00  0.00    -0.081 Cl
ENDBRANCH  26  27
ENDBRANCH  25  26
ENDBRANCH  24  25
ENDBRANCH  23  24
ENDBRANCH  20  23
ENDBRANCH   1  19
TORSDOF 11
ENDMDL
MODEL 8
REMARK VINA RESULT:    -6.667      4.560      7.347
REMARK INTER + INTRA:         -13.659
REMARK INTER:                  -9.948
REMARK INTRA:                  -3.710
REMARK CONF_INDEPENDENT:        3.281
REMARK UNBOUND:                -3.710
REMARK  11 active torsions:
REMARK  status: ('A' for Active; 'I' for Inactive)
REMARK    1  A    between atoms: C_2  and  O_3 
REMARK    2  A    between atoms: O_3  and  C_4 
REMARK    3  A    between atoms: C_4  and  C_6 
REMARK    4  A    between atoms: C_7  and  N_8 
REMARK    5  A    between atoms: N_8  and  C_9 
REMARK    6  A    between atoms: C_9  and  N_11 
REMARK       I    between atoms: N_11  and  C_12 
REMARK    7  A    between atoms: C_12  and  C_14 
REMARK    8  A    between atoms: C_14  and  C_15 
REMARK    9  A    between atoms: C_15  and  C_16 
REMARK   10  A    between atoms: C_16  and  O_17 
REMARK   11  A    between atoms: O_17  and  C_18 
ROOT
ATOM      1  C   UNL d   1      30.148 -16.140  -1.065  0.00  0.00     0.179 C 
ATOM      2  S   UNL d   1      31.670 -16.615  -1.647  0.00  0.00    -0.040 SA
ENDROOT
BRANCH   1   3
ATOM      3  N   UNL d   1      28.966 -15.938  -1.861  0.00  0.00    -0.326 N 
ATOM      4  H   UNL d   1      29.041 -15.496  -2.774  0.00  0.00     0.169 HD
BRANCH   3   5
ATOM      5  C   UNL d   1      27.612 -16.321  -1.528  0.00  0.00     0.093 A 
ATOM      6  C   UNL d   1      26.372 -15.965  -2.100  0.00  0.00     0.080 A 
ATOM      7  C   UNL d   1      25.243 -16.593  -1.377  0.00  0.00    -0.026 A 
ATOM      8  C   UNL d   1      25.673 -17.399  -0.349  0.00  0.00    -0.008 A 
ATOM      9  C   UNL d   1      23.770 -16.501  -1.644  0.00  0.00     0.041 C 
ATOM     10  S   UNL d   1      27.316 -17.382  -0.224  0.00  0.00    -0.075 SA
ATOM     11  C   UNL d   1      24.859 -18.195   0.625  0.00  0.00     0.047 C 
ATOM     12  C   UNL d   1      23.403 -18.266   0.172  0.00  0.00     0.005 C 
ATOM     13  C   UNL d   1      22.944 -16.921  -0.407  0.00  0.00     0.005 C 
BRANCH   6  14
ATOM     14  C   UNL d   1      26.246 -15.101  -3.276  0.00  0.00     0.296 C 
ATOM     15  O   UNL d   1      25.152 -14.796  -3.756  0.00  0.00    -0.259 OA
BRANCH  14  16
ATOM     16  O   UNL d   1      27.445 -14.711  -3.811  0.00  0.00    -0.318 OA
BRANCH  16  17
ATOM     17  C   UNL d   1      27.411 -14.372  -5.210  0.00  0.00     0.174 C 
ATOM     18  C   UNL d   1      28.637 -14.938  -5.913  0.00  0.00     0.034 C 
ENDBRANCH  16  17
ENDBRANCH  14  16
ENDBRANCH   6  14
ENDBRANCH   3   5
ENDBRANCH   1   3
BRANCH   1  19
ATOM     19  N   UNL d   1      29.989 -15.922   0.344  0.00  0.00    -0.304 N 
ATOM     20  C   UNL d   1      29.757 -14.643   0.904  0.00  0.00     0.223 C 
ATOM     21  O   UNL d   1      29.675 -13.603   0.247  0.00  0.00    -0.273 OA
ATOM     22  H   UNL d   1      30.036 -16.709   0.977  0.00  0.00     0.171 HD
BRANCH  20  23
ATOM     23  C   UNL d   1      29.588 -14.452   2.401  0.00  0.00     0.105 C 
BRANCH  23  24
ATOM     24  C   UNL d   1      28.087 -14.732   2.745  0.00  0.00     0.036 C 
BRANCH  24  25
ATOM     25  C   UNL d   1      27.388 -13.579   3.446  0.00  0.00     0.176 C 
BRANCH  25  26
ATOM     26  O   UNL d   1      26.311 -13.119   2.618  0.00  0.00    -0.349 OA
BRANCH  26  27
ATOM     27  C   UNL d   1      26.700 -12.673   1.379  0.00  0.00     0.090 A 
ATOM     28  C   UNL d   1      26.635 -13.493   0.249  0.00  0.00     0.040 A 
ATOM     29  C   UNL d   1      27.001 -12.997  -1.006  0.00  0.00     0.026 A 
ATOM     30  C   UNL d   1      27.418 -11.674  -1.137  0.00  0.00     0.035 A 
ATOM     31 CL   UNL d   1      27.876 -11.079  -2.685  0.00  0.00    -0.084 Cl
ATOM     32  C   UNL d   1      27.461 -10.835  -0.027  0.00  0.00     0.050 A 
ATOM     33  C   UNL d   1      27.090 -11.332   1.227  0.00  0.00     0.069 A 
ATOM     34 CL   UNL d   1      27.150 -10.257   2.579  0.00  0.00    -0.081 Cl
ENDBRANCH  26  27
ENDBRANCH  25  26
ENDBRANCH  24  25
ENDBRANCH  23  24
ENDBRANCH  20  23
ENDBRANCH   1  19
TORSDOF 11
ENDMDL
MODEL 9
REMARK VINA RESULT:    -6.275      5.988      8.559
REMARK INTER + INTRA:         -13.620
REMARK INTER:                  -9.556
REMARK INTRA:                  -4.064
REMARK CONF_INDEPENDENT:        3.281
REMARK UNBOUND:                -4.064
REMARK  11 active torsions:
REMARK  status: ('A' for Active; 'I' for Inactive)
REMARK    1  A    between atoms: C_2  and  O_3 
REMARK    2  A    between atoms: O_3  and  C_4 
REMARK    3  A    between atoms: C_4  and  C_6 
REMARK    4  A    between atoms: C_7  and  N_8 
REMARK    5  A    between atoms: N_8  and  C_9 
REMARK    6  A    between atoms: C_9  and  N_11 
REMARK       I    between atoms: N_11  and  C_12 
REMARK    7  A    between atoms: C_12  and  C_14 
REMARK    8  A    between atoms: C_14  and  C_15 
REMARK    9  A    between atoms: C_15  and  C_16 
REMARK   10  A    between atoms: C_16  and  O_17 
REMARK   11  A    between atoms: O_17  and  C_18 
ROOT
ATOM      1  C   UNL d   1      28.615 -12.181  -0.216  0.00  0.00     0.179 C 
ATOM      2  S   UNL d   1      30.099 -12.931   0.121  0.00  0.00    -0.040 SA
ENDROOT
BRANCH   1   3
ATOM      3  N   UNL d   1      27.595 -12.685  -1.097  0.00  0.00    -0.326 N 
ATOM      4  H   UNL d   1      27.283 -12.120  -1.884  0.00  0.00     0.169 HD
BRANCH   3   5
ATOM      5  C   UNL d   1      26.932 -13.968  -1.025  0.00  0.00     0.093 A 
ATOM      6  C   UNL d   1      25.920 -14.543  -1.822  0.00  0.00     0.080 A 
ATOM      7  C   UNL d   1      25.536 -15.883  -1.323  0.00  0.00    -0.026 A 
ATOM      8  C   UNL d   1      26.282 -16.261  -0.231  0.00  0.00    -0.008 A 
ATOM      9  C   UNL d   1      24.523 -16.848  -1.864  0.00  0.00     0.041 C 
ATOM     10  S   UNL d   1      27.346 -15.080   0.202  0.00  0.00    -0.075 SA
ATOM     11  C   UNL d   1      26.198 -17.522   0.573  0.00  0.00     0.047 C 
ATOM     12  C   UNL d   1      25.341 -18.559  -0.146  0.00  0.00     0.005 C 
ATOM     13  C   UNL d   1      24.122 -17.899  -0.804  0.00  0.00     0.005 C 
BRANCH   6  14
ATOM     14  C   UNL d   1      25.354 -13.887  -3.003  0.00  0.00     0.296 C 
ATOM     15  O   UNL d   1      24.800 -14.518  -3.906  0.00  0.00    -0.259 OA
BRANCH  14  16
ATOM     16  O   UNL d   1      25.538 -12.530  -3.028  0.00  0.00    -0.318 OA
BRANCH  16  17
ATOM     17  C   UNL d   1      25.890 -11.983  -4.313  0.00  0.00     0.174 C 
ATOM     18  C   UNL d   1      26.150 -10.488  -4.188  0.00  0.00     0.034 C 
ENDBRANCH  16  17
ENDBRANCH  14  16
ENDBRANCH   6  14
ENDBRANCH   3   5
ENDBRANCH   1   3
BRANCH   1  19
ATOM     19  N   UNL d   1      28.313 -10.935   0.430  0.00  0.00    -0.304 N 
ATOM     20  C   UNL d   1      27.494  -9.942  -0.158  0.00  0.00     0.223 C 
ATOM     21  O   UNL d   1      26.970 -10.044  -1.269  0.00  0.00    -0.273 OA
ATOM     22  H   UNL d   1      28.691 -10.747   1.349  0.00  0.00     0.171 HD
BRANCH  20  23
ATOM     23  C   UNL d   1      27.192  -8.637   0.558  0.00  0.00     0.105 C 
BRANCH  23  24
ATOM     24  C   UNL d   1      25.822  -8.811   1.294  0.00  0.00     0.036 C 
BRANCH  24  25
ATOM     25  C   UNL d   1      25.903  -9.642   2.563  0.00  0.00     0.176 C 
BRANCH  25  26
ATOM     26  O   UNL d   1      27.272 -10.003   2.793  0.00  0.00    -0.349 OA
BRANCH  26  27
ATOM     27  C   UNL d   1      27.442 -11.222   3.402  0.00  0.00     0.090 A 
ATOM     28  C   UNL d   1      27.074 -12.416   2.774  0.00  0.00     0.040 A 
ATOM     29  C   UNL d   1      27.296 -13.643   3.405  0.00  0.00     0.026 A 
ATOM     30  C   UNL d   1      27.901 -13.682   4.660  0.00  0.00     0.035 A 
ATOM     31 CL   UNL d   1      28.159 -15.199   5.430  0.00  0.00    -0.084 Cl
ATOM     32  C   UNL d   1      28.300 -12.505   5.287  0.00  0.00     0.050 A 
ATOM     33  C   UNL d   1      28.081 -11.277   4.652  0.00  0.00     0.069 A 
ATOM     34 CL   UNL d   1      28.597  -9.840   5.460  0.00  0.00    -0.081 Cl
ENDBRANCH  26  27
ENDBRANCH  25  26
ENDBRANCH  24  25
ENDBRANCH  23  24
ENDBRANCH  20  23
ENDBRANCH   1  19
TORSDOF 11
ENDMDL
