MODEL 1
REMARK VINA RESULT:    -8.738      0.000      0.000
REMARK INTER + INTRA:         -11.836
REMARK INTER:                 -10.528
REMARK INTRA:                  -1.308
REMARK CONF_INDEPENDENT:        1.790
REMARK UNBOUND:                -1.308
REMARK  6 active torsions:
REMARK  status: ('A' for Active; 'I' for Inactive)
REMARK    1  A    between atoms: C_2  and  C_4 
REMARK    2  A    between atoms: C_4  and  C_5 
REMARK    3  A    between atoms: C_5  and  C_6 
REMARK       I    between atoms: C_6  and  N_8 
REMARK    4  A    between atoms: N_8  and  N_9 
REMARK       I    between atoms: N_9  and  C_10 
REMARK    5  A    between atoms: C_10  and  C_12 
REMARK    6  A    between atoms: C_17  and  N_18 
ROOT
ATOM      1  N   UNL d   1      23.359 -17.996  -0.863  0.00  0.00    -0.263 N 
ATOM      2  C   UNL d   1      24.670 -17.869  -0.419  0.00  0.00     0.270 C 
ATOM      3  O   UNL d   1      25.151 -18.574   0.468  0.00  0.00    -0.266 OA
ATOM      4  H   UNL d   1      22.966 -17.482  -1.651  0.00  0.00     0.190 HD
ENDROOT
BRANCH   2   5
ATOM      5  C   UNL d   1      25.513 -16.789  -1.044  0.00  0.00     0.036 A 
ATOM      6  C   UNL d   1      26.545 -16.206  -0.305  0.00  0.00     0.019 A 
ATOM      7  C   UNL d   1      27.404 -15.271  -0.898  0.00  0.00     0.027 A 
ATOM      8  C   UNL d   1      27.263 -14.886  -2.240  0.00  0.00     0.067 A 
ATOM      9 CL   UNL d   1      28.415 -13.713  -2.777  0.00  0.00    -0.082 Cl
ATOM     10  C   UNL d   1      26.241 -15.467  -3.004  0.00  0.00     0.125 A 
ATOM     11  C   UNL d   1      25.369 -16.423  -2.402  0.00  0.00     0.054 A 
BRANCH  10  12
ATOM     12  N   UNL d   1      26.045 -15.137  -4.433  0.00  0.00    -0.114 N 
ATOM     13  O   UNL d   1      26.876 -15.582  -5.236  0.00  0.00    -0.532 OA
ATOM     14  O   UNL d   1      25.078 -14.445  -4.774  0.00  0.00    -0.532 OA
ENDBRANCH  10  12
ENDBRANCH   2   5
BRANCH   1  15
ATOM     15  N   UNL d   1      22.486 -18.960  -0.281  0.00  0.00    -0.267 N 
ATOM     16  C   UNL d   1      21.125 -18.866  -0.544  0.00  0.00     0.236 C 
ATOM     17  O   UNL d   1      20.669 -17.981  -1.269  0.00  0.00    -0.272 OA
ATOM     18  H   UNL d   1      22.911 -19.675   0.308  0.00  0.00     0.190 HD
BRANCH  16  19
ATOM     19  C   UNL d   1      20.253 -19.935   0.116  0.00  0.00     0.105 C 
BRANCH  19  20
ATOM     20  C   UNL d   1      19.091 -19.327   0.928  0.00  0.00     0.013 C 
BRANCH  20  21
ATOM     21  C   UNL d   1      18.500 -20.272   1.995  0.00  0.00    -0.022 C 
ATOM     22  C   UNL d   1      18.074 -21.601   1.359  0.00  0.00     0.009 C 
ATOM     23  C   UNL d   1      19.502 -20.555   3.114  0.00  0.00     0.009 C 
ENDBRANCH  20  21
ENDBRANCH  19  20
ENDBRANCH  16  19
ENDBRANCH   1  15
TORSDOF 6
ENDMDL
MODEL 2
REMARK VINA RESULT:    -7.715      1.470      1.689
REMARK INTER + INTRA:         -10.037
REMARK INTER:                  -9.505
REMARK INTRA:                  -0.532
REMARK CONF_INDEPENDENT:        1.790
REMARK UNBOUND:                -0.532
REMARK  6 active torsions:
REMARK  status: ('A' for Active; 'I' for Inactive)
REMARK    1  A    between atoms: C_2  and  C_4 
REMARK    2  A    between atoms: C_4  and  C_5 
REMARK    3  A    between atoms: C_5  and  C_6 
REMARK       I    between atoms: C_6  and  N_8 
REMARK    4  A    between atoms: N_8  and  N_9 
REMARK       I    between atoms: N_9  and  C_10 
REMARK    5  A    between atoms: C_10  and  C_12 
REMARK    6  A    between atoms: C_17  and  N_18 
ROOT
ATOM      1  N   UNL d   1      23.583 -17.776  -0.217  0.00  0.00    -0.263 N 
ATOM      2  C   UNL d   1      23.887 -16.652  -0.977  0.00  0.00     0.270 C 
ATOM      3  O   UNL d   1      23.028 -15.913  -1.458  0.00  0.00    -0.266 OA
ATOM      4  H   UNL d   1      24.276 -18.352   0.260  0.00  0.00     0.190 HD
ENDROOT
BRANCH   2   5
ATOM      5  C   UNL d   1      25.342 -16.365  -1.239  0.00  0.00     0.036 A 
ATOM      6  C   UNL d   1      26.265 -16.475  -0.197  0.00  0.00     0.019 A 
ATOM      7  C   UNL d   1      27.636 -16.311  -0.440  0.00  0.00     0.027 A 
ATOM      8  C   UNL d   1      28.128 -16.029  -1.724  0.00  0.00     0.067 A 
ATOM      9 CL   UNL d   1      29.847 -15.850  -1.811  0.00  0.00    -0.082 Cl
ATOM     10  C   UNL d   1      27.221 -15.925  -2.787  0.00  0.00     0.125 A 
ATOM     11  C   UNL d   1      25.826 -16.099  -2.541  0.00  0.00     0.054 A 
BRANCH  10  12
ATOM     12  N   UNL d   1      27.663 -15.661  -4.174  0.00  0.00    -0.114 N 
ATOM     13  O   UNL d   1      26.783 -15.566  -5.040  0.00  0.00    -0.532 OA
ATOM     14  O   UNL d   1      28.870 -15.544  -4.420  0.00  0.00    -0.532 OA
ENDBRANCH  10  12
ENDBRANCH   2   5
BRANCH   1  15
ATOM     15  N   UNL d   1      22.227 -18.141   0.027  0.00  0.00    -0.267 N 
ATOM     16  C   UNL d   1      21.571 -18.921  -0.916  0.00  0.00     0.236 C 
ATOM     17  O   UNL d   1      22.137 -19.304  -1.941  0.00  0.00    -0.272 OA
ATOM     18  H   UNL d   1      21.804 -17.804   0.891  0.00  0.00     0.190 HD
BRANCH  16  19
ATOM     19  C   UNL d   1      20.120 -19.272  -0.584  0.00  0.00     0.105 C 
BRANCH  19  20
ATOM     20  C   UNL d   1      20.010 -20.493   0.351  0.00  0.00     0.013 C 
BRANCH  20  21
ATOM     21  C   UNL d   1      18.849 -20.414   1.365  0.00  0.00    -0.022 C 
ATOM     22  C   UNL d   1      17.869 -21.575   1.150  0.00  0.00     0.009 C 
ATOM     23  C   UNL d   1      19.356 -20.452   2.806  0.00  0.00     0.009 C 
ENDBRANCH  20  21
ENDBRANCH  19  20
ENDBRANCH  16  19
ENDBRANCH   1  15
TORSDOF 6
ENDMDL
MODEL 3
REMARK VINA RESULT:    -7.146      1.596      1.971
REMARK INTER + INTRA:         -10.262
REMARK INTER:                  -8.936
REMARK INTRA:                  -1.327
REMARK CONF_INDEPENDENT:        1.790
REMARK UNBOUND:                -1.327
REMARK  6 active torsions:
REMARK  status: ('A' for Active; 'I' for Inactive)
REMARK    1  A    between atoms: C_2  and  C_4 
REMARK    2  A    between atoms: C_4  and  C_5 
REMARK    3  A    between atoms: C_5  and  C_6 
REMARK       I    between atoms: C_6  and  N_8 
REMARK    4  A    between atoms: N_8  and  N_9 
REMARK       I    between atoms: N_9  and  C_10 
REMARK    5  A    between atoms: C_10  and  C_12 
REMARK    6  A    between atoms: C_17  and  N_18 
ROOT
ATOM      1  N   UNL d   1      23.285 -17.223  -1.328  0.00  0.00    -0.263 N 
ATOM      2  C   UNL d   1      24.648 -17.072  -1.554  0.00  0.00     0.270 C 
ATOM      3  O   UNL d   1      25.499 -17.806  -1.051  0.00  0.00    -0.266 OA
ATOM      4  H   UNL d   1      22.561 -16.682  -1.799  0.00  0.00     0.190 HD
ENDROOT
BRANCH   2   5
ATOM      5  C   UNL d   1      25.084 -15.929  -2.433  0.00  0.00     0.036 A 
ATOM      6  C   UNL d   1      24.333 -14.751  -2.455  0.00  0.00     0.019 A 
ATOM      7  C   UNL d   1      24.773 -13.640  -3.186  0.00  0.00     0.027 A 
ATOM      8  C   UNL d   1      25.969 -13.667  -3.920  0.00  0.00     0.067 A 
ATOM      9 CL   UNL d   1      26.328 -12.200  -4.764  0.00  0.00    -0.082 Cl
ATOM     10  C   UNL d   1      26.745 -14.834  -3.903  0.00  0.00     0.125 A 
ATOM     11  C   UNL d   1      26.300 -15.964  -3.153  0.00  0.00     0.054 A 
BRANCH  10  12
ATOM     12  N   UNL d   1      28.032 -14.932  -4.626  0.00  0.00    -0.114 N 
ATOM     13  O   UNL d   1      27.997 -15.355  -5.790  0.00  0.00    -0.532 OA
ATOM     14  O   UNL d   1      29.079 -14.596  -4.060  0.00  0.00    -0.532 OA
ENDBRANCH  10  12
ENDBRANCH   2   5
BRANCH   1  15
ATOM     15  N   UNL d   1      22.803 -18.248  -0.464  0.00  0.00    -0.267 N 
ATOM     16  C   UNL d   1      21.443 -18.532  -0.468  0.00  0.00     0.236 C 
ATOM     17  O   UNL d   1      20.661 -17.926  -1.201  0.00  0.00    -0.272 OA
ATOM     18  H   UNL d   1      23.489 -18.724   0.120  0.00  0.00     0.190 HD
BRANCH  16  19
ATOM     19  C   UNL d   1      21.001 -19.644   0.485  0.00  0.00     0.105 C 
BRANCH  19  20
ATOM     20  C   UNL d   1      19.649 -20.264   0.078  0.00  0.00     0.013 C 
BRANCH  20  21
ATOM     21  C   UNL d   1      18.688 -20.522   1.258  0.00  0.00    -0.022 C 
ATOM     22  C   UNL d   1      18.030 -21.902   1.122  0.00  0.00     0.009 C 
ATOM     23  C   UNL d   1      19.413 -20.447   2.601  0.00  0.00     0.009 C 
ENDBRANCH  20  21
ENDBRANCH  19  20
ENDBRANCH  16  19
ENDBRANCH   1  15
TORSDOF 6
ENDMDL
MODEL 4
REMARK VINA RESULT:    -6.169      6.184      7.799
REMARK INTER + INTRA:          -9.271
REMARK INTER:                  -7.959
REMARK INTRA:                  -1.312
REMARK CONF_INDEPENDENT:        1.790
REMARK UNBOUND:                -1.312
REMARK  6 active torsions:
REMARK  status: ('A' for Active; 'I' for Inactive)
REMARK    1  A    between atoms: C_2  and  C_4 
REMARK    2  A    between atoms: C_4  and  C_5 
REMARK    3  A    between atoms: C_5  and  C_6 
REMARK       I    between atoms: C_6  and  N_8 
REMARK    4  A    between atoms: N_8  and  N_9 
REMARK       I    between atoms: N_9  and  C_10 
REMARK    5  A    between atoms: C_10  and  C_12 
REMARK    6  A    between atoms: C_17  and  N_18 
ROOT
ATOM      1  N   UNL d   1      27.631 -13.913   1.959  0.00  0.00    -0.263 N 
ATOM      2  C   UNL d   1      28.153 -13.575   3.202  0.00  0.00     0.270 C 
ATOM      3  O   UNL d   1      28.735 -14.381   3.928  0.00  0.00    -0.266 OA
ATOM      4  H   UNL d   1      27.221 -13.244   1.307  0.00  0.00     0.190 HD
ENDROOT
BRANCH   2   5
ATOM      5  C   UNL d   1      27.956 -12.159   3.677  0.00  0.00     0.036 A 
ATOM      6  C   UNL d   1      28.786 -11.646   4.677  0.00  0.00     0.019 A 
ATOM      7  C   UNL d   1      28.687 -10.303   5.063  0.00  0.00     0.027 A 
ATOM      8  C   UNL d   1      27.760  -9.431   4.471  0.00  0.00     0.067 A 
ATOM      9 CL   UNL d   1      27.788  -7.818   5.096  0.00  0.00    -0.082 Cl
ATOM     10  C   UNL d   1      26.925  -9.922   3.457  0.00  0.00     0.125 A 
ATOM     11  C   UNL d   1      27.030 -11.288   3.059  0.00  0.00     0.054 A 
BRANCH  10  12
ATOM     12  N   UNL d   1      25.943  -9.060   2.763  0.00  0.00    -0.114 N 
ATOM     13  O   UNL d   1      26.258  -7.876   2.581  0.00  0.00    -0.532 OA
ATOM     14  O   UNL d   1      24.864  -9.538   2.392  0.00  0.00    -0.532 OA
ENDBRANCH  10  12
ENDBRANCH   2   5
BRANCH   1  15
ATOM     15  N   UNL d   1      27.731 -15.246   1.468  0.00  0.00    -0.267 N 
ATOM     16  C   UNL d   1      27.020 -15.586   0.325  0.00  0.00     0.236 C 
ATOM     17  O   UNL d   1      26.321 -14.763  -0.268  0.00  0.00    -0.272 OA
ATOM     18  H   UNL d   1      28.326 -15.889   1.989  0.00  0.00     0.190 HD
BRANCH  16  19
ATOM     19  C   UNL d   1      27.178 -17.035  -0.141  0.00  0.00     0.105 C 
BRANCH  19  20
ATOM     20  C   UNL d   1      25.989 -17.921   0.281  0.00  0.00     0.013 C 
BRANCH  20  21
ATOM     21  C   UNL d   1      24.626 -17.464  -0.281  0.00  0.00    -0.022 C 
ATOM     22  C   UNL d   1      24.758 -17.074  -1.759  0.00  0.00     0.009 C 
ATOM     23  C   UNL d   1      23.566 -18.558  -0.148  0.00  0.00     0.009 C 
ENDBRANCH  20  21
ENDBRANCH  19  20
ENDBRANCH  16  19
ENDBRANCH   1  15
TORSDOF 6
ENDMDL
MODEL 5
REMARK VINA RESULT:    -6.167      1.813      2.656
REMARK INTER + INTRA:          -9.218
REMARK INTER:                  -7.957
REMARK INTRA:                  -1.261
REMARK CONF_INDEPENDENT:        1.790
REMARK UNBOUND:                -1.261
REMARK  6 active torsions:
REMARK  status: ('A' for Active; 'I' for Inactive)
REMARK    1  A    between atoms: C_2  and  C_4 
REMARK    2  A    between atoms: C_4  and  C_5 
REMARK    3  A    between atoms: C_5  and  C_6 
REMARK       I    between atoms: C_6  and  N_8 
REMARK    4  A    between atoms: N_8  and  N_9 
REMARK       I    between atoms: N_9  and  C_10 
REMARK    5  A    between atoms: C_10  and  C_12 
REMARK    6  A    between atoms: C_17  and  N_18 
ROOT
ATOM      1  N   UNL d   1      24.519 -16.969  -1.591  0.00  0.00    -0.263 N 
ATOM      2  C   UNL d   1      24.928 -15.782  -2.187  0.00  0.00     0.270 C 
ATOM      3  O   UNL d   1      24.158 -14.854  -2.435  0.00  0.00    -0.266 OA
ATOM      4  H   UNL d   1      25.152 -17.714  -1.301  0.00  0.00     0.190 HD
ENDROOT
BRANCH   2   5
ATOM      5  C   UNL d   1      26.380 -15.661  -2.570  0.00  0.00     0.036 A 
ATOM      6  C   UNL d   1      27.367 -16.049  -1.661  0.00  0.00     0.019 A 
ATOM      7  C   UNL d   1      28.718 -16.040  -2.031  0.00  0.00     0.027 A 
ATOM      8  C   UNL d   1      29.129 -15.643  -3.313  0.00  0.00     0.067 A 
ATOM      9 CL   UNL d   1      30.840 -15.691  -3.567  0.00  0.00    -0.082 Cl
ATOM     10  C   UNL d   1      28.154 -15.262  -4.246  0.00  0.00     0.125 A 
ATOM     11  C   UNL d   1      26.778 -15.277  -3.870  0.00  0.00     0.054 A 
BRANCH  10  12
ATOM     12  N   UNL d   1      28.503 -14.860  -5.626  0.00  0.00    -0.114 N 
ATOM     13  O   UNL d   1      27.718 -15.187  -6.527  0.00  0.00    -0.532 OA
ATOM     14  O   UNL d   1      29.543 -14.223  -5.835  0.00  0.00    -0.532 OA
ENDBRANCH  10  12
ENDBRANCH   2   5
BRANCH   1  15
ATOM     15  N   UNL d   1      23.151 -17.176  -1.250  0.00  0.00    -0.267 N 
ATOM     16  C   UNL d   1      22.756 -18.441  -0.835  0.00  0.00     0.236 C 
ATOM     17  O   UNL d   1      23.559 -19.371  -0.748  0.00  0.00    -0.272 OA
ATOM     18  H   UNL d   1      22.526 -16.376  -1.333  0.00  0.00     0.190 HD
BRANCH  16  19
ATOM     19  C   UNL d   1      21.273 -18.586  -0.487  0.00  0.00     0.105 C 
BRANCH  19  20
ATOM     20  C   UNL d   1      21.024 -19.666   0.585  0.00  0.00     0.013 C 
BRANCH  20  21
ATOM     21  C   UNL d   1      19.676 -20.403   0.442  0.00  0.00    -0.022 C 
ATOM     22  C   UNL d   1      18.932 -20.428   1.784  0.00  0.00     0.009 C 
ATOM     23  C   UNL d   1      18.783 -19.744  -0.609  0.00  0.00     0.009 C 
ENDBRANCH  20  21
ENDBRANCH  19  20
ENDBRANCH  16  19
ENDBRANCH   1  15
TORSDOF 6
ENDMDL
MODEL 6
REMARK VINA RESULT:    -6.103      5.337      6.696
REMARK INTER + INTRA:          -9.246
REMARK INTER:                  -7.892
REMARK INTRA:                  -1.354
REMARK CONF_INDEPENDENT:        1.790
REMARK UNBOUND:                -1.354
REMARK  6 active torsions:
REMARK  status: ('A' for Active; 'I' for Inactive)
REMARK    1  A    between atoms: C_2  and  C_4 
REMARK    2  A    between atoms: C_4  and  C_5 
REMARK    3  A    between atoms: C_5  and  C_6 
REMARK       I    between atoms: C_6  and  N_8 
REMARK    4  A    between atoms: N_8  and  N_9 
REMARK       I    between atoms: N_9  and  C_10 
REMARK    5  A    between atoms: C_10  and  C_12 
REMARK    6  A    between atoms: C_17  and  N_18 
ROOT
ATOM      1  N   UNL d   1      26.756 -14.196   0.106  0.00  0.00    -0.263 N 
ATOM      2  C   UNL d   1      26.992 -13.320   1.159  0.00  0.00     0.270 C 
ATOM      3  O   UNL d   1      27.110 -13.690   2.327  0.00  0.00    -0.266 OA
ATOM      4  H   UNL d   1      26.739 -13.922  -0.877  0.00  0.00     0.190 HD
ENDROOT
BRANCH   2   5
ATOM      5  C   UNL d   1      27.069 -11.851   0.836  0.00  0.00     0.036 A 
ATOM      6  C   UNL d   1      27.446 -11.446  -0.446  0.00  0.00     0.019 A 
ATOM      7  C   UNL d   1      27.429 -10.090  -0.798  0.00  0.00     0.027 A 
ATOM      8  C   UNL d   1      27.039  -9.096   0.114  0.00  0.00     0.067 A 
ATOM      9 CL   UNL d   1      27.097  -7.484  -0.511  0.00  0.00    -0.082 Cl
ATOM     10  C   UNL d   1      26.645  -9.481   1.403  0.00  0.00     0.125 A 
ATOM     11  C   UNL d   1      26.657 -10.863   1.759  0.00  0.00     0.054 A 
BRANCH  10  12
ATOM     12  N   UNL d   1      26.192  -8.499   2.412  0.00  0.00    -0.114 N 
ATOM     13  O   UNL d   1      25.530  -7.533   2.005  0.00  0.00    -0.532 OA
ATOM     14  O   UNL d   1      26.479  -8.667   3.603  0.00  0.00    -0.532 OA
ENDBRANCH  10  12
ENDBRANCH   2   5
BRANCH   1  15
ATOM     15  N   UNL d   1      26.617 -15.594   0.342  0.00  0.00    -0.267 N 
ATOM     16  C   UNL d   1      26.155 -16.398  -0.692  0.00  0.00     0.236 C 
ATOM     17  O   UNL d   1      25.877 -15.930  -1.797  0.00  0.00    -0.272 OA
ATOM     18  H   UNL d   1      26.864 -15.935   1.270  0.00  0.00     0.190 HD
BRANCH  16  19
ATOM     19  C   UNL d   1      26.032 -17.887  -0.363  0.00  0.00     0.105 C 
BRANCH  19  20
ATOM     20  C   UNL d   1      24.646 -18.250   0.209  0.00  0.00     0.013 C 
BRANCH  20  21
ATOM     21  C   UNL d   1      23.473 -17.987  -0.759  0.00  0.00    -0.022 C 
ATOM     22  C   UNL d   1      22.393 -19.065  -0.598  0.00  0.00     0.009 C 
ATOM     23  C   UNL d   1      22.844 -16.615  -0.520  0.00  0.00     0.009 C 
ENDBRANCH  20  21
ENDBRANCH  19  20
ENDBRANCH  16  19
ENDBRANCH   1  15
TORSDOF 6
ENDMDL
MODEL 7
REMARK VINA RESULT:    -6.059      4.539      9.053
REMARK INTER + INTRA:          -9.178
REMARK INTER:                  -7.849
REMARK INTRA:                  -1.330
REMARK CONF_INDEPENDENT:        1.790
REMARK UNBOUND:                -1.330
REMARK  6 active torsions:
REMARK  status: ('A' for Active; 'I' for Inactive)
REMARK    1  A    between atoms: C_2  and  C_4 
REMARK    2  A    between atoms: C_4  and  C_5 
REMARK    3  A    between atoms: C_5  and  C_6 
REMARK       I    between atoms: C_6  and  N_8 
REMARK    4  A    between atoms: N_8  and  N_9 
REMARK       I    between atoms: N_9  and  C_10 
REMARK    5  A    between atoms: C_10  and  C_12 
REMARK    6  A    between atoms: C_17  and  N_18 
ROOT
ATOM      1  N   UNL d   1      25.769 -12.958  -3.286  0.00  0.00    -0.263 N 
ATOM      2  C   UNL d   1      25.185 -14.202  -3.495  0.00  0.00     0.270 C 
ATOM      3  O   UNL d   1      24.457 -14.449  -4.457  0.00  0.00    -0.266 OA
ATOM      4  H   UNL d   1      26.440 -12.755  -2.545  0.00  0.00     0.190 HD
ENDROOT
BRANCH   2   5
ATOM      5  C   UNL d   1      25.442 -15.271  -2.466  0.00  0.00     0.036 A 
ATOM      6  C   UNL d   1      26.702 -15.369  -1.873  0.00  0.00     0.019 A 
ATOM      7  C   UNL d   1      26.935 -16.290  -0.843  0.00  0.00     0.027 A 
ATOM      8  C   UNL d   1      25.923 -17.143  -0.375  0.00  0.00     0.067 A 
ATOM      9 CL   UNL d   1      26.415 -18.214   0.892  0.00  0.00    -0.082 Cl
ATOM     10  C   UNL d   1      24.647 -17.054  -0.947  0.00  0.00     0.125 A 
ATOM     11  C   UNL d   1      24.409 -16.112  -1.992  0.00  0.00     0.054 A 
BRANCH  10  12
ATOM     12  N   UNL d   1      23.520 -17.896  -0.489  0.00  0.00    -0.114 N 
ATOM     13  O   UNL d   1      22.453 -17.322  -0.229  0.00  0.00    -0.532 OA
ATOM     14  O   UNL d   1      23.673 -19.119  -0.382  0.00  0.00    -0.532 OA
ENDBRANCH  10  12
ENDBRANCH   2   5
BRANCH   1  15
ATOM     15  N   UNL d   1      25.527 -11.882  -4.188  0.00  0.00    -0.267 N 
ATOM     16  C   UNL d   1      26.311 -10.740  -4.082  0.00  0.00     0.236 C 
ATOM     17  O   UNL d   1      27.204 -10.647  -3.239  0.00  0.00    -0.272 OA
ATOM     18  H   UNL d   1      24.781 -12.007  -4.870  0.00  0.00     0.190 HD
BRANCH  16  19
ATOM     19  C   UNL d   1      25.992  -9.628  -5.084  0.00  0.00     0.105 C 
BRANCH  19  20
ATOM     20  C   UNL d   1      24.769  -8.789  -4.662  0.00  0.00     0.013 C 
BRANCH  20  21
ATOM     21  C   UNL d   1      23.986  -8.171  -5.839  0.00  0.00    -0.022 C 
ATOM     22  C   UNL d   1      22.823  -7.316  -5.321  0.00  0.00     0.009 C 
ATOM     23  C   UNL d   1      24.886  -7.304  -6.720  0.00  0.00     0.009 C 
ENDBRANCH  20  21
ENDBRANCH  19  20
ENDBRANCH  16  19
ENDBRANCH   1  15
TORSDOF 6
ENDMDL
MODEL 8
REMARK VINA RESULT:    -6.051      2.383      3.554
REMARK INTER + INTRA:          -9.206
REMARK INTER:                  -7.840
REMARK INTRA:                  -1.365
REMARK CONF_INDEPENDENT:        1.790
REMARK UNBOUND:                -1.365
REMARK  6 active torsions:
REMARK  status: ('A' for Active; 'I' for Inactive)
REMARK    1  A    between atoms: C_2  and  C_4 
REMARK    2  A    between atoms: C_4  and  C_5 
REMARK    3  A    between atoms: C_5  and  C_6 
REMARK       I    between atoms: C_6  and  N_8 
REMARK    4  A    between atoms: N_8  and  N_9 
REMARK       I    between atoms: N_9  and  C_10 
REMARK    5  A    between atoms: C_10  and  C_12 
REMARK    6  A    between atoms: C_17  and  N_18 
ROOT
ATOM      1  N   UNL d   1      24.744 -16.056  -1.994  0.00  0.00    -0.263 N 
ATOM      2  C   UNL d   1      24.410 -14.946  -2.761  0.00  0.00     0.270 C 
ATOM      3  O   UNL d   1      23.283 -14.450  -2.771  0.00  0.00    -0.266 OA
ATOM      4  H   UNL d   1      25.688 -16.431  -1.906  0.00  0.00     0.190 HD
ENDROOT
BRANCH   2   5
ATOM      5  C   UNL d   1      25.485 -14.359  -3.638  0.00  0.00     0.036 A 
ATOM      6  C   UNL d   1      25.605 -12.972  -3.748  0.00  0.00     0.019 A 
ATOM      7  C   UNL d   1      26.657 -12.404  -4.478  0.00  0.00     0.027 A 
ATOM      8  C   UNL d   1      27.620 -13.197  -5.122  0.00  0.00     0.067 A 
ATOM      9 CL   UNL d   1      28.829 -12.305  -5.980  0.00  0.00    -0.082 Cl
ATOM     10  C   UNL d   1      27.526 -14.592  -5.016  0.00  0.00     0.125 A 
ATOM     11  C   UNL d   1      26.457 -15.170  -4.268  0.00  0.00     0.054 A 
BRANCH  10  12
ATOM     12  N   UNL d   1      28.517 -15.495  -5.640  0.00  0.00    -0.114 N 
ATOM     13  O   UNL d   1      29.131 -16.267  -4.890  0.00  0.00    -0.532 OA
ATOM     14  O   UNL d   1      28.698 -15.454  -6.863  0.00  0.00    -0.532 OA
ENDBRANCH  10  12
ENDBRANCH   2   5
BRANCH   1  15
ATOM     15  N   UNL d   1      23.765 -16.697  -1.182  0.00  0.00    -0.267 N 
ATOM     16  C   UNL d   1      24.119 -17.861  -0.511  0.00  0.00     0.236 C 
ATOM     17  O   UNL d   1      25.253 -18.336  -0.599  0.00  0.00    -0.272 OA
ATOM     18  H   UNL d   1      22.844 -16.264  -1.136  0.00  0.00     0.190 HD
BRANCH  16  19
ATOM     19  C   UNL d   1      23.016 -18.491   0.341  0.00  0.00     0.105 C 
BRANCH  19  20
ATOM     20  C   UNL d   1      22.017 -19.309  -0.502  0.00  0.00     0.013 C 
BRANCH  20  21
ATOM     21  C   UNL d   1      20.565 -19.271   0.020  0.00  0.00    -0.022 C 
ATOM     22  C   UNL d   1      19.573 -19.334  -1.149  0.00  0.00     0.009 C 
ATOM     23  C   UNL d   1      20.280 -20.428   0.977  0.00  0.00     0.009 C 
ENDBRANCH  20  21
ENDBRANCH  19  20
ENDBRANCH  16  19
ENDBRANCH   1  15
TORSDOF 6
ENDMDL
