MODEL 1
REMARK VINA RESULT:    -9.845      0.000      0.000
REMARK INTER + INTRA:         -17.294
REMARK INTER:                 -14.021
REMARK INTRA:                  -3.273
REMARK CONF_INDEPENDENT:        4.176
REMARK UNBOUND:                -3.273
REMARK  14 active torsions:
REMARK  status: ('A' for Active; 'I' for Inactive)
REMARK    1  A    between atoms: C_2  and  C_3 
REMARK    2  A    between atoms: C_3  and  C_4 
REMARK    3  A    between atoms: C_4  and  O_5 
REMARK    4  A    between atoms: O_5  and  C_6 
REMARK    5  A    between atoms: C_9  and  C_10 
REMARK    6  A    between atoms: C_10  and  O_12 
REMARK    7  A    between atoms: O_12  and  C_13 
REMARK    8  A    between atoms: C_16  and  C_17 
REMARK    9  A    between atoms: N_18  and  N_19 
REMARK       I    between atoms: N_19  and  C_20 
REMARK   10  A    between atoms: C_20  and  C_22 
REMARK   11  A    between atoms: C_22  and  O_23 
REMARK   12  A    between atoms: O_23  and  C_24 
REMARK   13  A    between atoms: C_29  and  N_30 
REMARK   14  A    between atoms: C_34  and  O_35 
ROOT
ATOM      1  C   UNL d   1      27.023 -15.713  -0.235  0.00  0.00     0.112 A 
ATOM      2  C   UNL d   1      27.564 -15.523   1.054  0.00  0.00     0.041 A 
ATOM      3  C   UNL d   1      27.601 -14.241   1.652  0.00  0.00     0.016 A 
ATOM      4  C   UNL d   1      27.158 -13.126   0.938  0.00  0.00    -0.014 A 
ATOM      5  C   UNL d   1      26.586 -13.331  -0.329  0.00  0.00     0.052 A 
ATOM      6  C   UNL d   1      26.485 -14.614  -0.924  0.00  0.00     0.102 A 
ENDROOT
BRANCH   4   7
ATOM      7  C   UNL d   1      27.328 -11.740   1.496  0.00  0.00     0.150 C 
ATOM      8  N   UNL d   1      26.739 -11.390   2.598  0.00  0.00    -0.184 NA
BRANCH   8   9
ATOM      9  N   UNL d   1      26.897 -10.113   3.089  0.00  0.00    -0.246 N 
ATOM     10  C   UNL d   1      27.555  -9.959   4.321  0.00  0.00     0.261 C 
ATOM     11  O   UNL d   1      27.951 -10.905   5.003  0.00  0.00    -0.269 OA
ATOM     12  H   UNL d   1      26.474  -9.327   2.606  0.00  0.00     0.192 HD
BRANCH  10  13
ATOM     13  C   UNL d   1      27.749  -8.493   4.767  0.00  0.00     0.280 C 
BRANCH  13  14
ATOM     14  O   UNL d   1      27.063  -7.593   3.887  0.00  0.00    -0.340 OA
BRANCH  14  15
ATOM     15  C   UNL d   1      27.569  -7.291   2.651  0.00  0.00     0.102 A 
ATOM     16  C   UNL d   1      28.868  -6.726   2.693  0.00  0.00     0.039 A 
ATOM     17  C   UNL d   1      29.493  -6.207   1.546  0.00  0.00     0.003 A 
ATOM     18  C   UNL d   1      28.860  -6.294   0.317  0.00  0.00     0.003 A 
ATOM     19  C   UNL d   1      27.583  -6.841   0.249  0.00  0.00     0.039 A 
ATOM     20  C   UNL d   1      26.921  -7.314   1.407  0.00  0.00     0.136 A 
BRANCH  20  21
ATOM     21  N   UNL d   1      25.529  -7.730   1.196  0.00  0.00    -0.113 N 
ATOM     22  O   UNL d   1      24.784  -6.920   0.616  0.00  0.00    -0.532 OA
ATOM     23  O   UNL d   1      25.150  -8.824   1.613  0.00  0.00    -0.532 OA
ENDBRANCH  20  21
ENDBRANCH  14  15
ENDBRANCH  13  14
ENDBRANCH  10  13
ENDBRANCH   8   9
ENDBRANCH   4   7
BRANCH   6  24
ATOM     24  O   UNL d   1      25.839 -14.566  -2.129  0.00  0.00    -0.353 OA
ATOM     25  C   UNL d   1      25.865 -13.397  -2.924  0.00  0.00     0.210 C 
ENDBRANCH   6  24
BRANCH   1  26
ATOM     26  O   UNL d   1      26.938 -17.058  -0.695  0.00  0.00    -0.272 OA
BRANCH  26  27
ATOM     27  C   UNL d   1      26.167 -17.964   0.042  0.00  0.00     0.298 C 
ATOM     28  O   UNL d   1      26.600 -18.837   0.770  0.00  0.00    -0.259 OA
BRANCH  27  29
ATOM     29  C   UNL d   1      24.706 -17.874  -0.344  0.00  0.00     0.040 A 
ATOM     30  C   UNL d   1      23.955 -19.055  -0.520  0.00  0.00     0.020 A 
ATOM     31  C   UNL d   1      22.580 -19.003  -0.815  0.00  0.00     0.038 A 
ATOM     32  C   UNL d   1      21.923 -17.775  -0.895  0.00  0.00     0.068 A 
ATOM     33  C   UNL d   1      22.677 -16.604  -0.789  0.00  0.00     0.038 A 
ATOM     34  C   UNL d   1      24.064 -16.652  -0.549  0.00  0.00     0.020 A 
BRANCH  32  35
ATOM     35  O   UNL d   1      20.555 -17.825  -0.954  0.00  0.00    -0.351 OA
BRANCH  35  36
ATOM     36  C   UNL d   1      19.960 -19.124  -0.887  0.00  0.00     0.175 C 
BRANCH  36  37
ATOM     37  C   UNL d   1      19.549 -19.420   0.556  0.00  0.00     0.026 C 
BRANCH  37  38
ATOM     38  C   UNL d   1      19.392 -20.923   0.786  0.00  0.00    -0.002 C 
ATOM     39  C   UNL d   1      17.936 -21.348   0.716  0.00  0.00     0.005 C 
ENDBRANCH  37  38
ENDBRANCH  36  37
ENDBRANCH  35  36
ENDBRANCH  32  35
ENDBRANCH  27  29
ENDBRANCH  26  27
ENDBRANCH   1  26
TORSDOF 14
ENDMDL
MODEL 2
REMARK VINA RESULT:    -9.223      1.512      2.024
REMARK INTER + INTRA:         -16.850
REMARK INTER:                 -13.399
REMARK INTRA:                  -3.452
REMARK CONF_INDEPENDENT:        4.176
REMARK UNBOUND:                -3.452
REMARK  14 active torsions:
REMARK  status: ('A' for Active; 'I' for Inactive)
REMARK    1  A    between atoms: C_2  and  C_3 
REMARK    2  A    between atoms: C_3  and  C_4 
REMARK    3  A    between atoms: C_4  and  O_5 
REMARK    4  A    between atoms: O_5  and  C_6 
REMARK    5  A    between atoms: C_9  and  C_10 
REMARK    6  A    between atoms: C_10  and  O_12 
REMARK    7  A    between atoms: O_12  and  C_13 
REMARK    8  A    between atoms: C_16  and  C_17 
REMARK    9  A    between atoms: N_18  and  N_19 
REMARK       I    between atoms: N_19  and  C_20 
REMARK   10  A    between atoms: C_20  and  C_22 
REMARK   11  A    between atoms: C_22  and  O_23 
REMARK   12  A    between atoms: O_23  and  C_24 
REMARK   13  A    between atoms: C_29  and  N_30 
REMARK   14  A    between atoms: C_34  and  O_35 
ROOT
ATOM      1  C   UNL d   1      26.941 -15.772  -0.557  0.00  0.00     0.112 A 
ATOM      2  C   UNL d   1      27.527 -15.321   0.645  0.00  0.00     0.041 A 
ATOM      3  C   UNL d   1      27.614 -13.942   0.947  0.00  0.00     0.016 A 
ATOM      4  C   UNL d   1      27.174 -12.996   0.017  0.00  0.00    -0.014 A 
ATOM      5  C   UNL d   1      26.558 -13.455  -1.159  0.00  0.00     0.052 A 
ATOM      6  C   UNL d   1      26.407 -14.834  -1.455  0.00  0.00     0.102 A 
ENDROOT
BRANCH   4   7
ATOM      7  C   UNL d   1      27.395 -11.528   0.254  0.00  0.00     0.150 C 
ATOM      8  N   UNL d   1      28.286 -11.118   1.102  0.00  0.00    -0.184 NA
BRANCH   8   9
ATOM      9  N   UNL d   1      28.468  -9.769   1.315  0.00  0.00    -0.246 N 
ATOM     10  C   UNL d   1      29.691  -9.200   0.919  0.00  0.00     0.261 C 
ATOM     11  O   UNL d   1      30.621  -9.851   0.442  0.00  0.00    -0.269 OA
ATOM     12  H   UNL d   1      27.765  -9.235   1.815  0.00  0.00     0.192 HD
BRANCH  10  13
ATOM     13  C   UNL d   1      29.787  -7.673   1.132  0.00  0.00     0.280 C 
BRANCH  13  14
ATOM     14  O   UNL d   1      28.538  -7.138   1.587  0.00  0.00    -0.340 OA
BRANCH  14  15
ATOM     15  C   UNL d   1      27.437  -7.120   0.773  0.00  0.00     0.102 A 
ATOM     16  C   UNL d   1      27.588  -6.290  -0.366  0.00  0.00     0.039 A 
ATOM     17  C   UNL d   1      26.519  -6.019  -1.237  0.00  0.00     0.003 A 
ATOM     18  C   UNL d   1      25.288  -6.618  -1.026  0.00  0.00     0.003 A 
ATOM     19  C   UNL d   1      25.114  -7.435   0.087  0.00  0.00     0.039 A 
ATOM     20  C   UNL d   1      26.167  -7.669   1.002  0.00  0.00     0.136 A 
BRANCH  20  21
ATOM     21  N   UNL d   1      25.788  -8.434   2.196  0.00  0.00    -0.113 N 
ATOM     22  O   UNL d   1      24.780  -9.156   2.104  0.00  0.00    -0.532 OA
ATOM     23  O   UNL d   1      26.448  -8.317   3.230  0.00  0.00    -0.532 OA
ENDBRANCH  20  21
ENDBRANCH  14  15
ENDBRANCH  13  14
ENDBRANCH  10  13
ENDBRANCH   8   9
ENDBRANCH   4   7
BRANCH   6  24
ATOM     24  O   UNL d   1      25.724 -15.030  -2.625  0.00  0.00    -0.353 OA
ATOM     25  C   UNL d   1      24.960 -13.992  -3.206  0.00  0.00     0.210 C 
ENDBRANCH   6  24
BRANCH   1  26
ATOM     26  O   UNL d   1      26.810 -17.181  -0.709  0.00  0.00    -0.272 OA
BRANCH  26  27
ATOM     27  C   UNL d   1      25.987 -17.872   0.189  0.00  0.00     0.298 C 
ATOM     28  O   UNL d   1      26.369 -18.579   1.102  0.00  0.00    -0.259 OA
BRANCH  27  29
ATOM     29  C   UNL d   1      24.538 -17.814  -0.247  0.00  0.00     0.040 A 
ATOM     30  C   UNL d   1      23.836 -19.010  -0.500  0.00  0.00     0.020 A 
ATOM     31  C   UNL d   1      22.471 -18.991  -0.842  0.00  0.00     0.038 A 
ATOM     32  C   UNL d   1      21.775 -17.783  -0.893  0.00  0.00     0.068 A 
ATOM     33  C   UNL d   1      22.484 -16.593  -0.710  0.00  0.00     0.038 A 
ATOM     34  C   UNL d   1      23.861 -16.605  -0.422  0.00  0.00     0.020 A 
BRANCH  32  35
ATOM     35  O   UNL d   1      20.412 -17.875  -1.005  0.00  0.00    -0.351 OA
BRANCH  35  36
ATOM     36  C   UNL d   1      19.836 -19.157  -0.739  0.00  0.00     0.175 C 
BRANCH  36  37
ATOM     37  C   UNL d   1      19.749 -19.370   0.773  0.00  0.00     0.026 C 
BRANCH  37  38
ATOM     38  C   UNL d   1      19.407 -20.823   1.105  0.00  0.00    -0.002 C 
ATOM     39  C   UNL d   1      18.027 -21.200   0.595  0.00  0.00     0.005 C 
ENDBRANCH  37  38
ENDBRANCH  36  37
ENDBRANCH  35  36
ENDBRANCH  32  35
ENDBRANCH  27  29
ENDBRANCH  26  27
ENDBRANCH   1  26
TORSDOF 14
ENDMDL
MODEL 3
REMARK VINA RESULT:    -8.955      1.492      2.344
REMARK INTER + INTRA:         -16.564
REMARK INTER:                 -13.131
REMARK INTRA:                  -3.433
REMARK CONF_INDEPENDENT:        4.176
REMARK UNBOUND:                -3.433
REMARK  14 active torsions:
REMARK  status: ('A' for Active; 'I' for Inactive)
REMARK    1  A    between atoms: C_2  and  C_3 
REMARK    2  A    between atoms: C_3  and  C_4 
REMARK    3  A    between atoms: C_4  and  O_5 
REMARK    4  A    between atoms: O_5  and  C_6 
REMARK    5  A    between atoms: C_9  and  C_10 
REMARK    6  A    between atoms: C_10  and  O_12 
REMARK    7  A    between atoms: O_12  and  C_13 
REMARK    8  A    between atoms: C_16  and  C_17 
REMARK    9  A    between atoms: N_18  and  N_19 
REMARK       I    between atoms: N_19  and  C_20 
REMARK   10  A    between atoms: C_20  and  C_22 
REMARK   11  A    between atoms: C_22  and  O_23 
REMARK   12  A    between atoms: O_23  and  C_24 
REMARK   13  A    between atoms: C_29  and  N_30 
REMARK   14  A    between atoms: C_34  and  O_35 
ROOT
ATOM      1  C   UNL d   1      26.908 -15.908  -0.580  0.00  0.00     0.112 A 
ATOM      2  C   UNL d   1      27.323 -15.551   0.721  0.00  0.00     0.041 A 
ATOM      3  C   UNL d   1      27.358 -14.199   1.135  0.00  0.00     0.016 A 
ATOM      4  C   UNL d   1      27.041 -13.185   0.228  0.00  0.00    -0.014 A 
ATOM      5  C   UNL d   1      26.593 -13.551  -1.052  0.00  0.00     0.052 A 
ATOM      6  C   UNL d   1      26.494 -14.903  -1.469  0.00  0.00     0.102 A 
ENDROOT
BRANCH   4   7
ATOM      7  C   UNL d   1      27.217 -11.739   0.602  0.00  0.00     0.150 C 
ATOM      8  N   UNL d   1      27.417 -10.836  -0.308  0.00  0.00    -0.184 NA
BRANCH   8   9
ATOM      9  N   UNL d   1      27.588  -9.518   0.052  0.00  0.00    -0.246 N 
ATOM     10  C   UNL d   1      28.697  -8.832  -0.471  0.00  0.00     0.261 C 
ATOM     11  O   UNL d   1      29.545  -9.360  -1.191  0.00  0.00    -0.269 OA
ATOM     12  H   UNL d   1      26.971  -9.095   0.738  0.00  0.00     0.192 HD
BRANCH  10  13
ATOM     13  C   UNL d   1      28.777  -7.342  -0.071  0.00  0.00     0.280 C 
BRANCH  13  14
ATOM     14  O   UNL d   1      27.952  -7.071   1.068  0.00  0.00    -0.340 OA
BRANCH  14  15
ATOM     15  C   UNL d   1      28.124  -7.750   2.245  0.00  0.00     0.102 A 
ATOM     16  C   UNL d   1      29.465  -7.753   2.706  0.00  0.00     0.039 A 
ATOM     17  C   UNL d   1      29.872  -8.523   3.808  0.00  0.00     0.003 A 
ATOM     18  C   UNL d   1      28.938  -9.263   4.516  0.00  0.00     0.003 A 
ATOM     19  C   UNL d   1      27.616  -9.279   4.082  0.00  0.00     0.039 A 
ATOM     20  C   UNL d   1      27.207  -8.552   2.938  0.00  0.00     0.136 A 
BRANCH  20  21
ATOM     21  N   UNL d   1      25.818  -8.783   2.526  0.00  0.00    -0.113 N 
ATOM     22  O   UNL d   1      25.151  -9.575   3.215  0.00  0.00    -0.532 OA
ATOM     23  O   UNL d   1      25.378  -8.220   1.523  0.00  0.00    -0.532 OA
ENDBRANCH  20  21
ENDBRANCH  14  15
ENDBRANCH  13  14
ENDBRANCH  10  13
ENDBRANCH   8   9
ENDBRANCH   4   7
BRANCH   6  24
ATOM     24  O   UNL d   1      25.977 -15.009  -2.732  0.00  0.00    -0.353 OA
ATOM     25  C   UNL d   1      25.466 -13.876  -3.407  0.00  0.00     0.210 C 
ENDBRANCH   6  24
BRANCH   1  26
ATOM     26  O   UNL d   1      26.809 -17.302  -0.854  0.00  0.00    -0.272 OA
BRANCH  26  27
ATOM     27  C   UNL d   1      26.018 -18.089  -0.010  0.00  0.00     0.298 C 
ATOM     28  O   UNL d   1      26.431 -18.898   0.799  0.00  0.00    -0.259 OA
BRANCH  27  29
ATOM     29  C   UNL d   1      24.554 -17.978  -0.378  0.00  0.00     0.040 A 
ATOM     30  C   UNL d   1      23.757 -19.140  -0.438  0.00  0.00     0.020 A 
ATOM     31  C   UNL d   1      22.379 -19.062  -0.713  0.00  0.00     0.038 A 
ATOM     32  C   UNL d   1      21.766 -17.821  -0.886  0.00  0.00     0.068 A 
ATOM     33  C   UNL d   1      22.563 -16.675  -0.895  0.00  0.00     0.038 A 
ATOM     34  C   UNL d   1      23.952 -16.754  -0.675  0.00  0.00     0.020 A 
BRANCH  32  35
ATOM     35  O   UNL d   1      20.395 -17.824  -0.918  0.00  0.00    -0.351 OA
BRANCH  35  36
ATOM     36  C   UNL d   1      19.757 -19.098  -0.789  0.00  0.00     0.175 C 
BRANCH  36  37
ATOM     37  C   UNL d   1      19.443 -19.361   0.685  0.00  0.00     0.026 C 
BRANCH  37  38
ATOM     38  C   UNL d   1      19.443 -20.859   0.988  0.00  0.00    -0.002 C 
ATOM     39  C   UNL d   1      18.038 -21.435   0.941  0.00  0.00     0.005 C 
ENDBRANCH  37  38
ENDBRANCH  36  37
ENDBRANCH  35  36
ENDBRANCH  32  35
ENDBRANCH  27  29
ENDBRANCH  26  27
ENDBRANCH   1  26
TORSDOF 14
ENDMDL
MODEL 4
REMARK VINA RESULT:    -8.785      7.006     10.321
REMARK INTER + INTRA:         -16.251
REMARK INTER:                 -12.961
REMARK INTRA:                  -3.290
REMARK CONF_INDEPENDENT:        4.176
REMARK UNBOUND:                -3.290
REMARK  14 active torsions:
REMARK  status: ('A' for Active; 'I' for Inactive)
REMARK    1  A    between atoms: C_2  and  C_3 
REMARK    2  A    between atoms: C_3  and  C_4 
REMARK    3  A    between atoms: C_4  and  O_5 
REMARK    4  A    between atoms: O_5  and  C_6 
REMARK    5  A    between atoms: C_9  and  C_10 
REMARK    6  A    between atoms: C_10  and  O_12 
REMARK    7  A    between atoms: O_12  and  C_13 
REMARK    8  A    between atoms: C_16  and  C_17 
REMARK    9  A    between atoms: N_18  and  N_19 
REMARK       I    between atoms: N_19  and  C_20 
REMARK   10  A    between atoms: C_20  and  C_22 
REMARK   11  A    between atoms: C_22  and  O_23 
REMARK   12  A    between atoms: O_23  and  C_24 
REMARK   13  A    between atoms: C_29  and  N_30 
REMARK   14  A    between atoms: C_34  and  O_35 
ROOT
ATOM      1  C   UNL d   1      26.972 -15.735  -2.491  0.00  0.00     0.112 A 
ATOM      2  C   UNL d   1      28.326 -16.129  -2.445  0.00  0.00     0.041 A 
ATOM      3  C   UNL d   1      29.144 -16.076  -3.597  0.00  0.00     0.016 A 
ATOM      4  C   UNL d   1      28.597 -15.692  -4.823  0.00  0.00    -0.014 A 
ATOM      5  C   UNL d   1      27.259 -15.266  -4.851  0.00  0.00     0.052 A 
ATOM      6  C   UNL d   1      26.436 -15.255  -3.696  0.00  0.00     0.102 A 
ENDROOT
BRANCH   4   7
ATOM      7  C   UNL d   1      29.410 -15.774  -6.086  0.00  0.00     0.150 C 
ATOM      8  N   UNL d   1      30.490 -16.490  -6.136  0.00  0.00    -0.184 NA
BRANCH   8   9
ATOM      9  N   UNL d   1      31.229 -16.545  -7.297  0.00  0.00    -0.246 N 
ATOM     10  C   UNL d   1      32.207 -15.556  -7.501  0.00  0.00     0.261 C 
ATOM     11  O   UNL d   1      32.402 -14.622  -6.723  0.00  0.00    -0.269 OA
ATOM     12  H   UNL d   1      31.006 -17.233  -8.009  0.00  0.00     0.192 HD
BRANCH  10  13
ATOM     13  C   UNL d   1      33.035 -15.729  -8.794  0.00  0.00     0.280 C 
BRANCH  13  14
ATOM     14  O   UNL d   1      32.678 -16.938  -9.475  0.00  0.00    -0.340 OA
BRANCH  14  15
ATOM     15  C   UNL d   1      33.159 -18.151  -9.061  0.00  0.00     0.102 A 
ATOM     16  C   UNL d   1      34.570 -18.260  -9.145  0.00  0.00     0.039 A 
ATOM     17  C   UNL d   1      35.240 -19.474  -8.914  0.00  0.00     0.003 A 
ATOM     18  C   UNL d   1      34.522 -20.596  -8.533  0.00  0.00     0.003 A 
ATOM     19  C   UNL d   1      33.136 -20.516  -8.445  0.00  0.00     0.039 A 
ATOM     20  C   UNL d   1      32.447 -19.314  -8.732  0.00  0.00     0.136 A 
BRANCH  20  21
ATOM     21  N   UNL d   1      30.983 -19.427  -8.734  0.00  0.00    -0.113 N 
ATOM     22  O   UNL d   1      30.406 -19.261  -7.645  0.00  0.00    -0.532 OA
ATOM     23  O   UNL d   1      30.394 -19.701  -9.780  0.00  0.00    -0.532 OA
ENDBRANCH  20  21
ENDBRANCH  14  15
ENDBRANCH  13  14
ENDBRANCH  10  13
ENDBRANCH   8   9
ENDBRANCH   4   7
BRANCH   6  24
ATOM     24  O   UNL d   1      25.194 -14.743  -3.961  0.00  0.00    -0.353 OA
ATOM     25  C   UNL d   1      25.019 -13.371  -4.258  0.00  0.00     0.210 C 
ENDBRANCH   6  24
BRANCH   1  26
ATOM     26  O   UNL d   1      26.272 -15.727  -1.251  0.00  0.00    -0.272 OA
BRANCH  26  27
ATOM     27  C   UNL d   1      26.091 -16.944  -0.583  0.00  0.00     0.298 C 
ATOM     28  O   UNL d   1      26.976 -17.703  -0.238  0.00  0.00    -0.259 OA
BRANCH  27  29
ATOM     29  C   UNL d   1      24.625 -17.322  -0.531  0.00  0.00     0.040 A 
ATOM     30  C   UNL d   1      23.644 -16.368  -0.870  0.00  0.00     0.020 A 
ATOM     31  C   UNL d   1      22.278 -16.710  -0.895  0.00  0.00     0.038 A 
ATOM     32  C   UNL d   1      21.875 -18.018  -0.626  0.00  0.00     0.068 A 
ATOM     33  C   UNL d   1      22.838 -18.946  -0.224  0.00  0.00     0.038 A 
ATOM     34  C   UNL d   1      24.199 -18.594  -0.145  0.00  0.00     0.020 A 
BRANCH  32  35
ATOM     35  O   UNL d   1      20.564 -18.313  -0.897  0.00  0.00    -0.351 OA
BRANCH  35  36
ATOM     36  C   UNL d   1      20.225 -19.701  -0.972  0.00  0.00     0.175 C 
BRANCH  36  37
ATOM     37  C   UNL d   1      18.823 -19.912  -0.399  0.00  0.00     0.026 C 
BRANCH  37  38
ATOM     38  C   UNL d   1      18.872 -20.749   0.879  0.00  0.00    -0.002 C 
ATOM     39  C   UNL d   1      19.710 -20.077   1.953  0.00  0.00     0.005 C 
ENDBRANCH  37  38
ENDBRANCH  36  37
ENDBRANCH  35  36
ENDBRANCH  32  35
ENDBRANCH  27  29
ENDBRANCH  26  27
ENDBRANCH   1  26
TORSDOF 14
ENDMDL
MODEL 5
REMARK VINA RESULT:    -8.672      6.102      8.624
REMARK INTER + INTRA:         -16.083
REMARK INTER:                 -12.849
REMARK INTRA:                  -3.234
REMARK CONF_INDEPENDENT:        4.176
REMARK UNBOUND:                -3.234
REMARK  14 active torsions:
REMARK  status: ('A' for Active; 'I' for Inactive)
REMARK    1  A    between atoms: C_2  and  C_3 
REMARK    2  A    between atoms: C_3  and  C_4 
REMARK    3  A    between atoms: C_4  and  O_5 
REMARK    4  A    between atoms: O_5  and  C_6 
REMARK    5  A    between atoms: C_9  and  C_10 
REMARK    6  A    between atoms: C_10  and  O_12 
REMARK    7  A    between atoms: O_12  and  C_13 
REMARK    8  A    between atoms: C_16  and  C_17 
REMARK    9  A    between atoms: N_18  and  N_19 
REMARK       I    between atoms: N_19  and  C_20 
REMARK   10  A    between atoms: C_20  and  C_22 
REMARK   11  A    between atoms: C_22  and  O_23 
REMARK   12  A    between atoms: O_23  and  C_24 
REMARK   13  A    between atoms: C_29  and  N_30 
REMARK   14  A    between atoms: C_34  and  O_35 
ROOT
ATOM      1  C   UNL d   1      26.904 -15.514  -2.206  0.00  0.00     0.112 A 
ATOM      2  C   UNL d   1      28.286 -15.698  -2.422  0.00  0.00     0.041 A 
ATOM      3  C   UNL d   1      28.894 -15.328  -3.644  0.00  0.00     0.016 A 
ATOM      4  C   UNL d   1      28.111 -14.831  -4.688  0.00  0.00    -0.014 A 
ATOM      5  C   UNL d   1      26.744 -14.616  -4.452  0.00  0.00     0.052 A 
ATOM      6  C   UNL d   1      26.124 -14.925  -3.214  0.00  0.00     0.102 A 
ENDROOT
BRANCH   4   7
ATOM      7  C   UNL d   1      28.712 -14.574  -6.043  0.00  0.00     0.150 C 
ATOM      8  N   UNL d   1      28.296 -13.590  -6.779  0.00  0.00    -0.184 NA
BRANCH   8   9
ATOM      9  N   UNL d   1      28.849 -13.376  -8.022  0.00  0.00    -0.246 N 
ATOM     10  C   UNL d   1      28.401 -12.266  -8.758  0.00  0.00     0.261 C 
ATOM     11  O   UNL d   1      27.509 -11.509  -8.372  0.00  0.00    -0.269 OA
ATOM     12  H   UNL d   1      29.498 -14.051  -8.412  0.00  0.00     0.192 HD
BRANCH  10  13
ATOM     13  C   UNL d   1      29.119 -12.060 -10.111  0.00  0.00     0.280 C 
BRANCH  13  14
ATOM     14  O   UNL d   1      30.292 -12.877 -10.199  0.00  0.00    -0.340 OA
BRANCH  14  15
ATOM     15  C   UNL d   1      31.451 -12.522  -9.561  0.00  0.00     0.102 A 
ATOM     16  C   UNL d   1      31.925 -11.235  -9.921  0.00  0.00     0.039 A 
ATOM     17  C   UNL d   1      33.175 -10.755  -9.495  0.00  0.00     0.003 A 
ATOM     18  C   UNL d   1      33.958 -11.524  -8.649  0.00  0.00     0.003 A 
ATOM     19  C   UNL d   1      33.517 -12.792  -8.284  0.00  0.00     0.039 A 
ATOM     20  C   UNL d   1      32.286 -13.308  -8.754  0.00  0.00     0.136 A 
BRANCH  20  21
ATOM     21  N   UNL d   1      32.028 -14.708  -8.397  0.00  0.00    -0.113 N 
ATOM     22  O   UNL d   1      32.791 -15.562  -8.883  0.00  0.00    -0.532 OA
ATOM     23  O   UNL d   1      31.074 -14.987  -7.670  0.00  0.00    -0.532 OA
ENDBRANCH  20  21
ENDBRANCH  14  15
ENDBRANCH  13  14
ENDBRANCH  10  13
ENDBRANCH   8   9
ENDBRANCH   4   7
BRANCH   6  24
ATOM     24  O   UNL d   1      24.802 -14.571  -3.205  0.00  0.00    -0.353 OA
ATOM     25  C   UNL d   1      24.274 -13.699  -4.185  0.00  0.00     0.210 C 
ENDBRANCH   6  24
BRANCH   1  26
ATOM     26  O   UNL d   1      26.419 -15.822  -0.903  0.00  0.00    -0.272 OA
BRANCH  26  27
ATOM     27  C   UNL d   1      26.168 -17.162  -0.589  0.00  0.00     0.298 C 
ATOM     28  O   UNL d   1      27.001 -18.045  -0.529  0.00  0.00    -0.259 OA
BRANCH  27  29
ATOM     29  C   UNL d   1      24.680 -17.440  -0.544  0.00  0.00     0.040 A 
ATOM     30  C   UNL d   1      23.766 -16.367  -0.595  0.00  0.00     0.020 A 
ATOM     31  C   UNL d   1      22.377 -16.598  -0.621  0.00  0.00     0.038 A 
ATOM     32  C   UNL d   1      21.881 -17.901  -0.643  0.00  0.00     0.068 A 
ATOM     33  C   UNL d   1      22.781 -18.963  -0.524  0.00  0.00     0.038 A 
ATOM     34  C   UNL d   1      24.167 -18.735  -0.442  0.00  0.00     0.020 A 
BRANCH  32  35
ATOM     35  O   UNL d   1      20.541 -18.033  -0.901  0.00  0.00    -0.351 OA
BRANCH  35  36
ATOM     36  C   UNL d   1      19.975 -19.329  -0.690  0.00  0.00     0.175 C 
BRANCH  36  37
ATOM     37  C   UNL d   1      20.093 -19.699   0.790  0.00  0.00     0.026 C 
BRANCH  37  38
ATOM     38  C   UNL d   1      18.729 -20.063   1.376  0.00  0.00    -0.002 C 
ATOM     39  C   UNL d   1      18.078 -21.198   0.605  0.00  0.00     0.005 C 
ENDBRANCH  37  38
ENDBRANCH  36  37
ENDBRANCH  35  36
ENDBRANCH  32  35
ENDBRANCH  27  29
ENDBRANCH  26  27
ENDBRANCH   1  26
TORSDOF 14
ENDMDL
MODEL 6
REMARK VINA RESULT:    -8.575      4.198      5.898
REMARK INTER + INTRA:         -16.345
REMARK INTER:                 -12.751
REMARK INTRA:                  -3.594
REMARK CONF_INDEPENDENT:        4.176
REMARK UNBOUND:                -3.594
REMARK  14 active torsions:
REMARK  status: ('A' for Active; 'I' for Inactive)
REMARK    1  A    between atoms: C_2  and  C_3 
REMARK    2  A    between atoms: C_3  and  C_4 
REMARK    3  A    between atoms: C_4  and  O_5 
REMARK    4  A    between atoms: O_5  and  C_6 
REMARK    5  A    between atoms: C_9  and  C_10 
REMARK    6  A    between atoms: C_10  and  O_12 
REMARK    7  A    between atoms: O_12  and  C_13 
REMARK    8  A    between atoms: C_16  and  C_17 
REMARK    9  A    between atoms: N_18  and  N_19 
REMARK       I    between atoms: N_19  and  C_20 
REMARK   10  A    between atoms: C_20  and  C_22 
REMARK   11  A    between atoms: C_22  and  O_23 
REMARK   12  A    between atoms: O_23  and  C_24 
REMARK   13  A    between atoms: C_29  and  N_30 
REMARK   14  A    between atoms: C_34  and  O_35 
ROOT
ATOM      1  C   UNL d   1      26.535 -15.898  -1.670  0.00  0.00     0.112 A 
ATOM      2  C   UNL d   1      26.042 -15.972  -2.990  0.00  0.00     0.041 A 
ATOM      3  C   UNL d   1      25.767 -14.803  -3.738  0.00  0.00     0.016 A 
ATOM      4  C   UNL d   1      25.921 -13.547  -3.148  0.00  0.00    -0.014 A 
ATOM      5  C   UNL d   1      26.449 -13.482  -1.847  0.00  0.00     0.052 A 
ATOM      6  C   UNL d   1      26.786 -14.640  -1.100  0.00  0.00     0.102 A 
ENDROOT
BRANCH   4   7
ATOM      7  C   UNL d   1      25.493 -12.301  -3.872  0.00  0.00     0.150 C 
ATOM      8  N   UNL d   1      25.741 -11.127  -3.379  0.00  0.00    -0.184 NA
BRANCH   8   9
ATOM      9  N   UNL d   1      25.331  -9.996  -4.050  0.00  0.00    -0.246 N 
ATOM     10  C   UNL d   1      25.329  -8.779  -3.346  0.00  0.00     0.261 C 
ATOM     11  O   UNL d   1      25.625  -8.682  -2.155  0.00  0.00    -0.269 OA
ATOM     12  H   UNL d   1      24.968 -10.069  -4.995  0.00  0.00     0.192 HD
BRANCH  10  13
ATOM     13  C   UNL d   1      24.920  -7.551  -4.190  0.00  0.00     0.280 C 
BRANCH  13  14
ATOM     14  O   UNL d   1      24.437  -7.950  -5.478  0.00  0.00    -0.340 OA
BRANCH  14  15
ATOM     15  C   UNL d   1      25.259  -7.951  -6.573  0.00  0.00     0.102 A 
ATOM     16  C   UNL d   1      25.272  -6.718  -7.273  0.00  0.00     0.039 A 
ATOM     17  C   UNL d   1      25.930  -6.567  -8.506  0.00  0.00     0.003 A 
ATOM     18  C   UNL d   1      26.643  -7.628  -9.041  0.00  0.00     0.003 A 
ATOM     19  C   UNL d   1      26.643  -8.850  -8.375  0.00  0.00     0.039 A 
ATOM     20  C   UNL d   1      25.936  -9.028  -7.163  0.00  0.00     0.136 A 
BRANCH  20  21
ATOM     21  N   UNL d   1      25.915 -10.406  -6.658  0.00  0.00    -0.113 N 
ATOM     22  O   UNL d   1      24.894 -11.076  -6.895  0.00  0.00    -0.532 OA
ATOM     23  O   UNL d   1      26.872 -10.834  -6.010  0.00  0.00    -0.532 OA
ENDBRANCH  20  21
ENDBRANCH  14  15
ENDBRANCH  13  14
ENDBRANCH  10  13
ENDBRANCH   8   9
ENDBRANCH   4   7
BRANCH   6  24
ATOM     24  O   UNL d   1      27.336 -14.320   0.112  0.00  0.00    -0.353 OA
ATOM     25  C   UNL d   1      27.858 -15.321   0.963  0.00  0.00     0.210 C 
ENDBRANCH   6  24
BRANCH   1  26
ATOM     26  O   UNL d   1      26.877 -17.133  -1.051  0.00  0.00    -0.272 OA
BRANCH  26  27
ATOM     27  C   UNL d   1      26.105 -17.568   0.033  0.00  0.00     0.298 C 
ATOM     28  O   UNL d   1      26.537 -18.010   1.080  0.00  0.00    -0.259 OA
BRANCH  27  29
ATOM     29  C   UNL d   1      24.638 -17.631  -0.336  0.00  0.00     0.040 A 
ATOM     30  C   UNL d   1      24.016 -18.884  -0.518  0.00  0.00     0.020 A 
ATOM     31  C   UNL d   1      22.639 -18.976  -0.796  0.00  0.00     0.038 A 
ATOM     32  C   UNL d   1      21.854 -17.824  -0.853  0.00  0.00     0.068 A 
ATOM     33  C   UNL d   1      22.479 -16.581  -0.741  0.00  0.00     0.038 A 
ATOM     34  C   UNL d   1      23.866 -16.482  -0.517  0.00  0.00     0.020 A 
BRANCH  32  35
ATOM     35  O   UNL d   1      20.497 -18.020  -0.897  0.00  0.00    -0.351 OA
BRANCH  35  36
ATOM     36  C   UNL d   1      20.054 -19.327  -1.270  0.00  0.00     0.175 C 
BRANCH  36  37
ATOM     37  C   UNL d   1      19.144 -19.886  -0.174  0.00  0.00     0.026 C 
BRANCH  37  38
ATOM     38  C   UNL d   1      19.964 -20.419   1.001  0.00  0.00    -0.002 C 
ATOM     39  C   UNL d   1      19.181 -20.351   2.301  0.00  0.00     0.005 C 
ENDBRANCH  37  38
ENDBRANCH  36  37
ENDBRANCH  35  36
ENDBRANCH  32  35
ENDBRANCH  27  29
ENDBRANCH  26  27
ENDBRANCH   1  26
TORSDOF 14
ENDMDL
MODEL 7
REMARK VINA RESULT:    -8.491      5.111      6.592
REMARK INTER + INTRA:         -16.153
REMARK INTER:                 -12.668
REMARK INTRA:                  -3.485
REMARK CONF_INDEPENDENT:        4.176
REMARK UNBOUND:                -3.485
REMARK  14 active torsions:
REMARK  status: ('A' for Active; 'I' for Inactive)
REMARK    1  A    between atoms: C_2  and  C_3 
REMARK    2  A    between atoms: C_3  and  C_4 
REMARK    3  A    between atoms: C_4  and  O_5 
REMARK    4  A    between atoms: O_5  and  C_6 
REMARK    5  A    between atoms: C_9  and  C_10 
REMARK    6  A    between atoms: C_10  and  O_12 
REMARK    7  A    between atoms: O_12  and  C_13 
REMARK    8  A    between atoms: C_16  and  C_17 
REMARK    9  A    between atoms: N_18  and  N_19 
REMARK       I    between atoms: N_19  and  C_20 
REMARK   10  A    between atoms: C_20  and  C_22 
REMARK   11  A    between atoms: C_22  and  O_23 
REMARK   12  A    between atoms: O_23  and  C_24 
REMARK   13  A    between atoms: C_29  and  N_30 
REMARK   14  A    between atoms: C_34  and  O_35 
ROOT
ATOM      1  C   UNL d   1      26.273 -15.441  -3.103  0.00  0.00     0.112 A 
ATOM      2  C   UNL d   1      25.341 -14.501  -2.613  0.00  0.00     0.041 A 
ATOM      3  C   UNL d   1      25.112 -13.277  -3.284  0.00  0.00     0.016 A 
ATOM      4  C   UNL d   1      25.862 -12.952  -4.417  0.00  0.00    -0.014 A 
ATOM      5  C   UNL d   1      26.759 -13.910  -4.918  0.00  0.00     0.052 A 
ATOM      6  C   UNL d   1      26.962 -15.168  -4.295  0.00  0.00     0.102 A 
ENDROOT
BRANCH   4   7
ATOM      7  C   UNL d   1      25.741 -11.596  -5.054  0.00  0.00     0.150 C 
ATOM      8  N   UNL d   1      26.702 -11.115  -5.781  0.00  0.00    -0.184 NA
BRANCH   8   9
ATOM      9  N   UNL d   1      26.580  -9.866  -6.348  0.00  0.00    -0.246 N 
ATOM     10  C   UNL d   1      26.670  -9.769  -7.748  0.00  0.00     0.261 C 
ATOM     11  O   UNL d   1      26.900 -10.730  -8.483  0.00  0.00    -0.269 OA
ATOM     12  H   UNL d   1      26.509  -9.044  -5.758  0.00  0.00     0.192 HD
BRANCH  10  13
ATOM     13  C   UNL d   1      26.455  -8.345  -8.307  0.00  0.00     0.280 C 
BRANCH  13  14
ATOM     14  O   UNL d   1      26.184  -7.414  -7.252  0.00  0.00    -0.340 OA
BRANCH  14  15
ATOM     15  C   UNL d   1      24.928  -7.293  -6.722  0.00  0.00     0.102 A 
ATOM     16  C   UNL d   1      24.017  -6.612  -7.569  0.00  0.00     0.039 A 
ATOM     17  C   UNL d   1      22.728  -6.253  -7.142  0.00  0.00     0.003 A 
ATOM     18  C   UNL d   1      22.293  -6.618  -5.877  0.00  0.00     0.003 A 
ATOM     19  C   UNL d   1      23.168  -7.284  -5.026  0.00  0.00     0.039 A 
ATOM     20  C   UNL d   1      24.488  -7.599  -5.425  0.00  0.00     0.136 A 
BRANCH  20  21
ATOM     21  N   UNL d   1      25.332  -8.173  -4.370  0.00  0.00    -0.113 N 
ATOM     22  O   UNL d   1      26.433  -7.628  -4.173  0.00  0.00    -0.532 OA
ATOM     23  O   UNL d   1      24.944  -9.163  -3.750  0.00  0.00    -0.532 OA
ENDBRANCH  20  21
ENDBRANCH  14  15
ENDBRANCH  13  14
ENDBRANCH  10  13
ENDBRANCH   8   9
ENDBRANCH   4   7
BRANCH   6  24
ATOM     24  O   UNL d   1      27.836 -15.950  -5.002  0.00  0.00    -0.353 OA
ATOM     25  C   UNL d   1      28.927 -15.379  -5.696  0.00  0.00     0.210 C 
ENDBRANCH   6  24
BRANCH   1  26
ATOM     26  O   UNL d   1      26.345 -16.683  -2.410  0.00  0.00    -0.272 OA
BRANCH  26  27
ATOM     27  C   UNL d   1      25.991 -16.708  -1.056  0.00  0.00     0.298 C 
ATOM     28  O   UNL d   1      26.753 -16.558  -0.120  0.00  0.00    -0.259 OA
BRANCH  27  29
ATOM     29  C   UNL d   1      24.560 -17.170  -0.877  0.00  0.00     0.040 A 
ATOM     30  C   UNL d   1      23.511 -16.228  -0.917  0.00  0.00     0.020 A 
ATOM     31  C   UNL d   1      22.167 -16.636  -0.819  0.00  0.00     0.038 A 
ATOM     32  C   UNL d   1      21.847 -17.990  -0.725  0.00  0.00     0.068 A 
ATOM     33  C   UNL d   1      22.886 -18.918  -0.617  0.00  0.00     0.038 A 
ATOM     34  C   UNL d   1      24.232 -18.509  -0.659  0.00  0.00     0.020 A 
BRANCH  32  35
ATOM     35  O   UNL d   1      20.522 -18.309  -0.868  0.00  0.00    -0.351 OA
BRANCH  35  36
ATOM     36  C   UNL d   1      20.211 -19.698  -1.002  0.00  0.00     0.175 C 
BRANCH  36  37
ATOM     37  C   UNL d   1      18.874 -19.987  -0.317  0.00  0.00     0.026 C 
BRANCH  37  38
ATOM     38  C   UNL d   1      19.086 -20.506   1.105  0.00  0.00    -0.002 C 
ATOM     39  C   UNL d   1      20.144 -19.700   1.839  0.00  0.00     0.005 C 
ENDBRANCH  37  38
ENDBRANCH  36  37
ENDBRANCH  35  36
ENDBRANCH  32  35
ENDBRANCH  27  29
ENDBRANCH  26  27
ENDBRANCH   1  26
TORSDOF 14
ENDMDL
MODEL 8
REMARK VINA RESULT:    -8.328      4.221      5.674
REMARK INTER + INTRA:         -16.047
REMARK INTER:                 -12.504
REMARK INTRA:                  -3.543
REMARK CONF_INDEPENDENT:        4.176
REMARK UNBOUND:                -3.543
REMARK  14 active torsions:
REMARK  status: ('A' for Active; 'I' for Inactive)
REMARK    1  A    between atoms: C_2  and  C_3 
REMARK    2  A    between atoms: C_3  and  C_4 
REMARK    3  A    between atoms: C_4  and  O_5 
REMARK    4  A    between atoms: O_5  and  C_6 
REMARK    5  A    between atoms: C_9  and  C_10 
REMARK    6  A    between atoms: C_10  and  O_12 
REMARK    7  A    between atoms: O_12  and  C_13 
REMARK    8  A    between atoms: C_16  and  C_17 
REMARK    9  A    between atoms: N_18  and  N_19 
REMARK       I    between atoms: N_19  and  C_20 
REMARK   10  A    between atoms: C_20  and  C_22 
REMARK   11  A    between atoms: C_22  and  O_23 
REMARK   12  A    between atoms: O_23  and  C_24 
REMARK   13  A    between atoms: C_29  and  N_30 
REMARK   14  A    between atoms: C_34  and  O_35 
ROOT
ATOM      1  C   UNL d   1      26.299 -15.566  -2.361  0.00  0.00     0.112 A 
ATOM      2  C   UNL d   1      26.006 -15.378  -3.728  0.00  0.00     0.041 A 
ATOM      3  C   UNL d   1      25.889 -14.082  -4.282  0.00  0.00     0.016 A 
ATOM      4  C   UNL d   1      25.999 -12.960  -3.458  0.00  0.00    -0.014 A 
ATOM      5  C   UNL d   1      26.328 -13.156  -2.106  0.00  0.00     0.052 A 
ATOM      6  C   UNL d   1      26.508 -14.445  -1.542  0.00  0.00     0.102 A 
ENDROOT
BRANCH   4   7
ATOM      7  C   UNL d   1      25.730 -11.582  -3.997  0.00  0.00     0.150 C 
ATOM      8  N   UNL d   1      26.312 -10.542  -3.484  0.00  0.00    -0.184 NA
BRANCH   8   9
ATOM      9  N   UNL d   1      26.045  -9.286  -3.982  0.00  0.00    -0.246 N 
ATOM     10  C   UNL d   1      26.021  -8.211  -3.077  0.00  0.00     0.261 C 
ATOM     11  O   UNL d   1      26.178  -8.342  -1.862  0.00  0.00    -0.269 OA
ATOM     12  H   UNL d   1      25.794  -9.170  -4.959  0.00  0.00     0.192 HD
BRANCH  10  13
ATOM     13  C   UNL d   1      25.781  -6.830  -3.726  0.00  0.00     0.280 C 
BRANCH  13  14
ATOM     14  O   UNL d   1      24.403  -6.449  -3.629  0.00  0.00    -0.340 OA
BRANCH  14  15
ATOM     15  C   UNL d   1      23.612  -6.368  -4.744  0.00  0.00     0.102 A 
ATOM     16  C   UNL d   1      22.462  -5.560  -4.565  0.00  0.00     0.039 A 
ATOM     17  C   UNL d   1      21.450  -5.477  -5.537  0.00  0.00     0.003 A 
ATOM     18  C   UNL d   1      21.591  -6.152  -6.739  0.00  0.00     0.003 A 
ATOM     19  C   UNL d   1      22.710  -6.954  -6.938  0.00  0.00     0.039 A 
ATOM     20  C   UNL d   1      23.706  -7.091  -5.942  0.00  0.00     0.136 A 
BRANCH  20  21
ATOM     21  N   UNL d   1      24.748  -8.080  -6.244  0.00  0.00    -0.113 N 
ATOM     22  O   UNL d   1      24.430  -9.278  -6.145  0.00  0.00    -0.532 OA
ATOM     23  O   UNL d   1      25.879  -7.701  -6.550  0.00  0.00    -0.532 OA
ENDBRANCH  20  21
ENDBRANCH  14  15
ENDBRANCH  13  14
ENDBRANCH  10  13
ENDBRANCH   8   9
ENDBRANCH   4   7
BRANCH   6  24
ATOM     24  O   UNL d   1      26.882 -14.376  -0.227  0.00  0.00    -0.353 OA
ATOM     25  C   UNL d   1      28.082 -13.734   0.157  0.00  0.00     0.210 C 
ENDBRANCH   6  24
BRANCH   1  26
ATOM     26  O   UNL d   1      26.499 -16.910  -1.934  0.00  0.00    -0.272 OA
BRANCH  26  27
ATOM     27  C   UNL d   1      26.092 -17.263  -0.642  0.00  0.00     0.298 C 
ATOM     28  O   UNL d   1      26.831 -17.535   0.285  0.00  0.00    -0.259 OA
BRANCH  27  29
ATOM     29  C   UNL d   1      24.596 -17.486  -0.586  0.00  0.00     0.040 A 
ATOM     30  C   UNL d   1      23.724 -16.378  -0.564  0.00  0.00     0.020 A 
ATOM     31  C   UNL d   1      22.327 -16.554  -0.577  0.00  0.00     0.038 A 
ATOM     32  C   UNL d   1      21.780 -17.834  -0.658  0.00  0.00     0.068 A 
ATOM     33  C   UNL d   1      22.639 -18.934  -0.611  0.00  0.00     0.038 A 
ATOM     34  C   UNL d   1      24.035 -18.764  -0.542  0.00  0.00     0.020 A 
BRANCH  32  35
ATOM     35  O   UNL d   1      20.432 -17.901  -0.899  0.00  0.00    -0.351 OA
BRANCH  35  36
ATOM     36  C   UNL d   1      19.847 -19.206  -0.895  0.00  0.00     0.175 C 
BRANCH  36  37
ATOM     37  C   UNL d   1      19.580 -19.638   0.548  0.00  0.00     0.026 C 
BRANCH  37  38
ATOM     38  C   UNL d   1      19.451 -21.157   0.652  0.00  0.00    -0.002 C 
ATOM     39  C   UNL d   1      18.027 -21.574   0.974  0.00  0.00     0.005 C 
ENDBRANCH  37  38
ENDBRANCH  36  37
ENDBRANCH  35  36
ENDBRANCH  32  35
ENDBRANCH  27  29
ENDBRANCH  26  27
ENDBRANCH   1  26
TORSDOF 14
ENDMDL
MODEL 9
REMARK VINA RESULT:    -7.905      6.707      9.715
REMARK INTER + INTRA:         -15.944
REMARK INTER:                 -12.082
REMARK INTRA:                  -3.863
REMARK CONF_INDEPENDENT:        4.176
REMARK UNBOUND:                -3.863
REMARK  14 active torsions:
REMARK  status: ('A' for Active; 'I' for Inactive)
REMARK    1  A    between atoms: C_2  and  C_3 
REMARK    2  A    between atoms: C_3  and  C_4 
REMARK    3  A    between atoms: C_4  and  O_5 
REMARK    4  A    between atoms: O_5  and  C_6 
REMARK    5  A    between atoms: C_9  and  C_10 
REMARK    6  A    between atoms: C_10  and  O_12 
REMARK    7  A    between atoms: O_12  and  C_13 
REMARK    8  A    between atoms: C_16  and  C_17 
REMARK    9  A    between atoms: N_18  and  N_19 
REMARK       I    between atoms: N_19  and  C_20 
REMARK   10  A    between atoms: C_20  and  C_22 
REMARK   11  A    between atoms: C_22  and  O_23 
REMARK   12  A    between atoms: O_23  and  C_24 
REMARK   13  A    between atoms: C_29  and  N_30 
REMARK   14  A    between atoms: C_34  and  O_35 
ROOT
ATOM      1  C   UNL d   1      26.554 -15.446  -2.394  0.00  0.00     0.112 A 
ATOM      2  C   UNL d   1      27.873 -15.813  -2.051  0.00  0.00     0.041 A 
ATOM      3  C   UNL d   1      28.873 -15.962  -3.039  0.00  0.00     0.016 A 
ATOM      4  C   UNL d   1      28.547 -15.810  -4.389  0.00  0.00    -0.014 A 
ATOM      5  C   UNL d   1      27.242 -15.408  -4.718  0.00  0.00     0.052 A 
ATOM      6  C   UNL d   1      26.238 -15.195  -3.738  0.00  0.00     0.102 A 
ENDROOT
BRANCH   4   7
ATOM      7  C   UNL d   1      29.558 -16.111  -5.461  0.00  0.00     0.150 C 
ATOM      8  N   UNL d   1      29.845 -17.336  -5.778  0.00  0.00    -0.184 NA
BRANCH   8   9
ATOM      9  N   UNL d   1      30.781 -17.594  -6.755  0.00  0.00    -0.246 N 
ATOM     10  C   UNL d   1      31.184 -18.928  -6.943  0.00  0.00     0.261 C 
ATOM     11  O   UNL d   1      30.781 -19.864  -6.251  0.00  0.00    -0.269 OA
ATOM     12  H   UNL d   1      31.217 -16.828  -7.257  0.00  0.00     0.192 HD
BRANCH  10  13
ATOM     13  C   UNL d   1      32.185 -19.139  -8.101  0.00  0.00     0.280 C 
BRANCH  13  14
ATOM     14  O   UNL d   1      32.132 -18.050  -9.031  0.00  0.00    -0.340 OA
BRANCH  14  15
ATOM     15  C   UNL d   1      33.174 -17.170  -9.149  0.00  0.00     0.102 A 
ATOM     16  C   UNL d   1      34.221 -17.638  -9.983  0.00  0.00     0.039 A 
ATOM     17  C   UNL d   1      35.440 -16.951 -10.106  0.00  0.00     0.003 A 
ATOM     18  C   UNL d   1      35.623 -15.746  -9.447  0.00  0.00     0.003 A 
ATOM     19  C   UNL d   1      34.613 -15.267  -8.620  0.00  0.00     0.039 A 
ATOM     20  C   UNL d   1      33.403 -15.980  -8.443  0.00  0.00     0.136 A 
BRANCH  20  21
ATOM     21  N   UNL d   1      32.498 -15.418  -7.433  0.00  0.00    -0.113 N 
ATOM     22  O   UNL d   1      32.757 -15.673  -6.244  0.00  0.00    -0.532 OA
ATOM     23  O   UNL d   1      31.523 -14.755  -7.789  0.00  0.00    -0.532 OA
ENDBRANCH  20  21
ENDBRANCH  14  15
ENDBRANCH  13  14
ENDBRANCH  10  13
ENDBRANCH   8   9
ENDBRANCH   4   7
BRANCH   6  24
ATOM     24  O   UNL d   1      25.070 -14.750  -4.297  0.00  0.00    -0.353 OA
ATOM     25  C   UNL d   1      24.402 -13.616  -3.782  0.00  0.00     0.210 C 
ENDBRANCH   6  24
BRANCH   1  26
ATOM     26  O   UNL d   1      25.657 -15.221  -1.311  0.00  0.00    -0.272 OA
BRANCH  26  27
ATOM     27  C   UNL d   1      25.533 -16.215  -0.335  0.00  0.00     0.298 C 
ATOM     28  O   UNL d   1      26.362 -16.486   0.512  0.00  0.00    -0.259 OA
BRANCH  27  29
ATOM     29  C   UNL d   1      24.317 -17.081  -0.592  0.00  0.00     0.040 A 
ATOM     30  C   UNL d   1      24.458 -18.482  -0.660  0.00  0.00     0.020 A 
ATOM     31  C   UNL d   1      23.338 -19.317  -0.833  0.00  0.00     0.038 A 
ATOM     32  C   UNL d   1      22.056 -18.770  -0.894  0.00  0.00     0.068 A 
ATOM     33  C   UNL d   1      21.920 -17.380  -0.896  0.00  0.00     0.038 A 
ATOM     34  C   UNL d   1      23.044 -16.540  -0.779  0.00  0.00     0.020 A 
BRANCH  32  35
ATOM     35  O   UNL d   1      21.016 -19.660  -0.830  0.00  0.00    -0.351 OA
BRANCH  35  36
ATOM     36  C   UNL d   1      19.719 -19.109  -0.589  0.00  0.00     0.175 C 
BRANCH  36  37
ATOM     37  C   UNL d   1      18.777 -20.217  -0.112  0.00  0.00     0.026 C 
BRANCH  37  38
ATOM     38  C   UNL d   1      18.837 -20.373   1.407  0.00  0.00    -0.002 C 
ATOM     39  C   UNL d   1      20.069 -19.700   1.987  0.00  0.00     0.005 C 
ENDBRANCH  37  38
ENDBRANCH  36  37
ENDBRANCH  35  36
ENDBRANCH  32  35
ENDBRANCH  27  29
ENDBRANCH  26  27
ENDBRANCH   1  26
TORSDOF 14
ENDMDL
