MODEL 1
REMARK VINA RESULT:   -12.296      0.000      0.000
REMARK INTER + INTRA:         -16.542
REMARK INTER:                 -15.279
REMARK INTRA:                  -1.263
REMARK CONF_INDEPENDENT:        2.983
REMARK UNBOUND:                -1.263
REMARK  10 active torsions:
REMARK  status: ('A' for Active; 'I' for Inactive)
REMARK       I    between atoms: C_2  and  N_3 
REMARK    1  A    between atoms: C_13  and  C_2 
REMARK    2  A    between atoms: N_3  and  C_4 
REMARK    3  A    between atoms: C_4  and  C_5 
REMARK    4  A    between atoms: C_5  and  O_6 
REMARK    5  A    between atoms: O_6  and  C_7 
REMARK    6  A    between atoms: C_15  and  C_16 
REMARK       I    between atoms: C_16  and  N_18 
REMARK    7  A    between atoms: N_18  and  C_19 
REMARK    8  A    between atoms: N_29  and  C_30 
REMARK    9  A    between atoms: C_30  and  C_31 
REMARK   10  A    between atoms: C_34  and  O_35 
ROOT
ATOM      1  C   UNL d   1      26.645 -16.603  -0.121  0.00  0.00     0.104 C 
ATOM      2  C   UNL d   1      27.455 -16.617  -1.423  0.00  0.00     0.031 C 
ATOM      3  C   UNL d   1      28.859 -17.006  -1.084  0.00  0.00     0.105 C 
ATOM      4  C   UNL d   1      29.426 -15.848  -0.279  0.00  0.00     0.249 C 
ATOM      5  N   UNL d   1      28.605 -15.521   0.994  0.00  0.00    -0.066 N 
ATOM      6  C   UNL d   1      27.060 -15.385   0.700  0.00  0.00     0.249 C 
ATOM      7  H   UNL d   1      28.740 -16.296   1.656  0.00  0.00     0.280 HD
ENDROOT
BRANCH   1   8
ATOM      8  C   UNL d   1      25.228 -16.847  -0.549  0.00  0.00     0.223 C 
ATOM      9  O   UNL d   1      24.503 -16.008  -1.128  0.00  0.00    -0.273 OA
ATOM     10  N   UNL d   1      24.890 -18.135  -0.214  0.00  0.00    -0.359 N 
ATOM     11  H   UNL d   1      25.569 -18.675   0.308  0.00  0.00     0.162 HD
BRANCH  10  12
ATOM     12  C   UNL d   1      23.675 -18.854  -0.498  0.00  0.00     0.149 C 
BRANCH  12  13
ATOM     13  C   UNL d   1      22.475 -17.961  -0.151  0.00  0.00     0.195 C 
BRANCH  13  14
ATOM     14  O   UNL d   1      21.377 -18.381  -0.932  0.00  0.00    -0.350 OA
BRANCH  14  15
ATOM     15  C   UNL d   1      20.388 -19.068  -0.292  0.00  0.00     0.068 A 
ATOM     16  C   UNL d   1      20.655 -19.325   1.052  0.00  0.00     0.037 A 
ATOM     17  C   UNL d   1      19.847 -20.198   1.776  0.00  0.00     0.003 A 
ATOM     18  C   UNL d   1      18.714 -20.747   1.182  0.00  0.00     0.000 A 
ATOM     19  C   UNL d   1      18.413 -20.453  -0.147  0.00  0.00     0.003 A 
ATOM     20  C   UNL d   1      19.253 -19.617  -0.889  0.00  0.00     0.037 A 
ENDBRANCH  14  15
ENDBRANCH  13  14
ENDBRANCH  12  13
ENDBRANCH  10  12
ENDBRANCH   1   8
BRANCH   3  21
ATOM     21  C   UNL d   1      29.650 -17.253  -2.359  0.00  0.00     0.228 C 
ATOM     22  O   UNL d   1      30.537 -18.127  -2.356  0.00  0.00    -0.273 OA
ATOM     23  N   UNL d   1      29.328 -16.443  -3.437  0.00  0.00    -0.327 N 
ATOM     24  H   UNL d   1      28.660 -15.686  -3.365  0.00  0.00     0.169 HD
BRANCH  23  25
ATOM     25  C   UNL d   1      29.830 -16.620  -4.745  0.00  0.00     0.035 C 
ATOM     26  C   UNL d   1      29.817 -15.573  -5.683  0.00  0.00     0.030 C 
ATOM     27  C   UNL d   1      30.484 -15.763  -6.896  0.00  0.00     0.010 C 
ATOM     28  C   UNL d   1      31.024 -17.023  -7.103  0.00  0.00    -0.052 C 
ATOM     29  C   UNL d   1      30.589 -18.170  -6.505  0.00  0.00    -0.050 C 
ATOM     30  C   UNL d   1      32.335 -17.604  -7.452  0.00  0.00     0.039 C 
ATOM     31  C   UNL d   1      30.236 -17.905  -5.149  0.00  0.00     0.037 C 
ATOM     32  C   UNL d   1      31.539 -19.470  -7.173  0.00  0.00     0.039 C 
ATOM     33  C   UNL d   1      32.428 -18.931  -6.173  0.00  0.00     0.009 C 
ENDBRANCH  23  25
ENDBRANCH   3  21
BRANCH   5  34
ATOM     34  C   UNL d   1      29.158 -14.293   1.764  0.00  0.00     0.273 C 
BRANCH  34  35
ATOM     35  C   UNL d   1      28.996 -14.322   3.276  0.00  0.00    -0.032 A 
ATOM     36  C   UNL d   1      27.782 -14.025   3.922  0.00  0.00     0.011 A 
ATOM     37  C   UNL d   1      27.725 -13.933   5.329  0.00  0.00     0.037 A 
ATOM     38  C   UNL d   1      28.835 -14.269   6.096  0.00  0.00     0.065 A 
ATOM     39  C   UNL d   1      30.029 -14.579   5.482  0.00  0.00     0.037 A 
ATOM     40  C   UNL d   1      30.115 -14.524   4.098  0.00  0.00     0.011 A 
BRANCH  38  41
ATOM     41  O   UNL d   1      28.824 -14.289   7.454  0.00  0.00    -0.361 OA
ATOM     42  H   UNL d   1      29.365 -15.024   7.781  0.00  0.00     0.217 HD
ENDBRANCH  38  41
ENDBRANCH  34  35
ENDBRANCH   5  34
TORSDOF 10
ENDMDL
MODEL 2
REMARK VINA RESULT:   -11.539      2.654      9.381
REMARK INTER + INTRA:         -17.039
REMARK INTER:                 -14.522
REMARK INTRA:                  -2.517
REMARK CONF_INDEPENDENT:        2.983
REMARK UNBOUND:                -2.517
REMARK  10 active torsions:
REMARK  status: ('A' for Active; 'I' for Inactive)
REMARK       I    between atoms: C_2  and  N_3 
REMARK    1  A    between atoms: C_13  and  C_2 
REMARK    2  A    between atoms: N_3  and  C_4 
REMARK    3  A    between atoms: C_4  and  C_5 
REMARK    4  A    between atoms: C_5  and  O_6 
REMARK    5  A    between atoms: O_6  and  C_7 
REMARK    6  A    between atoms: C_15  and  C_16 
REMARK       I    between atoms: C_16  and  N_18 
REMARK    7  A    between atoms: N_18  and  C_19 
REMARK    8  A    between atoms: N_29  and  C_30 
REMARK    9  A    between atoms: C_30  and  C_31 
REMARK   10  A    between atoms: C_34  and  O_35 
ROOT
ATOM      1  C   UNL d   1      28.725 -15.902  -1.505  0.00  0.00     0.104 C 
ATOM      2  C   UNL d   1      28.314 -14.793  -0.530  0.00  0.00     0.031 C 
ATOM      3  C   UNL d   1      28.470 -15.324   0.860  0.00  0.00     0.105 C 
ATOM      4  C   UNL d   1      27.405 -16.399   1.014  0.00  0.00     0.249 C 
ATOM      5  N   UNL d   1      27.513 -17.529  -0.041  0.00  0.00    -0.066 N 
ATOM      6  C   UNL d   1      27.637 -16.973  -1.514  0.00  0.00     0.249 C 
ATOM      7  H   UNL d   1      28.361 -18.070   0.171  0.00  0.00     0.280 HD
ENDROOT
BRANCH   1   8
ATOM      8  C   UNL d   1      29.161 -15.179  -2.745  0.00  0.00     0.223 C 
ATOM      9  O   UNL d   1      29.421 -13.957  -2.804  0.00  0.00    -0.273 OA
ATOM     10  N   UNL d   1      29.238 -16.088  -3.771  0.00  0.00    -0.359 N 
ATOM     11  H   UNL d   1      28.936 -17.035  -3.580  0.00  0.00     0.162 HD
BRANCH  10  12
ATOM     12  C   UNL d   1      29.694 -15.889  -5.123  0.00  0.00     0.149 C 
BRANCH  12  13
ATOM     13  C   UNL d   1      28.666 -15.031  -5.874  0.00  0.00     0.195 C 
BRANCH  13  14
ATOM     14  O   UNL d   1      27.385 -15.575  -5.637  0.00  0.00    -0.350 OA
BRANCH  14  15
ATOM     15  C   UNL d   1      26.542 -14.850  -4.847  0.00  0.00     0.068 A 
ATOM     16  C   UNL d   1      26.600 -13.474  -5.068  0.00  0.00     0.037 A 
ATOM     17  C   UNL d   1      25.965 -12.593  -4.197  0.00  0.00     0.003 A 
ATOM     18  C   UNL d   1      25.193 -13.090  -3.150  0.00  0.00     0.000 A 
ATOM     19  C   UNL d   1      25.088 -14.466  -2.955  0.00  0.00     0.003 A 
ATOM     20  C   UNL d   1      25.769 -15.350  -3.799  0.00  0.00     0.037 A 
ENDBRANCH  14  15
ENDBRANCH  13  14
ENDBRANCH  12  13
ENDBRANCH  10  12
ENDBRANCH   1   8
BRANCH   3  21
ATOM     21  C   UNL d   1      28.291 -14.200   1.868  0.00  0.00     0.228 C 
ATOM     22  O   UNL d   1      27.552 -13.240   1.573  0.00  0.00    -0.273 OA
ATOM     23  N   UNL d   1      29.004 -14.326   3.049  0.00  0.00    -0.327 N 
ATOM     24  H   UNL d   1      29.660 -15.081   3.207  0.00  0.00     0.169 HD
BRANCH  23  25
ATOM     25  C   UNL d   1      28.851 -13.478   4.169  0.00  0.00     0.035 C 
ATOM     26  C   UNL d   1      28.022 -12.345   4.121  0.00  0.00     0.030 C 
ATOM     27  C   UNL d   1      27.781 -11.651   5.311  0.00  0.00     0.010 C 
ATOM     28  C   UNL d   1      28.472 -12.099   6.427  0.00  0.00    -0.052 C 
ATOM     29  C   UNL d   1      29.649 -12.787   6.396  0.00  0.00    -0.050 C 
ATOM     30  C   UNL d   1      28.157 -12.534   7.801  0.00  0.00     0.039 C 
ATOM     31  C   UNL d   1      29.643 -13.710   5.309  0.00  0.00     0.037 C 
ATOM     32  C   UNL d   1      30.128 -13.027   8.054  0.00  0.00     0.039 C 
ATOM     33  C   UNL d   1      29.162 -14.081   7.866  0.00  0.00     0.009 C 
ENDBRANCH  23  25
ENDBRANCH   3  21
BRANCH   5  34
ATOM     34  C   UNL d   1      26.378 -18.578   0.088  0.00  0.00     0.273 C 
BRANCH  34  35
ATOM     35  C   UNL d   1      24.980 -18.100  -0.272  0.00  0.00    -0.032 A 
ATOM     36  C   UNL d   1      24.689 -16.767  -0.614  0.00  0.00     0.011 A 
ATOM     37  C   UNL d   1      23.354 -16.351  -0.805  0.00  0.00     0.037 A 
ATOM     38  C   UNL d   1      22.325 -17.285  -0.791  0.00  0.00     0.065 A 
ATOM     39  C   UNL d   1      22.590 -18.600  -0.476  0.00  0.00     0.037 A 
ATOM     40  C   UNL d   1      23.886 -18.971  -0.145  0.00  0.00     0.011 A 
BRANCH  38  41
ATOM     41  O   UNL d   1      21.030 -16.971  -1.055  0.00  0.00    -0.361 OA
ATOM     42  H   UNL d   1      20.664 -17.586  -1.709  0.00  0.00     0.217 HD
ENDBRANCH  38  41
ENDBRANCH  34  35
ENDBRANCH   5  34
TORSDOF 10
ENDMDL
MODEL 3
REMARK VINA RESULT:   -11.031      2.339     10.115
REMARK INTER + INTRA:         -16.046
REMARK INTER:                 -14.014
REMARK INTRA:                  -2.032
REMARK CONF_INDEPENDENT:        2.983
REMARK UNBOUND:                -2.032
REMARK  10 active torsions:
REMARK  status: ('A' for Active; 'I' for Inactive)
REMARK       I    between atoms: C_2  and  N_3 
REMARK    1  A    between atoms: C_13  and  C_2 
REMARK    2  A    between atoms: N_3  and  C_4 
REMARK    3  A    between atoms: C_4  and  C_5 
REMARK    4  A    between atoms: C_5  and  O_6 
REMARK    5  A    between atoms: O_6  and  C_7 
REMARK    6  A    between atoms: C_15  and  C_16 
REMARK       I    between atoms: C_16  and  N_18 
REMARK    7  A    between atoms: N_18  and  C_19 
REMARK    8  A    between atoms: N_29  and  C_30 
REMARK    9  A    between atoms: C_30  and  C_31 
REMARK   10  A    between atoms: C_34  and  O_35 
ROOT
ATOM      1  C   UNL d   1      26.911 -14.892  -2.001  0.00  0.00     0.104 C 
ATOM      2  C   UNL d   1      26.786 -14.103  -0.692  0.00  0.00     0.031 C 
ATOM      3  C   UNL d   1      27.566 -14.831   0.357  0.00  0.00     0.105 C 
ATOM      4  C   UNL d   1      26.814 -16.129   0.605  0.00  0.00     0.249 C 
ATOM      5  N   UNL d   1      26.635 -16.992  -0.669  0.00  0.00    -0.066 N 
ATOM      6  C   UNL d   1      26.071 -16.161  -1.889  0.00  0.00     0.249 C 
ATOM      7  H   UNL d   1      27.561 -17.355  -0.929  0.00  0.00     0.280 HD
ENDROOT
BRANCH   1   8
ATOM      8  C   UNL d   1      26.700 -13.874  -3.083  0.00  0.00     0.223 C 
ATOM      9  O   UNL d   1      25.837 -12.969  -3.053  0.00  0.00    -0.273 OA
ATOM     10  N   UNL d   1      27.619 -14.102  -4.076  0.00  0.00    -0.359 N 
ATOM     11  H   UNL d   1      28.217 -14.914  -3.984  0.00  0.00     0.162 HD
BRANCH  10  12
ATOM     12  C   UNL d   1      27.868 -13.337  -5.271  0.00  0.00     0.149 C 
BRANCH  12  13
ATOM     13  C   UNL d   1      28.505 -14.253  -6.326  0.00  0.00     0.195 C 
BRANCH  13  14
ATOM     14  O   UNL d   1      28.477 -15.575  -5.832  0.00  0.00    -0.350 OA
BRANCH  14  15
ATOM     15  C   UNL d   1      29.651 -16.269  -5.855  0.00  0.00     0.068 A 
ATOM     16  C   UNL d   1      30.441 -16.010  -6.975  0.00  0.00     0.037 A 
ATOM     17  C   UNL d   1      31.556 -16.797  -7.248  0.00  0.00     0.003 A 
ATOM     18  C   UNL d   1      31.938 -17.792  -6.352  0.00  0.00     0.000 A 
ATOM     19  C   UNL d   1      31.181 -18.023  -5.204  0.00  0.00     0.003 A 
ATOM     20  C   UNL d   1      30.031 -17.266  -4.957  0.00  0.00     0.037 A 
ENDBRANCH  14  15
ENDBRANCH  13  14
ENDBRANCH  12  13
ENDBRANCH  10  12
ENDBRANCH   1   8
BRANCH   3  21
ATOM     21  C   UNL d   1      27.662 -13.981   1.614  0.00  0.00     0.228 C 
ATOM     22  O   UNL d   1      27.208 -12.821   1.591  0.00  0.00    -0.273 OA
ATOM     23  N   UNL d   1      28.288 -14.573   2.699  0.00  0.00    -0.327 N 
ATOM     24  H   UNL d   1      28.720 -15.487   2.642  0.00  0.00     0.169 HD
BRANCH  23  25
ATOM     25  C   UNL d   1      28.335 -14.016   3.996  0.00  0.00     0.035 C 
ATOM     26  C   UNL d   1      28.307 -14.827   5.143  0.00  0.00     0.030 C 
ATOM     27  C   UNL d   1      28.530 -14.225   6.385  0.00  0.00     0.010 C 
ATOM     28  C   UNL d   1      28.666 -12.845   6.376  0.00  0.00    -0.052 C 
ATOM     29  C   UNL d   1      28.157 -12.013   5.422  0.00  0.00    -0.050 C 
ATOM     30  C   UNL d   1      29.640 -11.842   6.849  0.00  0.00     0.039 C 
ATOM     31  C   UNL d   1      28.283 -12.617   4.136  0.00  0.00     0.037 C 
ATOM     32  C   UNL d   1      28.531 -10.388   5.928  0.00  0.00     0.039 C 
ATOM     33  C   UNL d   1      29.773 -10.808   5.327  0.00  0.00     0.009 C 
ENDBRANCH  23  25
ENDBRANCH   3  21
BRANCH   5  34
ATOM     34  C   UNL d   1      25.806 -18.276  -0.411  0.00  0.00     0.273 C 
BRANCH  34  35
ATOM     35  C   UNL d   1      24.301 -18.149  -0.586  0.00  0.00    -0.032 A 
ATOM     36  C   UNL d   1      23.622 -16.918  -0.520  0.00  0.00     0.011 A 
ATOM     37  C   UNL d   1      22.212 -16.875  -0.553  0.00  0.00     0.037 A 
ATOM     38  C   UNL d   1      21.485 -18.037  -0.788  0.00  0.00     0.065 A 
ATOM     39  C   UNL d   1      22.131 -19.251  -0.872  0.00  0.00     0.037 A 
ATOM     40  C   UNL d   1      23.506 -19.301  -0.692  0.00  0.00     0.011 A 
BRANCH  38  41
ATOM     41  O   UNL d   1      20.133 -18.055  -0.920  0.00  0.00    -0.361 OA
ATOM     42  H   UNL d   1      19.831 -17.252  -1.371  0.00  0.00     0.217 HD
ENDBRANCH  38  41
ENDBRANCH  34  35
ENDBRANCH   5  34
TORSDOF 10
ENDMDL
MODEL 4
REMARK VINA RESULT:   -11.021      2.293      9.844
REMARK INTER + INTRA:         -16.084
REMARK INTER:                 -14.004
REMARK INTRA:                  -2.080
REMARK CONF_INDEPENDENT:        2.983
REMARK UNBOUND:                -2.080
REMARK  10 active torsions:
REMARK  status: ('A' for Active; 'I' for Inactive)
REMARK       I    between atoms: C_2  and  N_3 
REMARK    1  A    between atoms: C_13  and  C_2 
REMARK    2  A    between atoms: N_3  and  C_4 
REMARK    3  A    between atoms: C_4  and  C_5 
REMARK    4  A    between atoms: C_5  and  O_6 
REMARK    5  A    between atoms: O_6  and  C_7 
REMARK    6  A    between atoms: C_15  and  C_16 
REMARK       I    between atoms: C_16  and  N_18 
REMARK    7  A    between atoms: N_18  and  C_19 
REMARK    8  A    between atoms: N_29  and  C_30 
REMARK    9  A    between atoms: C_30  and  C_31 
REMARK   10  A    between atoms: C_34  and  O_35 
ROOT
ATOM      1  C   UNL d   1      27.001 -15.494  -2.420  0.00  0.00     0.104 C 
ATOM      2  C   UNL d   1      27.042 -14.458  -1.291  0.00  0.00     0.031 C 
ATOM      3  C   UNL d   1      27.817 -15.049  -0.156  0.00  0.00     0.105 C 
ATOM      4  C   UNL d   1      26.961 -16.185   0.382  0.00  0.00     0.249 C 
ATOM      5  N   UNL d   1      26.614 -17.254  -0.685  0.00  0.00    -0.066 N 
ATOM      6  C   UNL d   1      26.052 -16.619  -2.017  0.00  0.00     0.249 C 
ATOM      7  H   UNL d   1      27.481 -17.758  -0.909  0.00  0.00     0.280 HD
ENDROOT
BRANCH   1   8
ATOM      8  C   UNL d   1      26.818 -14.688  -3.672  0.00  0.00     0.223 C 
ATOM      9  O   UNL d   1      25.894 -13.866  -3.863  0.00  0.00    -0.273 OA
ATOM     10  N   UNL d   1      27.835 -14.999  -4.540  0.00  0.00    -0.359 N 
ATOM     11  H   UNL d   1      28.476 -15.732  -4.265  0.00  0.00     0.162 HD
BRANCH  10  12
ATOM     12  C   UNL d   1      28.135 -14.422  -5.825  0.00  0.00     0.149 C 
BRANCH  12  13
ATOM     13  C   UNL d   1      29.319 -15.177  -6.446  0.00  0.00     0.195 C 
BRANCH  13  14
ATOM     14  O   UNL d   1      30.029 -15.811  -5.403  0.00  0.00    -0.350 OA
BRANCH  14  15
ATOM     15  C   UNL d   1      30.363 -17.120  -5.589  0.00  0.00     0.068 A 
ATOM     16  C   UNL d   1      30.784 -17.421  -6.884  0.00  0.00     0.037 A 
ATOM     17  C   UNL d   1      30.947 -18.744  -7.282  0.00  0.00     0.003 A 
ATOM     18  C   UNL d   1      30.778 -19.772  -6.358  0.00  0.00     0.000 A 
ATOM     19  C   UNL d   1      30.407 -19.475  -5.048  0.00  0.00     0.003 A 
ATOM     20  C   UNL d   1      30.192 -18.148  -4.661  0.00  0.00     0.037 A 
ENDBRANCH  14  15
ENDBRANCH  13  14
ENDBRANCH  12  13
ENDBRANCH  10  12
ENDBRANCH   1   8
BRANCH   3  21
ATOM     21  C   UNL d   1      28.079 -13.987   0.901  0.00  0.00     0.228 C 
ATOM     22  O   UNL d   1      28.015 -12.786   0.575  0.00  0.00    -0.273 OA
ATOM     23  N   UNL d   1      28.403 -14.456   2.164  0.00  0.00    -0.327 N 
ATOM     24  H   UNL d   1      28.529 -15.441   2.359  0.00  0.00     0.169 HD
BRANCH  23  25
ATOM     25  C   UNL d   1      28.523 -13.642   3.312  0.00  0.00     0.035 C 
ATOM     26  C   UNL d   1      27.985 -12.344   3.349  0.00  0.00     0.030 C 
ATOM     27  C   UNL d   1      27.987 -11.662   4.569  0.00  0.00     0.010 C 
ATOM     28  C   UNL d   1      28.619 -12.303   5.624  0.00  0.00    -0.052 C 
ATOM     29  C   UNL d   1      29.596 -13.247   5.496  0.00  0.00    -0.050 C 
ATOM     30  C   UNL d   1      28.293 -12.707   7.005  0.00  0.00     0.039 C 
ATOM     31  C   UNL d   1      29.305 -14.098   4.389  0.00  0.00     0.037 C 
ATOM     32  C   UNL d   1      30.103 -13.659   7.111  0.00  0.00     0.039 C 
ATOM     33  C   UNL d   1      28.905 -14.448   6.963  0.00  0.00     0.009 C 
ENDBRANCH  23  25
ENDBRANCH   3  21
BRANCH   5  34
ATOM     34  C   UNL d   1      25.683 -18.366  -0.136  0.00  0.00     0.273 C 
BRANCH  34  35
ATOM     35  C   UNL d   1      24.200 -18.207  -0.433  0.00  0.00    -0.032 A 
ATOM     36  C   UNL d   1      23.556 -16.957  -0.472  0.00  0.00     0.011 A 
ATOM     37  C   UNL d   1      22.155 -16.878  -0.616  0.00  0.00     0.037 A 
ATOM     38  C   UNL d   1      21.413 -18.028  -0.857  0.00  0.00     0.065 A 
ATOM     39  C   UNL d   1      22.027 -19.262  -0.840  0.00  0.00     0.037 A 
ATOM     40  C   UNL d   1      23.382 -19.341  -0.551  0.00  0.00     0.011 A 
BRANCH  38  41
ATOM     41  O   UNL d   1      20.075 -18.017  -1.094  0.00  0.00    -0.361 OA
ATOM     42  H   UNL d   1      19.786 -17.121  -1.327  0.00  0.00     0.217 HD
ENDBRANCH  38  41
ENDBRANCH  34  35
ENDBRANCH   5  34
TORSDOF 10
ENDMDL
MODEL 5
REMARK VINA RESULT:   -10.353      2.797      9.826
REMARK INTER + INTRA:         -15.596
REMARK INTER:                 -13.336
REMARK INTRA:                  -2.259
REMARK CONF_INDEPENDENT:        2.983
REMARK UNBOUND:                -2.259
REMARK  10 active torsions:
REMARK  status: ('A' for Active; 'I' for Inactive)
REMARK       I    between atoms: C_2  and  N_3 
REMARK    1  A    between atoms: C_13  and  C_2 
REMARK    2  A    between atoms: N_3  and  C_4 
REMARK    3  A    between atoms: C_4  and  C_5 
REMARK    4  A    between atoms: C_5  and  O_6 
REMARK    5  A    between atoms: O_6  and  C_7 
REMARK    6  A    between atoms: C_15  and  C_16 
REMARK       I    between atoms: C_16  and  N_18 
REMARK    7  A    between atoms: N_18  and  C_19 
REMARK    8  A    between atoms: N_29  and  C_30 
REMARK    9  A    between atoms: C_30  and  C_31 
REMARK   10  A    between atoms: C_34  and  O_35 
ROOT
ATOM      1  C   UNL d   1      26.708 -15.591  -2.768  0.00  0.00     0.104 C 
ATOM      2  C   UNL d   1      26.639 -14.334  -1.892  0.00  0.00     0.031 C 
ATOM      3  C   UNL d   1      27.472 -14.580  -0.674  0.00  0.00     0.105 C 
ATOM      4  C   UNL d   1      26.742 -15.653   0.118  0.00  0.00     0.249 C 
ATOM      5  N   UNL d   1      26.510 -16.959  -0.683  0.00  0.00    -0.066 N 
ATOM      6  C   UNL d   1      25.883 -16.693  -2.108  0.00  0.00     0.249 C 
ATOM      7  H   UNL d   1      27.426 -17.408  -0.813  0.00  0.00     0.280 HD
ENDROOT
BRANCH   1   8
ATOM      8  C   UNL d   1      26.440 -15.102  -4.160  0.00  0.00     0.223 C 
ATOM      9  O   UNL d   1      25.301 -14.903  -4.640  0.00  0.00    -0.273 OA
ATOM     10  N   UNL d   1      27.644 -14.899  -4.787  0.00  0.00    -0.359 N 
ATOM     11  H   UNL d   1      28.482 -15.163  -4.286  0.00  0.00     0.162 HD
BRANCH  10  12
ATOM     12  C   UNL d   1      27.901 -14.352  -6.095  0.00  0.00     0.149 C 
BRANCH  12  13
ATOM     13  C   UNL d   1      29.376 -14.587  -6.451  0.00  0.00     0.195 C 
BRANCH  13  14
ATOM     14  O   UNL d   1      29.929 -15.452  -5.482  0.00  0.00    -0.350 OA
BRANCH  14  15
ATOM     15  C   UNL d   1      30.173 -16.738  -5.866  0.00  0.00     0.068 A 
ATOM     16  C   UNL d   1      30.024 -17.674  -4.842  0.00  0.00     0.037 A 
ATOM     17  C   UNL d   1      30.446 -18.988  -5.023  0.00  0.00     0.003 A 
ATOM     18  C   UNL d   1      30.937 -19.394  -6.260  0.00  0.00     0.000 A 
ATOM     19  C   UNL d   1      31.041 -18.475  -7.304  0.00  0.00     0.003 A 
ATOM     20  C   UNL d   1      30.664 -17.142  -7.107  0.00  0.00     0.037 A 
ENDBRANCH  14  15
ENDBRANCH  13  14
ENDBRANCH  12  13
ENDBRANCH  10  12
ENDBRANCH   1   8
BRANCH   3  21
ATOM     21  C   UNL d   1      27.621 -13.291   0.120  0.00  0.00     0.228 C 
ATOM     22  O   UNL d   1      27.969 -12.254  -0.476  0.00  0.00    -0.273 OA
ATOM     23  N   UNL d   1      27.377 -13.387   1.481  0.00  0.00    -0.327 N 
ATOM     24  H   UNL d   1      27.182 -14.271   1.935  0.00  0.00     0.169 HD
BRANCH  23  25
ATOM     25  C   UNL d   1      27.304 -12.283   2.359  0.00  0.00     0.035 C 
ATOM     26  C   UNL d   1      27.707 -12.386   3.701  0.00  0.00     0.030 C 
ATOM     27  C   UNL d   1      27.772 -11.217   4.464  0.00  0.00     0.010 C 
ATOM     28  C   UNL d   1      27.335 -10.058   3.841  0.00  0.00    -0.052 C 
ATOM     29  C   UNL d   1      26.452 -10.012   2.802  0.00  0.00    -0.050 C 
ATOM     30  C   UNL d   1      27.855  -8.705   3.568  0.00  0.00     0.039 C 
ATOM     31  C   UNL d   1      26.702 -11.094   1.907  0.00  0.00     0.037 C 
ATOM     32  C   UNL d   1      26.177  -8.326   2.458  0.00  0.00     0.039 C 
ATOM     33  C   UNL d   1      27.425  -8.571   1.778  0.00  0.00     0.009 C 
ENDBRANCH  23  25
ENDBRANCH   3  21
BRANCH   5  34
ATOM     34  C   UNL d   1      25.703 -18.015   0.116  0.00  0.00     0.273 C 
BRANCH  34  35
ATOM     35  C   UNL d   1      24.216 -18.097  -0.193  0.00  0.00    -0.032 A 
ATOM     36  C   UNL d   1      23.539 -19.314  -0.387  0.00  0.00     0.011 A 
ATOM     37  C   UNL d   1      22.191 -19.324  -0.806  0.00  0.00     0.037 A 
ATOM     38  C   UNL d   1      21.481 -18.133  -0.898  0.00  0.00     0.065 A 
ATOM     39  C   UNL d   1      22.121 -16.930  -0.695  0.00  0.00     0.037 A 
ATOM     40  C   UNL d   1      23.483 -16.923  -0.427  0.00  0.00     0.011 A 
BRANCH  38  41
ATOM     41  O   UNL d   1      20.160 -18.075  -1.208  0.00  0.00    -0.361 OA
ATOM     42  H   UNL d   1      19.864 -17.152  -1.238  0.00  0.00     0.217 HD
ENDBRANCH  38  41
ENDBRANCH  34  35
ENDBRANCH   5  34
TORSDOF 10
ENDMDL
MODEL 6
REMARK VINA RESULT:    -9.626      2.494      4.058
REMARK INTER + INTRA:         -15.707
REMARK INTER:                 -12.609
REMARK INTRA:                  -3.098
REMARK CONF_INDEPENDENT:        2.983
REMARK UNBOUND:                -3.098
REMARK  10 active torsions:
REMARK  status: ('A' for Active; 'I' for Inactive)
REMARK       I    between atoms: C_2  and  N_3 
REMARK    1  A    between atoms: C_13  and  C_2 
REMARK    2  A    between atoms: N_3  and  C_4 
REMARK    3  A    between atoms: C_4  and  C_5 
REMARK    4  A    between atoms: C_5  and  O_6 
REMARK    5  A    between atoms: O_6  and  C_7 
REMARK    6  A    between atoms: C_15  and  C_16 
REMARK       I    between atoms: C_16  and  N_18 
REMARK    7  A    between atoms: N_18  and  C_19 
REMARK    8  A    between atoms: N_29  and  C_30 
REMARK    9  A    between atoms: C_30  and  C_31 
REMARK   10  A    between atoms: C_34  and  O_35 
ROOT
ATOM      1  C   UNL d   1      27.878 -17.303   0.179  0.00  0.00     0.104 C 
ATOM      2  C   UNL d   1      28.441 -17.035  -1.221  0.00  0.00     0.031 C 
ATOM      3  C   UNL d   1      29.917 -16.828  -1.089  0.00  0.00     0.105 C 
ATOM      4  C   UNL d   1      30.085 -15.515  -0.339  0.00  0.00     0.249 C 
ATOM      5  N   UNL d   1      29.384 -15.501   1.043  0.00  0.00    -0.066 N 
ATOM      6  C   UNL d   1      27.885 -15.995   0.967  0.00  0.00     0.249 C 
ATOM      7  H   UNL d   1      29.902 -16.140   1.659  0.00  0.00     0.280 HD
ENDROOT
BRANCH   1   8
ATOM      8  C   UNL d   1      26.628 -18.099  -0.057  0.00  0.00     0.223 C 
ATOM      9  O   UNL d   1      26.485 -19.306   0.240  0.00  0.00    -0.273 OA
ATOM     10  N   UNL d   1      25.690 -17.274  -0.625  0.00  0.00    -0.359 N 
ATOM     11  H   UNL d   1      25.977 -16.332  -0.860  0.00  0.00     0.162 HD
BRANCH  10  12
ATOM     12  C   UNL d   1      24.316 -17.557  -0.951  0.00  0.00     0.149 C 
BRANCH  12  13
ATOM     13  C   UNL d   1      23.695 -16.317  -1.610  0.00  0.00     0.195 C 
BRANCH  13  14
ATOM     14  O   UNL d   1      24.655 -15.282  -1.587  0.00  0.00    -0.350 OA
BRANCH  14  15
ATOM     15  C   UNL d   1      25.153 -14.872  -2.789  0.00  0.00     0.068 A 
ATOM     16  C   UNL d   1      26.275 -15.585  -3.211  0.00  0.00     0.037 A 
ATOM     17  C   UNL d   1      27.020 -15.145  -4.301  0.00  0.00     0.003 A 
ATOM     18  C   UNL d   1      26.594 -14.039  -5.031  0.00  0.00     0.000 A 
ATOM     19  C   UNL d   1      25.444 -13.352  -4.645  0.00  0.00     0.003 A 
ATOM     20  C   UNL d   1      24.724 -13.763  -3.518  0.00  0.00     0.037 A 
ENDBRANCH  14  15
ENDBRANCH  13  14
ENDBRANCH  12  13
ENDBRANCH  10  12
ENDBRANCH   1   8
BRANCH   3  21
ATOM     21  C   UNL d   1      30.559 -16.780  -2.466  0.00  0.00     0.228 C 
ATOM     22  O   UNL d   1      31.802 -16.782  -2.551  0.00  0.00    -0.273 OA
ATOM     23  N   UNL d   1      29.685 -16.709  -3.539  0.00  0.00    -0.327 N 
ATOM     24  H   UNL d   1      28.683 -16.621  -3.417  0.00  0.00     0.169 HD
BRANCH  23  25
ATOM     25  C   UNL d   1      30.072 -16.817  -4.894  0.00  0.00     0.035 C 
ATOM     26  C   UNL d   1      30.004 -15.718  -5.766  0.00  0.00     0.030 C 
ATOM     27  C   UNL d   1      30.564 -15.848  -7.040  0.00  0.00     0.010 C 
ATOM     28  C   UNL d   1      31.057 -17.103  -7.362  0.00  0.00    -0.052 C 
ATOM     29  C   UNL d   1      30.649 -18.276  -6.796  0.00  0.00    -0.050 C 
ATOM     30  C   UNL d   1      32.322 -17.684  -7.853  0.00  0.00     0.039 C 
ATOM     31  C   UNL d   1      30.415 -18.084  -5.402  0.00  0.00     0.037 C 
ATOM     32  C   UNL d   1      31.512 -19.550  -7.613  0.00  0.00     0.039 C 
ATOM     33  C   UNL d   1      32.493 -19.085  -6.663  0.00  0.00     0.009 C 
ENDBRANCH  23  25
ENDBRANCH   3  21
BRANCH   5  34
ATOM     34  C   UNL d   1      29.506 -14.132   1.762  0.00  0.00     0.273 C 
BRANCH  34  35
ATOM     35  C   UNL d   1      29.214 -14.131   3.254  0.00  0.00    -0.032 A 
ATOM     36  C   UNL d   1      27.989 -13.703   3.796  0.00  0.00     0.011 A 
ATOM     37  C   UNL d   1      27.823 -13.593   5.193  0.00  0.00     0.037 A 
ATOM     38  C   UNL d   1      28.822 -14.038   6.050  0.00  0.00     0.065 A 
ATOM     39  C   UNL d   1      30.024 -14.478   5.540  0.00  0.00     0.037 A 
ATOM     40  C   UNL d   1      30.233 -14.444   4.169  0.00  0.00     0.011 A 
BRANCH  38  41
ATOM     41  O   UNL d   1      28.695 -14.046   7.403  0.00  0.00    -0.361 OA
ATOM     42  H   UNL d   1      29.054 -14.869   7.767  0.00  0.00     0.217 HD
ENDBRANCH  38  41
ENDBRANCH  34  35
ENDBRANCH   5  34
TORSDOF 10
ENDMDL
