MODEL 1
REMARK VINA RESULT:    -8.881      0.000      0.000
REMARK INTER + INTRA:         -10.852
REMARK INTER:                  -9.776
REMARK INTRA:                  -1.076
REMARK CONF_INDEPENDENT:        0.895
REMARK UNBOUND:                -1.076
REMARK  3 active torsions:
REMARK  status: ('A' for Active; 'I' for Inactive)
REMARK    1  A    between atoms: C_5  and  N_6 
REMARK       I    between atoms: N_6  and  C_7 
REMARK    2  A    between atoms: C_7  and  C_9 
REMARK    3  A    between atoms: C_17  and  O_18 
ROOT
ATOM      1  N   UNL d   1      22.156 -18.164   0.391  0.00  0.00    -0.320 N 
ATOM      2  C   UNL d   1      23.171 -18.388  -0.536  0.00  0.00     0.259 C 
ATOM      3  O   UNL d   1      23.269 -19.334  -1.318  0.00  0.00    -0.267 OA
ATOM      4  H   UNL d   1      22.230 -17.333   0.957  0.00  0.00     0.169 HD
ENDROOT
BRANCH   1   5
ATOM      5  C   UNL d   1      21.038 -19.033   0.610  0.00  0.00     0.068 A 
ATOM      6  C   UNL d   1      20.593 -19.325   1.908  0.00  0.00     0.033 A 
ATOM      7  C   UNL d   1      19.491 -20.149   2.160  0.00  0.00     0.009 A 
ATOM      8  C   UNL d   1      18.783 -20.711   1.108  0.00  0.00    -0.059 A 
ATOM      9  C   UNL d   1      17.585 -21.575   1.355  0.00  0.00     0.048 C 
ATOM     10  C   UNL d   1      19.211 -20.450  -0.197  0.00  0.00     0.045 A 
ATOM     11  C   UNL d   1      20.325 -19.630  -0.446  0.00  0.00     0.092 A 
BRANCH  11  12
ATOM     12  O   UNL d   1      20.623 -19.489  -1.774  0.00  0.00    -0.358 OA
ATOM     13  H   UNL d   1      21.267 -18.783  -1.899  0.00  0.00     0.217 HD
ENDBRANCH  11  12
ENDBRANCH   1   5
BRANCH   2  14
ATOM     14  C   UNL d   1      24.248 -17.388  -0.661  0.00  0.00     0.072 A 
ATOM     15  C   UNL d   1      24.110 -16.393  -1.644  0.00  0.00     0.039 A 
ATOM     16  C   UNL d   1      25.142 -15.484  -1.868  0.00  0.00     0.012 A 
ATOM     17 BR   UNL d   1      24.945 -14.146  -3.189  0.00  0.00    -0.051 Br
ATOM     18  C   UNL d   1      26.322 -15.565  -1.130  0.00  0.00     0.022 A 
ATOM     19  C   UNL d   1      26.470 -16.571  -0.171  0.00  0.00     0.044 A 
ATOM     20  C   UNL d   1      25.433 -17.478   0.060  0.00  0.00     0.132 A 
ATOM     21  F   UNL d   1      25.613 -18.449   0.965  0.00  0.00    -0.205 F 
ENDBRANCH   2  14
TORSDOF 3
ENDMDL
MODEL 2
REMARK VINA RESULT:    -8.030      1.827      2.117
REMARK INTER + INTRA:          -9.479
REMARK INTER:                  -8.925
REMARK INTRA:                  -0.555
REMARK CONF_INDEPENDENT:        0.895
REMARK UNBOUND:                -0.555
REMARK  3 active torsions:
REMARK  status: ('A' for Active; 'I' for Inactive)
REMARK    1  A    between atoms: C_5  and  N_6 
REMARK       I    between atoms: N_6  and  C_7 
REMARK    2  A    between atoms: C_7  and  C_9 
REMARK    3  A    between atoms: C_17  and  O_18 
ROOT
ATOM      1  N   UNL d   1      22.288 -18.124  -0.659  0.00  0.00    -0.320 N 
ATOM      2  C   UNL d   1      23.551 -17.976  -0.089  0.00  0.00     0.259 C 
ATOM      3  O   UNL d   1      23.964 -18.499   0.946  0.00  0.00    -0.267 OA
ATOM      4  H   UNL d   1      22.113 -17.621  -1.517  0.00  0.00     0.169 HD
ENDROOT
BRANCH   1   5
ATOM      5  C   UNL d   1      21.225 -18.912  -0.110  0.00  0.00     0.068 A 
ATOM      6  C   UNL d   1      21.028 -18.993   1.277  0.00  0.00     0.033 A 
ATOM      7  C   UNL d   1      19.987 -19.731   1.848  0.00  0.00     0.009 A 
ATOM      8  C   UNL d   1      19.091 -20.418   1.041  0.00  0.00    -0.059 A 
ATOM      9  C   UNL d   1      17.954 -21.195   1.631  0.00  0.00     0.048 C 
ATOM     10  C   UNL d   1      19.271 -20.368  -0.344  0.00  0.00     0.045 A 
ATOM     11  C   UNL d   1      20.324 -19.633  -0.915  0.00  0.00     0.092 A 
BRANCH  11  12
ATOM     12  O   UNL d   1      20.371 -19.699  -2.281  0.00  0.00    -0.358 OA
ATOM     13  H   UNL d   1      19.569 -19.325  -2.662  0.00  0.00     0.217 HD
ENDBRANCH  11  12
ENDBRANCH   1   5
BRANCH   2  14
ATOM     14  C   UNL d   1      24.549 -17.146  -0.787  0.00  0.00     0.072 A 
ATOM     15  C   UNL d   1      25.908 -17.459  -0.605  0.00  0.00     0.039 A 
ATOM     16  C   UNL d   1      26.893 -16.646  -1.163  0.00  0.00     0.012 A 
ATOM     17 BR   UNL d   1      28.716 -17.078  -0.917  0.00  0.00    -0.051 Br
ATOM     18  C   UNL d   1      26.538 -15.512  -1.892  0.00  0.00     0.022 A 
ATOM     19  C   UNL d   1      25.188 -15.186  -2.051  0.00  0.00     0.044 A 
ATOM     20  C   UNL d   1      24.200 -16.003  -1.498  0.00  0.00     0.132 A 
ATOM     21  F   UNL d   1      22.915 -15.652  -1.642  0.00  0.00    -0.205 F 
ENDBRANCH   2  14
TORSDOF 3
ENDMDL
MODEL 3
REMARK VINA RESULT:    -6.754      4.563      8.628
REMARK INTER + INTRA:          -8.680
REMARK INTER:                  -7.649
REMARK INTRA:                  -1.030
REMARK CONF_INDEPENDENT:        0.895
REMARK UNBOUND:                -1.030
REMARK  3 active torsions:
REMARK  status: ('A' for Active; 'I' for Inactive)
REMARK    1  A    between atoms: C_5  and  N_6 
REMARK       I    between atoms: N_6  and  C_7 
REMARK    2  A    between atoms: C_7  and  C_9 
REMARK    3  A    between atoms: C_17  and  O_18 
ROOT
ATOM      1  N   UNL d   1      26.636 -14.940  -3.449  0.00  0.00    -0.320 N 
ATOM      2  C   UNL d   1      25.394 -15.176  -2.865  0.00  0.00     0.259 C 
ATOM      3  O   UNL d   1      24.329 -14.621  -3.135  0.00  0.00    -0.267 OA
ATOM      4  H   UNL d   1      27.413 -15.487  -3.108  0.00  0.00     0.169 HD
ENDROOT
BRANCH   1   5
ATOM      5  C   UNL d   1      26.893 -13.970  -4.472  0.00  0.00     0.068 A 
ATOM      6  C   UNL d   1      27.836 -14.216  -5.481  0.00  0.00     0.033 A 
ATOM      7  C   UNL d   1      28.095 -13.304  -6.509  0.00  0.00     0.009 A 
ATOM      8  C   UNL d   1      27.405 -12.101  -6.567  0.00  0.00    -0.059 A 
ATOM      9  C   UNL d   1      27.649 -11.121  -7.673  0.00  0.00     0.048 C 
ATOM     10  C   UNL d   1      26.470 -11.821  -5.567  0.00  0.00     0.045 A 
ATOM     11  C   UNL d   1      26.219 -12.736  -4.530  0.00  0.00     0.092 A 
BRANCH  11  12
ATOM     12  O   UNL d   1      25.288 -12.306  -3.624  0.00  0.00    -0.358 OA
ATOM     13  H   UNL d   1      24.405 -12.579  -3.895  0.00  0.00     0.217 HD
ENDBRANCH  11  12
ENDBRANCH   1   5
BRANCH   2  14
ATOM     14  C   UNL d   1      25.285 -16.226  -1.835  0.00  0.00     0.072 A 
ATOM     15  C   UNL d   1      24.030 -16.832  -1.645  0.00  0.00     0.039 A 
ATOM     16  C   UNL d   1      23.851 -17.759  -0.620  0.00  0.00     0.012 A 
ATOM     17 BR   UNL d   1      22.162 -18.572  -0.376  0.00  0.00    -0.051 Br
ATOM     18  C   UNL d   1      24.907 -18.079   0.230  0.00  0.00     0.022 A 
ATOM     19  C   UNL d   1      26.147 -17.457   0.058  0.00  0.00     0.044 A 
ATOM     20  C   UNL d   1      26.331 -16.533  -0.973  0.00  0.00     0.132 A 
ATOM     21  F   UNL d   1      27.521 -15.931  -1.098  0.00  0.00    -0.205 F 
ENDBRANCH   2  14
TORSDOF 3
ENDMDL
MODEL 4
REMARK VINA RESULT:    -6.644      4.291      8.094
REMARK INTER + INTRA:          -8.629
REMARK INTER:                  -7.539
REMARK INTRA:                  -1.090
REMARK CONF_INDEPENDENT:        0.895
REMARK UNBOUND:                -1.090
REMARK  3 active torsions:
REMARK  status: ('A' for Active; 'I' for Inactive)
REMARK    1  A    between atoms: C_5  and  N_6 
REMARK       I    between atoms: N_6  and  C_7 
REMARK    2  A    between atoms: C_7  and  C_9 
REMARK    3  A    between atoms: C_17  and  O_18 
ROOT
ATOM      1  N   UNL d   1      25.410 -14.941  -2.901  0.00  0.00    -0.320 N 
ATOM      2  C   UNL d   1      26.222 -15.954  -2.397  0.00  0.00     0.259 C 
ATOM      3  O   UNL d   1      27.417 -16.134  -2.630  0.00  0.00    -0.267 OA
ATOM      4  H   UNL d   1      24.445 -14.939  -2.606  0.00  0.00     0.169 HD
ENDROOT
BRANCH   1   5
ATOM      5  C   UNL d   1      25.837 -13.925  -3.818  0.00  0.00     0.068 A 
ATOM      6  C   UNL d   1      25.487 -12.581  -3.622  0.00  0.00     0.033 A 
ATOM      7  C   UNL d   1      25.905 -11.561  -4.481  0.00  0.00     0.009 A 
ATOM      8  C   UNL d   1      26.705 -11.852  -5.578  0.00  0.00    -0.059 A 
ATOM      9  C   UNL d   1      27.185 -10.771  -6.496  0.00  0.00     0.048 C 
ATOM     10  C   UNL d   1      27.058 -13.185  -5.807  0.00  0.00     0.045 A 
ATOM     11  C   UNL d   1      26.628 -14.209  -4.947  0.00  0.00     0.092 A 
BRANCH  11  12
ATOM     12  O   UNL d   1      27.045 -15.458  -5.320  0.00  0.00    -0.358 OA
ATOM     13  H   UNL d   1      27.700 -15.792  -4.697  0.00  0.00     0.217 HD
ENDBRANCH  11  12
ENDBRANCH   1   5
BRANCH   2  14
ATOM     14  C   UNL d   1      25.641 -16.917  -1.443  0.00  0.00     0.072 A 
ATOM     15  C   UNL d   1      24.288 -17.265  -1.602  0.00  0.00     0.039 A 
ATOM     16  C   UNL d   1      23.666 -18.093  -0.670  0.00  0.00     0.012 A 
ATOM     17 BR   UNL d   1      21.848 -18.560  -0.895  0.00  0.00    -0.051 Br
ATOM     18  C   UNL d   1      24.375 -18.568   0.432  0.00  0.00     0.022 A 
ATOM     19  C   UNL d   1      25.713 -18.200   0.605  0.00  0.00     0.044 A 
ATOM     20  C   UNL d   1      26.340 -17.376  -0.332  0.00  0.00     0.132 A 
ATOM     21  F   UNL d   1      27.614 -17.017  -0.128  0.00  0.00    -0.205 F 
ENDBRANCH   2  14
TORSDOF 3
ENDMDL
MODEL 5
REMARK VINA RESULT:    -6.111      6.244      8.979
REMARK INTER + INTRA:          -7.560
REMARK INTER:                  -7.006
REMARK INTRA:                  -0.554
REMARK CONF_INDEPENDENT:        0.895
REMARK UNBOUND:                -0.554
REMARK  3 active torsions:
REMARK  status: ('A' for Active; 'I' for Inactive)
REMARK    1  A    between atoms: C_5  and  N_6 
REMARK       I    between atoms: N_6  and  C_7 
REMARK    2  A    between atoms: C_7  and  C_9 
REMARK    3  A    between atoms: C_17  and  O_18 
ROOT
ATOM      1  N   UNL d   1      28.381 -14.693   2.978  0.00  0.00    -0.320 N 
ATOM      2  C   UNL d   1      27.528 -14.277   1.959  0.00  0.00     0.259 C 
ATOM      3  O   UNL d   1      26.763 -13.313   1.977  0.00  0.00    -0.267 OA
ATOM      4  H   UNL d   1      28.946 -15.510   2.797  0.00  0.00     0.169 HD
ENDROOT
BRANCH   1   5
ATOM      5  C   UNL d   1      28.497 -14.064   4.260  0.00  0.00     0.068 A 
ATOM      6  C   UNL d   1      27.712 -12.950   4.593  0.00  0.00     0.033 A 
ATOM      7  C   UNL d   1      27.780 -12.325   5.842  0.00  0.00     0.009 A 
ATOM      8  C   UNL d   1      28.643 -12.804   6.818  0.00  0.00    -0.059 A 
ATOM      9  C   UNL d   1      28.713 -12.166   8.171  0.00  0.00     0.048 C 
ATOM     10  C   UNL d   1      29.448 -13.904   6.511  0.00  0.00     0.045 A 
ATOM     11  C   UNL d   1      29.384 -14.524   5.251  0.00  0.00     0.092 A 
BRANCH  11  12
ATOM     12  O   UNL d   1      30.248 -15.575   5.106  0.00  0.00    -0.358 OA
ATOM     13  H   UNL d   1      29.946 -16.162   4.404  0.00  0.00     0.217 HD
ENDBRANCH  11  12
ENDBRANCH   1   5
BRANCH   2  14
ATOM     14  C   UNL d   1      27.538 -15.018   0.683  0.00  0.00     0.072 A 
ATOM     15  C   UNL d   1      26.323 -15.562   0.230  0.00  0.00     0.039 A 
ATOM     16  C   UNL d   1      26.298 -16.352  -0.918  0.00  0.00     0.012 A 
ATOM     17 BR   UNL d   1      24.659 -17.075  -1.523  0.00  0.00    -0.051 Br
ATOM     18  C   UNL d   1      27.476 -16.620  -1.613  0.00  0.00     0.022 A 
ATOM     19  C   UNL d   1      28.687 -16.101  -1.148  0.00  0.00     0.044 A 
ATOM     20  C   UNL d   1      28.714 -15.303  -0.002  0.00  0.00     0.132 A 
ATOM     21  F   UNL d   1      29.892 -14.842   0.438  0.00  0.00    -0.205 F 
ENDBRANCH   2  14
TORSDOF 3
ENDMDL
MODEL 6
REMARK VINA RESULT:    -6.041      5.224      9.111
REMARK INTER + INTRA:          -7.500
REMARK INTER:                  -6.936
REMARK INTRA:                  -0.564
REMARK CONF_INDEPENDENT:        0.895
REMARK UNBOUND:                -0.564
REMARK  3 active torsions:
REMARK  status: ('A' for Active; 'I' for Inactive)
REMARK    1  A    between atoms: C_5  and  N_6 
REMARK       I    between atoms: N_6  and  C_7 
REMARK    2  A    between atoms: C_7  and  C_9 
REMARK    3  A    between atoms: C_17  and  O_18 
ROOT
ATOM      1  N   UNL d   1      26.099 -13.041  -3.158  0.00  0.00    -0.320 N 
ATOM      2  C   UNL d   1      25.365 -14.209  -3.350  0.00  0.00     0.259 C 
ATOM      3  O   UNL d   1      24.580 -14.450  -4.267  0.00  0.00    -0.267 OA
ATOM      4  H   UNL d   1      26.701 -13.007  -2.349  0.00  0.00     0.169 HD
ENDROOT
BRANCH   1   5
ATOM      5  C   UNL d   1      26.044 -11.886  -4.005  0.00  0.00     0.068 A 
ATOM      6  C   UNL d   1      25.905 -12.016  -5.395  0.00  0.00     0.033 A 
ATOM      7  C   UNL d   1      25.824 -10.913  -6.250  0.00  0.00     0.009 A 
ATOM      8  C   UNL d   1      25.872  -9.624  -5.737  0.00  0.00    -0.059 A 
ATOM      9  C   UNL d   1      25.761  -8.429  -6.633  0.00  0.00     0.048 C 
ATOM     10  C   UNL d   1      26.025  -9.463  -4.357  0.00  0.00     0.045 A 
ATOM     11  C   UNL d   1      26.117 -10.574  -3.502  0.00  0.00     0.092 A 
BRANCH  11  12
ATOM     12  O   UNL d   1      26.280 -10.247  -2.183  0.00  0.00    -0.358 OA
ATOM     13  H   UNL d   1      26.257  -9.290  -2.070  0.00  0.00     0.217 HD
ENDBRANCH  11  12
ENDBRANCH   1   5
BRANCH   2  14
ATOM     14  C   UNL d   1      25.546 -15.322  -2.401  0.00  0.00     0.072 A 
ATOM     15  C   UNL d   1      24.405 -16.043  -2.007  0.00  0.00     0.039 A 
ATOM     16  C   UNL d   1      24.509 -17.040  -1.039  0.00  0.00     0.012 A 
ATOM     17 BR   UNL d   1      22.970 -18.007  -0.520  0.00  0.00    -0.051 Br
ATOM     18  C   UNL d   1      25.738 -17.317  -0.444  0.00  0.00     0.022 A 
ATOM     19  C   UNL d   1      26.868 -16.582  -0.816  0.00  0.00     0.044 A 
ATOM     20  C   UNL d   1      26.767 -15.588  -1.792  0.00  0.00     0.132 A 
ATOM     21  F   UNL d   1      27.860 -14.880  -2.109  0.00  0.00    -0.205 F 
ENDBRANCH   2  14
TORSDOF 3
ENDMDL
