MODEL 1
REMARK VINA RESULT:    -9.836      0.000      0.000
REMARK INTER + INTRA:         -13.439
REMARK INTER:                 -11.924
REMARK INTRA:                  -1.515
REMARK CONF_INDEPENDENT:        2.088
REMARK UNBOUND:                -1.515
REMARK  7 active torsions:
REMARK  status: ('A' for Active; 'I' for Inactive)
REMARK    1  A    between atoms: C_10  and  C_11 
REMARK    2  A    between atoms: C_11  and  C_13 
REMARK       I    between atoms: C_13  and  N_15 
REMARK    3  A    between atoms: N_15  and  C_16 
REMARK    4  A    between atoms: C_16  and  C_17 
REMARK    5  A    between atoms: C_17  and  S_18 
REMARK    6  A    between atoms: S_18  and  C_19 
REMARK    7  A    between atoms: C_20  and  C_21 
ROOT
ATOM      1  C   UNL d   1      27.687 -14.719   2.225  0.00  0.00     0.133 C 
ENDROOT
BRANCH   1   2
ATOM      2  N   UNL d   1      28.564 -14.817   3.398  0.00  0.00    -0.353 N 
ATOM      3  C   UNL d   1      28.080 -14.249   4.557  0.00  0.00     0.292 C 
ATOM      4  O   UNL d   1      26.965 -13.742   4.496  0.00  0.00    -0.264 OA
ATOM      5  H   UNL d   1      29.491 -15.235   3.396  0.00  0.00     0.162 HD
BRANCH   3   6
ATOM      6  C   UNL d   1      28.946 -14.280   5.848  0.00  0.00     0.252 C 
ATOM      7  O   UNL d   1      29.811 -15.159   5.882  0.00  0.00    -0.281 OA
BRANCH   6   8
ATOM      8  C   UNL d   1      28.755 -13.325   6.976  0.00  0.00     0.054 A 
ATOM      9  C   UNL d   1      28.775 -13.642   8.392  0.00  0.00     0.007 A 
ATOM     10  C   UNL d   1      28.979 -14.824   9.138  0.00  0.00     0.015 A 
ATOM     11  C   UNL d   1      28.530 -12.468   9.111  0.00  0.00     0.043 A 
ATOM     12  C   UNL d   1      28.938 -14.790  10.539  0.00  0.00     0.001 A 
ATOM     13  C   UNL d   1      28.676 -13.601  11.214  0.00  0.00     0.002 A 
ATOM     14  C   UNL d   1      28.462 -12.415  10.511  0.00  0.00     0.030 A 
ATOM     15  N   UNL d   1      28.392 -11.464   8.192  0.00  0.00    -0.358 N 
ATOM     16  C   UNL d   1      28.524 -11.950   6.917  0.00  0.00     0.021 A 
ATOM     17  H   UNL d   1      28.221 -10.495   8.422  0.00  0.00     0.166 HD
ATOM     18  C   UNL d   1      28.402 -11.005   5.780  0.00  0.00     0.069 C 
ENDBRANCH   6   8
ENDBRANCH   3   6
ENDBRANCH   1   2
BRANCH   1  19
ATOM     19  C   UNL d   1      28.399 -14.995   0.931  0.00  0.00     0.099 C 
BRANCH  19  20
ATOM     20  S   UNL d   1      27.958 -16.517   0.072  0.00  0.00    -0.125 SA
BRANCH  20  21
ATOM     21  C   UNL d   1      26.979 -16.013  -1.325  0.00  0.00     0.040 A 
ATOM     22  C   UNL d   1      25.622 -16.156  -1.604  0.00  0.00     0.060 A 
ATOM     23  N   UNL d   1      25.423 -15.655  -2.875  0.00  0.00    -0.354 N 
ATOM     24  C   UNL d   1      26.603 -15.210  -3.430  0.00  0.00     0.044 A 
ATOM     25  H   UNL d   1      24.530 -15.639  -3.349  0.00  0.00     0.166 HD
ATOM     26  C   UNL d   1      26.871 -14.660  -4.694  0.00  0.00     0.030 A 
ATOM     27  C   UNL d   1      27.597 -15.415  -2.474  0.00  0.00     0.010 A 
ATOM     28  C   UNL d   1      28.197 -14.325  -4.994  0.00  0.00     0.002 A 
ATOM     29  C   UNL d   1      29.210 -14.513  -4.059  0.00  0.00     0.001 A 
ATOM     30  C   UNL d   1      28.922 -15.048  -2.800  0.00  0.00     0.015 A 
BRANCH  22  31
ATOM     31  C   UNL d   1      24.533 -16.772  -0.845  0.00  0.00    -0.008 C 
ATOM     32  C   UNL d   1      24.765 -17.947  -0.124  0.00  0.00     0.014 C 
ATOM     33  C   UNL d   1      23.702 -18.792   0.209  0.00  0.00     0.001 C 
ATOM     34  C   UNL d   1      22.396 -18.352   0.040  0.00  0.00     0.000 C 
ATOM     35  C   UNL d   1      22.156 -17.098  -0.521  0.00  0.00     0.001 C 
ATOM     36  C   UNL d   1      23.219 -16.322  -0.993  0.00  0.00     0.014 C 
ENDBRANCH  22  31
ENDBRANCH  20  21
ENDBRANCH  19  20
ENDBRANCH   1  19
TORSDOF 7
ENDMDL
MODEL 2
REMARK VINA RESULT:    -8.868      5.998     10.820
REMARK INTER + INTRA:         -13.657
REMARK INTER:                 -10.957
REMARK INTRA:                  -2.700
REMARK CONF_INDEPENDENT:        2.088
REMARK UNBOUND:                -2.700
REMARK  7 active torsions:
REMARK  status: ('A' for Active; 'I' for Inactive)
REMARK    1  A    between atoms: C_10  and  C_11 
REMARK    2  A    between atoms: C_11  and  C_13 
REMARK       I    between atoms: C_13  and  N_15 
REMARK    3  A    between atoms: N_15  and  C_16 
REMARK    4  A    between atoms: C_16  and  C_17 
REMARK    5  A    between atoms: C_17  and  S_18 
REMARK    6  A    between atoms: S_18  and  C_19 
REMARK    7  A    between atoms: C_20  and  C_21 
ROOT
ATOM      1  C   UNL d   1      25.751 -14.740  -4.167  0.00  0.00     0.133 C 
ENDROOT
BRANCH   1   2
ATOM      2  N   UNL d   1      27.115 -15.210  -3.897  0.00  0.00    -0.353 N 
ATOM      3  C   UNL d   1      27.902 -15.434  -5.006  0.00  0.00     0.292 C 
ATOM      4  O   UNL d   1      27.394 -15.200  -6.097  0.00  0.00    -0.264 OA
ATOM      5  H   UNL d   1      27.488 -15.406  -2.972  0.00  0.00     0.162 HD
BRANCH   3   6
ATOM      6  C   UNL d   1      29.355 -15.958  -4.824  0.00  0.00     0.252 C 
ATOM      7  O   UNL d   1      29.759 -15.999  -3.658  0.00  0.00    -0.281 OA
BRANCH   6   8
ATOM      8  C   UNL d   1      30.215 -16.378  -5.966  0.00  0.00     0.054 A 
ATOM      9  C   UNL d   1      30.639 -17.731  -6.279  0.00  0.00     0.007 A 
ATOM     10  C   UNL d   1      30.405 -18.999  -5.702  0.00  0.00     0.015 A 
ATOM     11  C   UNL d   1      31.454 -17.686  -7.414  0.00  0.00     0.043 A 
ATOM     12  C   UNL d   1      30.975 -20.147  -6.269  0.00  0.00     0.001 A 
ATOM     13  C   UNL d   1      31.794 -20.055  -7.391  0.00  0.00     0.002 A 
ATOM     14  C   UNL d   1      32.054 -18.819  -7.983  0.00  0.00     0.030 A 
ATOM     15  N   UNL d   1      31.515 -16.376  -7.805  0.00  0.00    -0.358 N 
ATOM     16  C   UNL d   1      30.784 -15.582  -6.961  0.00  0.00     0.021 A 
ATOM     17  H   UNL d   1      32.025 -16.042  -8.612  0.00  0.00     0.166 HD
ATOM     18  C   UNL d   1      30.732 -14.124  -7.225  0.00  0.00     0.069 C 
ENDBRANCH   6   8
ENDBRANCH   3   6
ENDBRANCH   1   2
BRANCH   1  19
ATOM     19  C   UNL d   1      25.010 -14.330  -2.926  0.00  0.00     0.099 C 
BRANCH  19  20
ATOM     20  S   UNL d   1      25.942 -14.344  -1.384  0.00  0.00    -0.125 SA
BRANCH  20  21
ATOM     21  C   UNL d   1      25.839 -16.013  -0.777  0.00  0.00     0.040 A 
ATOM     22  C   UNL d   1      26.823 -16.916  -0.381  0.00  0.00     0.060 A 
ATOM     23  N   UNL d   1      26.179 -18.101  -0.084  0.00  0.00    -0.354 N 
ATOM     24  C   UNL d   1      24.821 -17.998  -0.289  0.00  0.00     0.044 A 
ATOM     25  H   UNL d   1      26.646 -18.943   0.221  0.00  0.00     0.166 HD
ATOM     26  C   UNL d   1      23.798 -18.950  -0.145  0.00  0.00     0.030 A 
ATOM     27  C   UNL d   1      24.578 -16.694  -0.717  0.00  0.00     0.010 A 
ATOM     28  C   UNL d   1      22.492 -18.560  -0.463  0.00  0.00     0.002 A 
ATOM     29  C   UNL d   1      22.216 -17.263  -0.887  0.00  0.00     0.001 A 
ATOM     30  C   UNL d   1      23.245 -16.325  -1.011  0.00  0.00     0.015 A 
BRANCH  22  31
ATOM     31  C   UNL d   1      28.281 -16.804  -0.329  0.00  0.00    -0.008 C 
ATOM     32  C   UNL d   1      28.873 -15.612   0.101  0.00  0.00     0.014 C 
ATOM     33  C   UNL d   1      30.185 -15.303  -0.265  0.00  0.00     0.001 C 
ATOM     34  C   UNL d   1      30.984 -16.279  -0.849  0.00  0.00     0.000 C 
ATOM     35  C   UNL d   1      30.448 -17.537  -1.123  0.00  0.00     0.001 C 
ATOM     36  C   UNL d   1      29.092 -17.791  -0.895  0.00  0.00     0.014 C 
ENDBRANCH  22  31
ENDBRANCH  20  21
ENDBRANCH  19  20
ENDBRANCH   1  19
TORSDOF 7
ENDMDL
MODEL 3
REMARK VINA RESULT:    -8.804      6.796      9.888
REMARK INTER + INTRA:         -13.939
REMARK INTER:                 -10.892
REMARK INTRA:                  -3.047
REMARK CONF_INDEPENDENT:        2.088
REMARK UNBOUND:                -3.047
REMARK  7 active torsions:
REMARK  status: ('A' for Active; 'I' for Inactive)
REMARK    1  A    between atoms: C_10  and  C_11 
REMARK    2  A    between atoms: C_11  and  C_13 
REMARK       I    between atoms: C_13  and  N_15 
REMARK    3  A    between atoms: N_15  and  C_16 
REMARK    4  A    between atoms: C_16  and  C_17 
REMARK    5  A    between atoms: C_17  and  S_18 
REMARK    6  A    between atoms: S_18  and  C_19 
REMARK    7  A    between atoms: C_20  and  C_21 
ROOT
ATOM      1  C   UNL d   1      25.326 -14.103  -4.522  0.00  0.00     0.133 C 
ENDROOT
BRANCH   1   2
ATOM      2  N   UNL d   1      26.751 -13.750  -4.531  0.00  0.00    -0.353 N 
ATOM      3  C   UNL d   1      27.578 -14.616  -5.215  0.00  0.00     0.292 C 
ATOM      4  O   UNL d   1      27.041 -15.574  -5.759  0.00  0.00    -0.264 OA
ATOM      5  H   UNL d   1      27.154 -12.951  -4.050  0.00  0.00     0.162 HD
BRANCH   3   6
ATOM      6  C   UNL d   1      29.108 -14.340  -5.261  0.00  0.00     0.252 C 
ATOM      7  O   UNL d   1      29.498 -13.409  -4.552  0.00  0.00    -0.281 OA
BRANCH   6   8
ATOM      8  C   UNL d   1      30.050 -15.133  -6.101  0.00  0.00     0.054 A 
ATOM      9  C   UNL d   1      30.406 -16.529  -5.922  0.00  0.00     0.007 A 
ATOM     10  C   UNL d   1      30.022 -17.538  -5.010  0.00  0.00     0.015 A 
ATOM     11  C   UNL d   1      31.336 -16.877  -6.906  0.00  0.00     0.043 A 
ATOM     12  C   UNL d   1      30.564 -18.826  -5.116  0.00  0.00     0.001 A 
ATOM     13  C   UNL d   1      31.501 -19.125  -6.102  0.00  0.00     0.002 A 
ATOM     14  C   UNL d   1      31.909 -18.153  -7.015  0.00  0.00     0.030 A 
ATOM     15  N   UNL d   1      31.531 -15.763  -7.676  0.00  0.00    -0.358 N 
ATOM     16  C   UNL d   1      30.775 -14.716  -7.218  0.00  0.00     0.021 A 
ATOM     17  H   UNL d   1      32.145 -15.721  -8.478  0.00  0.00     0.166 HD
ATOM     18  C   UNL d   1      30.856 -13.417  -7.929  0.00  0.00     0.069 C 
ENDBRANCH   6   8
ENDBRANCH   3   6
ENDBRANCH   1   2
BRANCH   1  19
ATOM     19  C   UNL d   1      24.800 -14.397  -3.146  0.00  0.00     0.099 C 
BRANCH  19  20
ATOM     20  S   UNL d   1      25.910 -14.070  -1.765  0.00  0.00    -0.125 SA
BRANCH  20  21
ATOM     21  C   UNL d   1      26.674 -15.630  -1.385  0.00  0.00     0.040 A 
ATOM     22  C   UNL d   1      26.148 -16.825  -0.898  0.00  0.00     0.060 A 
ATOM     23  N   UNL d   1      27.215 -17.680  -0.707  0.00  0.00    -0.354 N 
ATOM     24  C   UNL d   1      28.408 -17.077  -1.037  0.00  0.00     0.044 A 
ATOM     25  H   UNL d   1      27.134 -18.622  -0.347  0.00  0.00     0.166 HD
ATOM     26  C   UNL d   1      29.726 -17.557  -0.973  0.00  0.00     0.030 A 
ATOM     27  C   UNL d   1      28.097 -15.790  -1.475  0.00  0.00     0.010 A 
ATOM     28  C   UNL d   1      30.757 -16.689  -1.352  0.00  0.00     0.002 A 
ATOM     29  C   UNL d   1      30.479 -15.400  -1.798  0.00  0.00     0.001 A 
ATOM     30  C   UNL d   1      29.160 -14.945  -1.870  0.00  0.00     0.015 A 
BRANCH  22  31
ATOM     31  C   UNL d   1      24.784 -17.207  -0.529  0.00  0.00    -0.008 C 
ATOM     32  C   UNL d   1      24.509 -18.525  -0.152  0.00  0.00     0.014 C 
ATOM     33  C   UNL d   1      23.210 -19.030  -0.248  0.00  0.00     0.001 C 
ATOM     34  C   UNL d   1      22.151 -18.163  -0.486  0.00  0.00     0.000 C 
ATOM     35  C   UNL d   1      22.402 -16.806  -0.692  0.00  0.00     0.001 C 
ATOM     36  C   UNL d   1      23.717 -16.333  -0.746  0.00  0.00     0.014 C 
ENDBRANCH  22  31
ENDBRANCH  20  21
ENDBRANCH  19  20
ENDBRANCH   1  19
TORSDOF 7
ENDMDL
MODEL 4
REMARK VINA RESULT:    -8.714      2.451      3.823
REMARK INTER + INTRA:         -13.650
REMARK INTER:                 -10.802
REMARK INTRA:                  -2.848
REMARK CONF_INDEPENDENT:        2.088
REMARK UNBOUND:                -2.848
REMARK  7 active torsions:
REMARK  status: ('A' for Active; 'I' for Inactive)
REMARK    1  A    between atoms: C_10  and  C_11 
REMARK    2  A    between atoms: C_11  and  C_13 
REMARK       I    between atoms: C_13  and  N_15 
REMARK    3  A    between atoms: N_15  and  C_16 
REMARK    4  A    between atoms: C_16  and  C_17 
REMARK    5  A    between atoms: C_17  and  S_18 
REMARK    6  A    between atoms: S_18  and  C_19 
REMARK    7  A    between atoms: C_20  and  C_21 
ROOT
ATOM      1  C   UNL d   1      26.234 -13.195  -2.198  0.00  0.00     0.133 C 
ENDROOT
BRANCH   1   2
ATOM      2  N   UNL d   1      26.253 -13.785  -0.855  0.00  0.00    -0.353 N 
ATOM      3  C   UNL d   1      27.277 -13.368  -0.031  0.00  0.00     0.292 C 
ATOM      4  O   UNL d   1      28.051 -12.538  -0.494  0.00  0.00    -0.264 OA
ATOM      5  H   UNL d   1      25.597 -14.485  -0.519  0.00  0.00     0.162 HD
BRANCH   3   6
ATOM      6  C   UNL d   1      27.396 -13.955   1.404  0.00  0.00     0.252 C 
ATOM      7  O   UNL d   1      27.406 -15.188   1.471  0.00  0.00    -0.281 OA
BRANCH   6   8
ATOM      8  C   UNL d   1      27.488 -13.104   2.624  0.00  0.00     0.054 A 
ATOM      9  C   UNL d   1      27.908 -13.528   3.947  0.00  0.00     0.007 A 
ATOM     10  C   UNL d   1      28.351 -14.750   4.499  0.00  0.00     0.015 A 
ATOM     11  C   UNL d   1      27.828 -12.429   4.808  0.00  0.00     0.043 A 
ATOM     12  C   UNL d   1      28.696 -14.827   5.856  0.00  0.00     0.001 A 
ATOM     13  C   UNL d   1      28.586 -13.711   6.681  0.00  0.00     0.002 A 
ATOM     14  C   UNL d   1      28.145 -12.489   6.173  0.00  0.00     0.030 A 
ATOM     15  N   UNL d   1      27.406 -11.367   4.056  0.00  0.00    -0.358 N 
ATOM     16  C   UNL d   1      27.200 -11.744   2.754  0.00  0.00     0.021 A 
ATOM     17  H   UNL d   1      27.271 -10.430   4.410  0.00  0.00     0.166 HD
ATOM     18  C   UNL d   1      26.737 -10.723   1.783  0.00  0.00     0.069 C 
ENDBRANCH   6   8
ENDBRANCH   3   6
ENDBRANCH   1   2
BRANCH   1  19
ATOM     19  C   UNL d   1      25.304 -13.903  -3.142  0.00  0.00     0.099 C 
BRANCH  19  20
ATOM     20  S   UNL d   1      25.762 -15.575  -3.632  0.00  0.00    -0.125 SA
BRANCH  20  21
ATOM     21  C   UNL d   1      26.598 -16.274  -2.227  0.00  0.00     0.040 A 
ATOM     22  C   UNL d   1      26.118 -16.925  -1.093  0.00  0.00     0.060 A 
ATOM     23  N   UNL d   1      27.210 -17.178  -0.287  0.00  0.00    -0.354 N 
ATOM     24  C   UNL d   1      28.371 -16.700  -0.851  0.00  0.00     0.044 A 
ATOM     25  H   UNL d   1      27.161 -17.633   0.614  0.00  0.00     0.166 HD
ATOM     26  C   UNL d   1      29.693 -16.710  -0.375  0.00  0.00     0.030 A 
ATOM     27  C   UNL d   1      28.018 -16.134  -2.076  0.00  0.00     0.010 A 
ATOM     28  C   UNL d   1      30.678 -16.109  -1.168  0.00  0.00     0.002 A 
ATOM     29  C   UNL d   1      30.358 -15.541  -2.398  0.00  0.00     0.001 A 
ATOM     30  C   UNL d   1      29.040 -15.554  -2.862  0.00  0.00     0.015 A 
BRANCH  22  31
ATOM     31  C   UNL d   1      24.758 -17.258  -0.667  0.00  0.00    -0.008 C 
ATOM     32  C   UNL d   1      24.437 -18.576  -0.328  0.00  0.00     0.014 C 
ATOM     33  C   UNL d   1      23.111 -19.014  -0.373  0.00  0.00     0.001 C 
ATOM     34  C   UNL d   1      22.086 -18.087  -0.518  0.00  0.00     0.000 C 
ATOM     35  C   UNL d   1      22.393 -16.737  -0.682  0.00  0.00     0.001 C 
ATOM     36  C   UNL d   1      23.725 -16.325  -0.789  0.00  0.00     0.014 C 
ENDBRANCH  22  31
ENDBRANCH  20  21
ENDBRANCH  19  20
ENDBRANCH   1  19
TORSDOF 7
ENDMDL
MODEL 5
REMARK VINA RESULT:    -8.552      2.583      4.007
REMARK INTER + INTRA:         -13.916
REMARK INTER:                 -10.640
REMARK INTRA:                  -3.277
REMARK CONF_INDEPENDENT:        2.088
REMARK UNBOUND:                -3.277
REMARK  7 active torsions:
REMARK  status: ('A' for Active; 'I' for Inactive)
REMARK    1  A    between atoms: C_10  and  C_11 
REMARK    2  A    between atoms: C_11  and  C_13 
REMARK       I    between atoms: C_13  and  N_15 
REMARK    3  A    between atoms: N_15  and  C_16 
REMARK    4  A    between atoms: C_16  and  C_17 
REMARK    5  A    between atoms: C_17  and  S_18 
REMARK    6  A    between atoms: S_18  and  C_19 
REMARK    7  A    between atoms: C_20  and  C_21 
ROOT
ATOM      1  C   UNL d   1      26.577 -13.186  -1.706  0.00  0.00     0.133 C 
ENDROOT
BRANCH   1   2
ATOM      2  N   UNL d   1      26.662 -13.997  -0.486  0.00  0.00    -0.353 N 
ATOM      3  C   UNL d   1      27.885 -13.994   0.151  0.00  0.00     0.292 C 
ATOM      4  O   UNL d   1      28.765 -13.303  -0.351  0.00  0.00    -0.264 OA
ATOM      5  H   UNL d   1      25.908 -14.568  -0.115  0.00  0.00     0.162 HD
BRANCH   3   6
ATOM      6  C   UNL d   1      28.082 -14.843   1.439  0.00  0.00     0.252 C 
ATOM      7  O   UNL d   1      27.406 -15.874   1.500  0.00  0.00    -0.281 OA
BRANCH   6   8
ATOM      8  C   UNL d   1      29.014 -14.451   2.535  0.00  0.00     0.054 A 
ATOM      9  C   UNL d   1      28.646 -13.988   3.861  0.00  0.00     0.007 A 
ATOM     10  C   UNL d   1      27.420 -13.784   4.532  0.00  0.00     0.015 A 
ATOM     11  C   UNL d   1      29.818 -13.703   4.568  0.00  0.00     0.043 A 
ATOM     12  C   UNL d   1      27.410 -13.319   5.854  0.00  0.00     0.001 A 
ATOM     13  C   UNL d   1      28.600 -13.032   6.517  0.00  0.00     0.002 A 
ATOM     14  C   UNL d   1      29.830 -13.215   5.883  0.00  0.00     0.030 A 
ATOM     15  N   UNL d   1      30.863 -13.997   3.737  0.00  0.00    -0.358 N 
ATOM     16  C   UNL d   1      30.409 -14.446   2.524  0.00  0.00     0.021 A 
ATOM     17  H   UNL d   1      31.839 -13.903   3.986  0.00  0.00     0.166 HD
ATOM     18  C   UNL d   1      31.402 -14.814   1.486  0.00  0.00     0.069 C 
ENDBRANCH   6   8
ENDBRANCH   3   6
ENDBRANCH   1   2
BRANCH   1  19
ATOM     19  C   UNL d   1      25.527 -13.670  -2.665  0.00  0.00     0.099 C 
BRANCH  19  20
ATOM     20  S   UNL d   1      25.822 -15.263  -3.454  0.00  0.00    -0.125 SA
BRANCH  20  21
ATOM     21  C   UNL d   1      26.686 -16.243  -2.248  0.00  0.00     0.040 A 
ATOM     22  C   UNL d   1      26.230 -17.006  -1.176  0.00  0.00     0.060 A 
ATOM     23  N   UNL d   1      27.349 -17.482  -0.521  0.00  0.00    -0.354 N 
ATOM     24  C   UNL d   1      28.507 -17.040  -1.122  0.00  0.00     0.044 A 
ATOM     25  H   UNL d   1      27.323 -18.060   0.307  0.00  0.00     0.166 HD
ATOM     26  C   UNL d   1      29.853 -17.250  -0.781  0.00  0.00     0.030 A 
ATOM     27  C   UNL d   1      28.121 -16.266  -2.215  0.00  0.00     0.010 A 
ATOM     28  C   UNL d   1      30.831 -16.637  -1.573  0.00  0.00     0.002 A 
ATOM     29  C   UNL d   1      30.478 -15.863  -2.675  0.00  0.00     0.001 A 
ATOM     30  C   UNL d   1      29.133 -15.678  -3.007  0.00  0.00     0.015 A 
BRANCH  22  31
ATOM     31  C   UNL d   1      24.880 -17.265  -0.672  0.00  0.00    -0.008 C 
ATOM     32  C   UNL d   1      24.547 -18.535  -0.193  0.00  0.00     0.014 C 
ATOM     33  C   UNL d   1      23.212 -18.945  -0.148  0.00  0.00     0.001 C 
ATOM     34  C   UNL d   1      22.200 -18.015  -0.349  0.00  0.00     0.000 C 
ATOM     35  C   UNL d   1      22.527 -16.695  -0.658  0.00  0.00     0.001 C 
ATOM     36  C   UNL d   1      23.862 -16.325  -0.851  0.00  0.00     0.014 C 
ENDBRANCH  22  31
ENDBRANCH  20  21
ENDBRANCH  19  20
ENDBRANCH   1  19
TORSDOF 7
ENDMDL
MODEL 6
REMARK VINA RESULT:    -8.256      5.990      9.736
REMARK INTER + INTRA:         -13.546
REMARK INTER:                 -10.344
REMARK INTRA:                  -3.202
REMARK CONF_INDEPENDENT:        2.088
REMARK UNBOUND:                -3.202
REMARK  7 active torsions:
REMARK  status: ('A' for Active; 'I' for Inactive)
REMARK    1  A    between atoms: C_10  and  C_11 
REMARK    2  A    between atoms: C_11  and  C_13 
REMARK       I    between atoms: C_13  and  N_15 
REMARK    3  A    between atoms: N_15  and  C_16 
REMARK    4  A    between atoms: C_16  and  C_17 
REMARK    5  A    between atoms: C_17  and  S_18 
REMARK    6  A    between atoms: S_18  and  C_19 
REMARK    7  A    between atoms: C_20  and  C_21 
ROOT
ATOM      1  C   UNL d   1      29.176 -14.739  -1.171  0.00  0.00     0.133 C 
ENDROOT
BRANCH   1   2
ATOM      2  N   UNL d   1      28.817 -14.534  -2.579  0.00  0.00    -0.353 N 
ATOM      3  C   UNL d   1      28.437 -15.665  -3.271  0.00  0.00     0.292 C 
ATOM      4  O   UNL d   1      28.418 -16.715  -2.639  0.00  0.00    -0.264 OA
ATOM      5  H   UNL d   1      28.863 -13.643  -3.066  0.00  0.00     0.162 HD
BRANCH   3   6
ATOM      6  C   UNL d   1      28.061 -15.555  -4.776  0.00  0.00     0.252 C 
ATOM      7  O   UNL d   1      26.852 -15.575  -5.020  0.00  0.00    -0.281 OA
BRANCH   6   8
ATOM      8  C   UNL d   1      29.078 -15.437  -5.859  0.00  0.00     0.054 A 
ATOM      9  C   UNL d   1      30.078 -16.425  -6.220  0.00  0.00     0.007 A 
ATOM     10  C   UNL d   1      30.405 -17.717  -5.752  0.00  0.00     0.015 A 
ATOM     11  C   UNL d   1      30.846 -15.913  -7.270  0.00  0.00     0.043 A 
ATOM     12  C   UNL d   1      31.458 -18.434  -6.338  0.00  0.00     0.001 A 
ATOM     13  C   UNL d   1      32.208 -17.878  -7.371  0.00  0.00     0.002 A 
ATOM     14  C   UNL d   1      31.918 -16.602  -7.855  0.00  0.00     0.030 A 
ATOM     15  N   UNL d   1      30.335 -14.678  -7.567  0.00  0.00    -0.358 N 
ATOM     16  C   UNL d   1      29.283 -14.376  -6.743  0.00  0.00     0.021 A 
ATOM     17  H   UNL d   1      30.683 -14.075  -8.299  0.00  0.00     0.166 HD
ATOM     18  C   UNL d   1      28.598 -13.072  -6.914  0.00  0.00     0.069 C 
ENDBRANCH   6   8
ENDBRANCH   3   6
ENDBRANCH   1   2
BRANCH   1  19
ATOM     19  C   UNL d   1      28.762 -13.599  -0.284  0.00  0.00     0.099 C 
BRANCH  19  20
ATOM     20  S   UNL d   1      26.995 -13.390  -0.003  0.00  0.00    -0.125 SA
BRANCH  20  21
ATOM     21  C   UNL d   1      26.220 -13.708  -1.572  0.00  0.00     0.040 A 
ATOM     22  C   UNL d   1      25.582 -14.839  -2.077  0.00  0.00     0.060 A 
ATOM     23  N   UNL d   1      25.246 -14.555  -3.386  0.00  0.00    -0.354 N 
ATOM     24  C   UNL d   1      25.658 -13.291  -3.746  0.00  0.00     0.044 A 
ATOM     25  H   UNL d   1      24.780 -15.200  -4.008  0.00  0.00     0.166 HD
ATOM     26  C   UNL d   1      25.554 -12.608  -4.969  0.00  0.00     0.030 A 
ATOM     27  C   UNL d   1      26.265 -12.732  -2.623  0.00  0.00     0.010 A 
ATOM     28  C   UNL d   1      26.103 -11.323  -5.048  0.00  0.00     0.002 A 
ATOM     29  C   UNL d   1      26.711 -10.735  -3.943  0.00  0.00     0.001 A 
ATOM     30  C   UNL d   1      26.791 -11.424  -2.729  0.00  0.00     0.015 A 
BRANCH  22  31
ATOM     31  C   UNL d   1      25.331 -16.156  -1.491  0.00  0.00    -0.008 C 
ATOM     32  C   UNL d   1      24.077 -16.757  -1.639  0.00  0.00     0.014 C 
ATOM     33  C   UNL d   1      23.656 -17.743  -0.743  0.00  0.00     0.001 C 
ATOM     34  C   UNL d   1      24.568 -18.299   0.146  0.00  0.00     0.000 C 
ATOM     35  C   UNL d   1      25.878 -17.822   0.180  0.00  0.00     0.001 C 
ATOM     36  C   UNL d   1      26.252 -16.732  -0.613  0.00  0.00     0.014 C 
ENDBRANCH  22  31
ENDBRANCH  20  21
ENDBRANCH  19  20
ENDBRANCH   1  19
TORSDOF 7
ENDMDL
MODEL 7
REMARK VINA RESULT:    -8.052      5.621      9.336
REMARK INTER + INTRA:         -13.485
REMARK INTER:                 -10.141
REMARK INTRA:                  -3.344
REMARK CONF_INDEPENDENT:        2.088
REMARK UNBOUND:                -3.344
REMARK  7 active torsions:
REMARK  status: ('A' for Active; 'I' for Inactive)
REMARK    1  A    between atoms: C_10  and  C_11 
REMARK    2  A    between atoms: C_11  and  C_13 
REMARK       I    between atoms: C_13  and  N_15 
REMARK    3  A    between atoms: N_15  and  C_16 
REMARK    4  A    between atoms: C_16  and  C_17 
REMARK    5  A    between atoms: C_17  and  S_18 
REMARK    6  A    between atoms: S_18  and  C_19 
REMARK    7  A    between atoms: C_20  and  C_21 
ROOT
ATOM      1  C   UNL d   1      28.632 -15.852  -0.450  0.00  0.00     0.133 C 
ENDROOT
BRANCH   1   2
ATOM      2  N   UNL d   1      29.525 -15.269  -1.459  0.00  0.00    -0.353 N 
ATOM      3  C   UNL d   1      29.657 -15.988  -2.628  0.00  0.00     0.292 C 
ATOM      4  O   UNL d   1      29.005 -17.022  -2.715  0.00  0.00    -0.264 OA
ATOM      5  H   UNL d   1      30.059 -14.414  -1.336  0.00  0.00     0.162 HD
BRANCH   3   6
ATOM      6  C   UNL d   1      30.600 -15.464  -3.749  0.00  0.00     0.252 C 
ATOM      7  O   UNL d   1      31.287 -14.485  -3.445  0.00  0.00    -0.281 OA
BRANCH   6   8
ATOM      8  C   UNL d   1      30.678 -16.086  -5.101  0.00  0.00     0.054 A 
ATOM      9  C   UNL d   1      30.632 -17.505  -5.406  0.00  0.00     0.007 A 
ATOM     10  C   UNL d   1      30.493 -18.678  -4.632  0.00  0.00     0.015 A 
ATOM     11  C   UNL d   1      30.760 -17.663  -6.789  0.00  0.00     0.043 A 
ATOM     12  C   UNL d   1      30.481 -19.935  -5.253  0.00  0.00     0.001 A 
ATOM     13  C   UNL d   1      30.628 -20.047  -6.633  0.00  0.00     0.002 A 
ATOM     14  C   UNL d   1      30.775 -18.911  -7.429  0.00  0.00     0.030 A 
ATOM     15  N   UNL d   1      30.854 -16.406  -7.323  0.00  0.00    -0.358 N 
ATOM     16  C   UNL d   1      30.805 -15.454  -6.339  0.00  0.00     0.021 A 
ATOM     17  H   UNL d   1      30.941 -16.208  -8.311  0.00  0.00     0.166 HD
ATOM     18  C   UNL d   1      30.894 -14.026  -6.727  0.00  0.00     0.069 C 
ENDBRANCH   6   8
ENDBRANCH   3   6
ENDBRANCH   1   2
BRANCH   1  19
ATOM     19  C   UNL d   1      28.001 -14.824   0.445  0.00  0.00     0.099 C 
BRANCH  19  20
ATOM     20  S   UNL d   1      26.701 -13.807  -0.278  0.00  0.00    -0.125 SA
BRANCH  20  21
ATOM     21  C   UNL d   1      26.243 -14.620  -1.792  0.00  0.00     0.040 A 
ATOM     22  C   UNL d   1      25.412 -15.709  -2.043  0.00  0.00     0.060 A 
ATOM     23  N   UNL d   1      25.490 -15.965  -3.398  0.00  0.00    -0.354 N 
ATOM     24  C   UNL d   1      26.351 -15.092  -4.024  0.00  0.00     0.044 A 
ATOM     25  H   UNL d   1      24.997 -16.713  -3.866  0.00  0.00     0.166 HD
ATOM     26  C   UNL d   1      26.750 -15.005  -5.368  0.00  0.00     0.030 A 
ATOM     27  C   UNL d   1      26.832 -14.229  -3.040  0.00  0.00     0.010 A 
ATOM     28  C   UNL d   1      27.680 -14.017  -5.711  0.00  0.00     0.002 A 
ATOM     29  C   UNL d   1      28.176 -13.137  -4.753  0.00  0.00     0.001 A 
ATOM     30  C   UNL d   1      27.756 -13.229  -3.423  0.00  0.00     0.015 A 
BRANCH  22  31
ATOM     31  C   UNL d   1      24.630 -16.562  -1.146  0.00  0.00    -0.008 C 
ATOM     32  C   UNL d   1      25.207 -17.713  -0.602  0.00  0.00     0.014 C 
ATOM     33  C   UNL d   1      24.401 -18.760  -0.148  0.00  0.00     0.001 C 
ATOM     34  C   UNL d   1      23.032 -18.565  -0.014  0.00  0.00     0.000 C 
ATOM     35  C   UNL d   1      22.467 -17.348  -0.394  0.00  0.00     0.001 C 
ATOM     36  C   UNL d   1      23.257 -16.359  -0.989  0.00  0.00     0.014 C 
ENDBRANCH  22  31
ENDBRANCH  20  21
ENDBRANCH  19  20
ENDBRANCH   1  19
TORSDOF 7
ENDMDL
MODEL 8
REMARK VINA RESULT:    -7.778      3.052      4.725
REMARK INTER + INTRA:         -13.443
REMARK INTER:                  -9.866
REMARK INTRA:                  -3.576
REMARK CONF_INDEPENDENT:        2.088
REMARK UNBOUND:                -3.576
REMARK  7 active torsions:
REMARK  status: ('A' for Active; 'I' for Inactive)
REMARK    1  A    between atoms: C_10  and  C_11 
REMARK    2  A    between atoms: C_11  and  C_13 
REMARK       I    between atoms: C_13  and  N_15 
REMARK    3  A    between atoms: N_15  and  C_16 
REMARK    4  A    between atoms: C_16  and  C_17 
REMARK    5  A    between atoms: C_17  and  S_18 
REMARK    6  A    between atoms: S_18  and  C_19 
REMARK    7  A    between atoms: C_20  and  C_21 
ROOT
ATOM      1  C   UNL d   1      26.585 -12.188  -3.058  0.00  0.00     0.133 C 
ENDROOT
BRANCH   1   2
ATOM      2  N   UNL d   1      26.259 -12.873  -1.801  0.00  0.00    -0.353 N 
ATOM      3  C   UNL d   1      27.323 -13.120  -0.960  0.00  0.00     0.292 C 
ATOM      4  O   UNL d   1      28.422 -12.727  -1.334  0.00  0.00    -0.264 OA
ATOM      5  H   UNL d   1      25.331 -13.195  -1.540  0.00  0.00     0.162 HD
BRANCH   3   6
ATOM      6  C   UNL d   1      27.082 -13.863   0.385  0.00  0.00     0.252 C 
ATOM      7  O   UNL d   1      25.909 -14.171   0.615  0.00  0.00    -0.281 OA
BRANCH   6   8
ATOM      8  C   UNL d   1      28.178 -14.185   1.342  0.00  0.00     0.054 A 
ATOM      9  C   UNL d   1      28.125 -14.077   2.789  0.00  0.00     0.007 A 
ATOM     10  C   UNL d   1      27.129 -13.697   3.715  0.00  0.00     0.015 A 
ATOM     11  C   UNL d   1      29.369 -14.450   3.305  0.00  0.00     0.043 A 
ATOM     12  C   UNL d   1      27.404 -13.708   5.090  0.00  0.00     0.001 A 
ATOM     13  C   UNL d   1      28.664 -14.070   5.560  0.00  0.00     0.002 A 
ATOM     14  C   UNL d   1      29.674 -14.445   4.674  0.00  0.00     0.030 A 
ATOM     15  N   UNL d   1      30.152 -14.797   2.237  0.00  0.00    -0.358 N 
ATOM     16  C   UNL d   1      29.463 -14.650   1.061  0.00  0.00     0.021 A 
ATOM     17  H   UNL d   1      31.105 -15.125   2.308  0.00  0.00     0.166 HD
ATOM     18  C   UNL d   1      30.152 -14.979  -0.210  0.00  0.00     0.069 C 
ENDBRANCH   6   8
ENDBRANCH   3   6
ENDBRANCH   1   2
BRANCH   1  19
ATOM     19  C   UNL d   1      25.735 -12.635  -4.213  0.00  0.00     0.099 C 
BRANCH  19  20
ATOM     20  S   UNL d   1      25.155 -14.341  -4.180  0.00  0.00    -0.125 SA
BRANCH  20  21
ATOM     21  C   UNL d   1      26.496 -15.291  -3.500  0.00  0.00     0.040 A 
ATOM     22  C   UNL d   1      26.564 -16.136  -2.395  0.00  0.00     0.060 A 
ATOM     23  N   UNL d   1      27.881 -16.538  -2.284  0.00  0.00    -0.354 N 
ATOM     24  C   UNL d   1      28.663 -15.971  -3.265  0.00  0.00     0.044 A 
ATOM     25  H   UNL d   1      28.231 -17.151  -1.561  0.00  0.00     0.166 HD
ATOM     26  C   UNL d   1      30.042 -16.076  -3.512  0.00  0.00     0.030 A 
ATOM     27  C   UNL d   1      27.817 -15.189  -4.050  0.00  0.00     0.010 A 
ATOM     28  C   UNL d   1      30.572 -15.346  -4.582  0.00  0.00     0.002 A 
ATOM     29  C   UNL d   1      29.753 -14.560  -5.387  0.00  0.00     0.001 A 
ATOM     30  C   UNL d   1      28.380 -14.480  -5.136  0.00  0.00     0.015 A 
BRANCH  22  31
ATOM     31  C   UNL d   1      25.556 -16.534  -1.412  0.00  0.00    -0.008 C 
ATOM     32  C   UNL d   1      25.891 -17.437  -0.398  0.00  0.00     0.014 C 
ATOM     33  C   UNL d   1      24.895 -18.178   0.244  0.00  0.00     0.001 C 
ATOM     34  C   UNL d   1      23.560 -17.848   0.050  0.00  0.00     0.000 C 
ATOM     35  C   UNL d   1      23.223 -16.823  -0.833  0.00  0.00     0.001 C 
ATOM     36  C   UNL d   1      24.215 -16.188  -1.588  0.00  0.00     0.014 C 
ENDBRANCH  22  31
ENDBRANCH  20  21
ENDBRANCH  19  20
ENDBRANCH   1  19
TORSDOF 7
ENDMDL
MODEL 9
REMARK VINA RESULT:    -7.307      4.519      6.090
REMARK INTER + INTRA:         -13.422
REMARK INTER:                  -9.395
REMARK INTRA:                  -4.027
REMARK CONF_INDEPENDENT:        2.088
REMARK UNBOUND:                -4.027
REMARK  7 active torsions:
REMARK  status: ('A' for Active; 'I' for Inactive)
REMARK    1  A    between atoms: C_10  and  C_11 
REMARK    2  A    between atoms: C_11  and  C_13 
REMARK       I    between atoms: C_13  and  N_15 
REMARK    3  A    between atoms: N_15  and  C_16 
REMARK    4  A    between atoms: C_16  and  C_17 
REMARK    5  A    between atoms: C_17  and  S_18 
REMARK    6  A    between atoms: S_18  and  C_19 
REMARK    7  A    between atoms: C_20  and  C_21 
ROOT
ATOM      1  C   UNL d   1      26.034 -11.713  -3.085  0.00  0.00     0.133 C 
ENDROOT
BRANCH   1   2
ATOM      2  N   UNL d   1      27.003 -12.534  -2.350  0.00  0.00    -0.353 N 
ATOM      3  C   UNL d   1      28.318 -12.407  -2.748  0.00  0.00     0.292 C 
ATOM      4  O   UNL d   1      28.544 -11.612  -3.653  0.00  0.00    -0.264 OA
ATOM      5  H   UNL d   1      26.766 -13.193  -1.615  0.00  0.00     0.162 HD
BRANCH   3   6
ATOM      6  C   UNL d   1      29.417 -13.254  -2.046  0.00  0.00     0.252 C 
ATOM      7  O   UNL d   1      30.514 -13.268  -2.612  0.00  0.00    -0.281 OA
BRANCH   6   8
ATOM      8  C   UNL d   1      29.179 -14.006  -0.782  0.00  0.00     0.054 A 
ATOM      9  C   UNL d   1      28.379 -13.568   0.349  0.00  0.00     0.007 A 
ATOM     10  C   UNL d   1      27.607 -12.419   0.627  0.00  0.00     0.015 A 
ATOM     11  C   UNL d   1      28.436 -14.556   1.337  0.00  0.00     0.043 A 
ATOM     12  C   UNL d   1      26.932 -12.303   1.851  0.00  0.00     0.001 A 
ATOM     13  C   UNL d   1      27.028 -13.304   2.814  0.00  0.00     0.002 A 
ATOM     14  C   UNL d   1      27.788 -14.450   2.576  0.00  0.00     0.030 A 
ATOM     15  N   UNL d   1      29.209 -15.569   0.839  0.00  0.00    -0.358 N 
ATOM     16  C   UNL d   1      29.658 -15.265  -0.419  0.00  0.00     0.021 A 
ATOM     17  H   UNL d   1      29.414 -16.428   1.331  0.00  0.00     0.166 HD
ATOM     18  C   UNL d   1      30.517 -16.248  -1.123  0.00  0.00     0.069 C 
ENDBRANCH   6   8
ENDBRANCH   3   6
ENDBRANCH   1   2
BRANCH   1  19
ATOM     19  C   UNL d   1      25.530 -12.372  -4.337  0.00  0.00     0.099 C 
BRANCH  19  20
ATOM     20  S   UNL d   1      24.960 -14.075  -4.185  0.00  0.00    -0.125 SA
BRANCH  20  21
ATOM     21  C   UNL d   1      26.418 -15.041  -3.865  0.00  0.00     0.040 A 
ATOM     22  C   UNL d   1      26.735 -15.927  -2.837  0.00  0.00     0.060 A 
ATOM     23  N   UNL d   1      28.041 -16.325  -3.043  0.00  0.00    -0.354 N 
ATOM     24  C   UNL d   1      28.581 -15.717  -4.155  0.00  0.00     0.044 A 
ATOM     25  H   UNL d   1      28.545 -16.962  -2.442  0.00  0.00     0.166 HD
ATOM     26  C   UNL d   1      29.867 -15.805  -4.713  0.00  0.00     0.030 A 
ATOM     27  C   UNL d   1      27.580 -14.911  -4.696  0.00  0.00     0.010 A 
ATOM     28  C   UNL d   1      30.141 -15.032  -5.848  0.00  0.00     0.002 A 
ATOM     29  C   UNL d   1      29.162 -14.222  -6.415  0.00  0.00     0.001 A 
ATOM     30  C   UNL d   1      27.883 -14.159  -5.855  0.00  0.00     0.015 A 
BRANCH  22  31
ATOM     31  C   UNL d   1      25.977 -16.367  -1.665  0.00  0.00    -0.008 C 
ATOM     32  C   UNL d   1      26.623 -17.062  -0.638  0.00  0.00     0.014 C 
ATOM     33  C   UNL d   1      25.893 -17.877   0.230  0.00  0.00     0.001 C 
ATOM     34  C   UNL d   1      24.505 -17.814   0.230  0.00  0.00     0.000 C 
ATOM     35  C   UNL d   1      23.852 -16.984  -0.681  0.00  0.00     0.001 C 
ATOM     36  C   UNL d   1      24.582 -16.286  -1.648  0.00  0.00     0.014 C 
ENDBRANCH  22  31
ENDBRANCH  20  21
ENDBRANCH  19  20
ENDBRANCH   1  19
TORSDOF 7
ENDMDL
