MODEL 1
REMARK VINA RESULT:    -7.757      0.000      0.000
REMARK INTER + INTRA:         -13.618
REMARK INTER:                 -10.740
REMARK INTRA:                  -2.877
REMARK CONF_INDEPENDENT:        2.983
REMARK UNBOUND:                -2.877
REMARK  10 active torsions:
REMARK  status: ('A' for Active; 'I' for Inactive)
REMARK    1  A    between atoms: C_2  and  C_3 
REMARK    2  A    between atoms: C_4  and  C_3 
REMARK    3  A    between atoms: C_4  and  N_15 
REMARK    4  A    between atoms: C_4  and  C_5 
REMARK       I    between atoms: C_5  and  N_7 
REMARK    5  A    between atoms: N_7  and  C_8 
REMARK    6  A    between atoms: C_8  and  C_9 
REMARK       I    between atoms: N_15  and  C_16 
REMARK    7  A    between atoms: N_15  and  C_27 
REMARK    8  A    between atoms: C_16  and  C_18 
REMARK    9  A    between atoms: C_21  and  C_22 
REMARK       I    between atoms: C_22  and  N_23 
REMARK   10  A    between atoms: C_25  and  N_26 
ROOT
ATOM      1  N   UNL d   1      26.068 -15.693  -1.680  0.00  0.00    -0.296 N 
ATOM      2  C   UNL d   1      26.138 -15.299  -3.073  0.00  0.00     0.269 C 
ATOM      3  O   UNL d   1      25.164 -15.464  -3.813  0.00  0.00    -0.266 OA
ENDROOT
BRANCH   1   4
ATOM      4  C   UNL d   1      27.083 -15.298  -0.607  0.00  0.00     0.185 C 
BRANCH   4   5
ATOM      5  C   UNL d   1      26.964 -14.088   0.386  0.00  0.00     0.241 C 
ATOM      6  O   UNL d   1      26.430 -13.056   0.058  0.00  0.00    -0.271 OA
ATOM      7  N   UNL d   1      27.527 -14.225   1.642  0.00  0.00    -0.355 N 
ATOM      8  H   UNL d   1      28.508 -14.478   1.677  0.00  0.00     0.162 HD
BRANCH   7   9
ATOM      9  C   UNL d   1      27.144 -13.352   2.710  0.00  0.00     0.161 C 
BRANCH   9  10
ATOM     10  C   UNL d   1      28.010 -13.547   3.897  0.00  0.00    -0.041 A 
ATOM     11  C   UNL d   1      29.155 -12.773   4.058  0.00  0.00     0.009 A 
ATOM     12  C   UNL d   1      30.022 -13.073   5.096  0.00  0.00     0.001 A 
ATOM     13  C   UNL d   1      29.698 -14.082   6.008  0.00  0.00     0.000 A 
ATOM     14  C   UNL d   1      28.527 -14.826   5.868  0.00  0.00     0.001 A 
ATOM     15  C   UNL d   1      27.685 -14.563   4.804  0.00  0.00     0.009 A 
ENDBRANCH   9  10
ENDBRANCH   7   9
ENDBRANCH   4   5
BRANCH   4  16
ATOM     16  C   UNL d   1      27.526 -16.414   0.326  0.00  0.00     0.035 C 
BRANCH  16  17
ATOM     17  C   UNL d   1      28.471 -17.367  -0.437  0.00  0.00    -0.002 C 
ATOM     18  C   UNL d   1      29.369 -16.589  -1.355  0.00  0.00     0.005 C 
ENDBRANCH  16  17
ENDBRANCH   4  16
ENDBRANCH   1   4
BRANCH   1  19
ATOM     19  C   UNL d   1      24.878 -16.518  -1.250  0.00  0.00     0.077 A 
ATOM     20  C   UNL d   1      23.587 -15.957  -1.203  0.00  0.00     0.033 A 
ATOM     21  C   UNL d   1      22.473 -16.672  -0.690  0.00  0.00     0.002 A 
ATOM     22  C   UNL d   1      22.574 -18.006  -0.309  0.00  0.00     0.003 A 
ATOM     23  C   UNL d   1      23.803 -18.607  -0.390  0.00  0.00     0.044 A 
ATOM     24  C   UNL d   1      24.912 -17.865  -0.801  0.00  0.00     0.143 A 
ATOM     25  F   UNL d   1      26.027 -18.536  -0.533  0.00  0.00    -0.204 F 
ENDBRANCH   1  19
BRANCH   2  26
ATOM     26  C   UNL d   1      27.340 -14.670  -3.620  0.00  0.00     0.115 C 
ATOM     27  S   UNL d   1      28.377 -13.729  -2.624  0.00  0.00     0.019 SA
ATOM     28  N   UNL d   1      29.585 -13.483  -3.764  0.00  0.00    -0.203 NA
ATOM     29  C   UNL d   1      29.216 -14.077  -4.912  0.00  0.00     0.155 C 
ATOM     30  C   UNL d   1      27.855 -14.597  -4.898  0.00  0.00     0.065 C 
BRANCH  29  31
ATOM     31  C   UNL d   1      30.185 -14.368  -6.012  0.00  0.00     0.270 C 
ATOM     32  N   UNL d   1      29.707 -14.633  -7.270  0.00  0.00    -0.365 N 
ATOM     33  H   UNL d   1      28.724 -14.661  -7.493  0.00  0.00     0.159 HD
ATOM     34  H   UNL d   1      30.400 -14.833  -7.981  0.00  0.00     0.159 HD
ATOM     35  O   UNL d   1      31.404 -14.290  -5.876  0.00  0.00    -0.266 OA
ENDBRANCH  29  31
BRANCH  30  36
ATOM     36  N   UNL d   1      27.282 -15.201  -5.974  0.00  0.00    -0.299 NA
ATOM     37  H   UNL d   1      26.314 -15.505  -5.751  0.00  0.00     0.124 HD
ATOM     38  H   UNL d   1      27.160 -14.630  -6.806  0.00  0.00     0.124 HD
ENDBRANCH  30  36
ENDBRANCH   2  26
TORSDOF 10
ENDMDL
MODEL 2
REMARK VINA RESULT:    -7.356      2.994      6.096
REMARK INTER + INTRA:         -14.827
REMARK INTER:                 -10.339
REMARK INTRA:                  -4.488
REMARK CONF_INDEPENDENT:        2.983
REMARK UNBOUND:                -4.488
REMARK  10 active torsions:
REMARK  status: ('A' for Active; 'I' for Inactive)
REMARK    1  A    between atoms: C_2  and  C_3 
REMARK    2  A    between atoms: C_4  and  C_3 
REMARK    3  A    between atoms: C_4  and  N_15 
REMARK    4  A    between atoms: C_4  and  C_5 
REMARK       I    between atoms: C_5  and  N_7 
REMARK    5  A    between atoms: N_7  and  C_8 
REMARK    6  A    between atoms: C_8  and  C_9 
REMARK       I    between atoms: N_15  and  C_16 
REMARK    7  A    between atoms: N_15  and  C_27 
REMARK    8  A    between atoms: C_16  and  C_18 
REMARK    9  A    between atoms: C_21  and  C_22 
REMARK       I    between atoms: C_22  and  N_23 
REMARK   10  A    between atoms: C_25  and  N_26 
ROOT
ATOM      1  N   UNL d   1      26.412 -15.741  -2.325  0.00  0.00    -0.296 N 
ATOM      2  C   UNL d   1      25.597 -14.822  -3.096  0.00  0.00     0.269 C 
ATOM      3  O   UNL d   1      24.384 -14.745  -2.888  0.00  0.00    -0.266 OA
ENDROOT
BRANCH   1   4
ATOM      4  C   UNL d   1      27.939 -15.738  -2.289  0.00  0.00     0.185 C 
BRANCH   4   5
ATOM      5  C   UNL d   1      28.899 -16.171  -3.454  0.00  0.00     0.241 C 
ATOM      6  O   UNL d   1      28.619 -15.960  -4.609  0.00  0.00    -0.271 OA
ATOM      7  N   UNL d   1      30.062 -16.839  -3.118  0.00  0.00    -0.355 N 
ATOM      8  H   UNL d   1      29.961 -17.677  -2.557  0.00  0.00     0.162 HD
BRANCH   7   9
ATOM      9  C   UNL d   1      31.145 -16.926  -4.050  0.00  0.00     0.161 C 
BRANCH   9  10
ATOM     10  C   UNL d   1      30.849 -17.904  -5.123  0.00  0.00    -0.041 A 
ATOM     11  C   UNL d   1      30.534 -19.220  -4.799  0.00  0.00     0.009 A 
ATOM     12  C   UNL d   1      30.405 -20.147  -5.820  0.00  0.00     0.001 A 
ATOM     13  C   UNL d   1      30.508 -19.737  -7.152  0.00  0.00     0.000 A 
ATOM     14  C   UNL d   1      30.780 -18.408  -7.475  0.00  0.00     0.001 A 
ATOM     15  C   UNL d   1      30.960 -17.491  -6.457  0.00  0.00     0.009 A 
ENDBRANCH   9  10
ENDBRANCH   7   9
ENDBRANCH   4   5
BRANCH   4  16
ATOM     16  C   UNL d   1      28.587 -14.441  -1.829  0.00  0.00     0.035 C 
BRANCH  16  17
ATOM     17  C   UNL d   1      28.407 -14.299  -0.302  0.00  0.00    -0.002 C 
ATOM     18  C   UNL d   1      27.031 -13.791   0.017  0.00  0.00     0.005 C 
ENDBRANCH  16  17
ENDBRANCH   4  16
ENDBRANCH   1   4
BRANCH   1  19
ATOM     19  C   UNL d   1      25.691 -16.748  -1.458  0.00  0.00     0.077 A 
ATOM     20  C   UNL d   1      24.402 -17.202  -1.797  0.00  0.00     0.033 A 
ATOM     21  C   UNL d   1      23.654 -18.053  -0.941  0.00  0.00     0.002 A 
ATOM     22  C   UNL d   1      24.200 -18.575   0.227  0.00  0.00     0.003 A 
ATOM     23  C   UNL d   1      25.474 -18.200   0.566  0.00  0.00     0.044 A 
ATOM     24  C   UNL d   1      26.163 -17.284  -0.230  0.00  0.00     0.143 A 
ATOM     25  F   UNL d   1      27.235 -16.841   0.416  0.00  0.00    -0.204 F 
ENDBRANCH   1  19
BRANCH   2  26
ATOM     26  C   UNL d   1      26.197 -13.949  -4.105  0.00  0.00     0.115 C 
ATOM     27  S   UNL d   1      26.354 -12.260  -3.831  0.00  0.00     0.019 SA
ATOM     28  N   UNL d   1      27.239 -11.912  -5.215  0.00  0.00    -0.203 NA
ATOM     29  C   UNL d   1      27.404 -13.048  -5.914  0.00  0.00     0.155 C 
ATOM     30  C   UNL d   1      26.655 -14.181  -5.386  0.00  0.00     0.065 C 
BRANCH  29  31
ATOM     31  C   UNL d   1      28.428 -13.185  -6.994  0.00  0.00     0.270 C 
ATOM     32  N   UNL d   1      29.010 -14.407  -7.210  0.00  0.00    -0.365 N 
ATOM     33  H   UNL d   1      28.797 -15.226  -6.662  0.00  0.00     0.159 HD
ATOM     34  H   UNL d   1      29.705 -14.450  -7.946  0.00  0.00     0.159 HD
ATOM     35  O   UNL d   1      28.714 -12.278  -7.772  0.00  0.00    -0.266 OA
ENDBRANCH  29  31
BRANCH  30  36
ATOM     36  N   UNL d   1      26.660 -15.410  -5.970  0.00  0.00    -0.299 NA
ATOM     37  H   UNL d   1      27.559 -15.574  -6.466  0.00  0.00     0.124 HD
ATOM     38  H   UNL d   1      26.588 -16.211  -5.348  0.00  0.00     0.124 HD
ENDBRANCH  30  36
ENDBRANCH   2  26
TORSDOF 10
ENDMDL
MODEL 3
REMARK VINA RESULT:    -7.266      2.341      2.760
REMARK INTER + INTRA:         -13.412
REMARK INTER:                 -10.249
REMARK INTRA:                  -3.163
REMARK CONF_INDEPENDENT:        2.983
REMARK UNBOUND:                -3.163
REMARK  10 active torsions:
REMARK  status: ('A' for Active; 'I' for Inactive)
REMARK    1  A    between atoms: C_2  and  C_3 
REMARK    2  A    between atoms: C_4  and  C_3 
REMARK    3  A    between atoms: C_4  and  N_15 
REMARK    4  A    between atoms: C_4  and  C_5 
REMARK       I    between atoms: C_5  and  N_7 
REMARK    5  A    between atoms: N_7  and  C_8 
REMARK    6  A    between atoms: C_8  and  C_9 
REMARK       I    between atoms: N_15  and  C_16 
REMARK    7  A    between atoms: N_15  and  C_27 
REMARK    8  A    between atoms: C_16  and  C_18 
REMARK    9  A    between atoms: C_21  and  C_22 
REMARK       I    between atoms: C_22  and  N_23 
REMARK   10  A    between atoms: C_25  and  N_26 
ROOT
ATOM      1  N   UNL d   1      26.331 -15.623  -2.339  0.00  0.00    -0.296 N 
ATOM      2  C   UNL d   1      25.574 -14.772  -3.235  0.00  0.00     0.269 C 
ATOM      3  O   UNL d   1      24.343 -14.734  -3.162  0.00  0.00    -0.266 OA
ENDROOT
BRANCH   1   4
ATOM      4  C   UNL d   1      27.845 -15.557  -2.141  0.00  0.00     0.185 C 
BRANCH   4   5
ATOM      5  C   UNL d   1      28.631 -14.467  -1.329  0.00  0.00     0.241 C 
ATOM      6  O   UNL d   1      29.292 -13.624  -1.887  0.00  0.00    -0.271 OA
ATOM      7  N   UNL d   1      28.576 -14.524   0.051  0.00  0.00    -0.355 N 
ATOM      8  H   UNL d   1      28.850 -15.399   0.483  0.00  0.00     0.162 HD
BRANCH   7   9
ATOM      9  C   UNL d   1      28.930 -13.383   0.841  0.00  0.00     0.161 C 
BRANCH   9  10
ATOM     10  C   UNL d   1      28.646 -13.617   2.276  0.00  0.00    -0.041 A 
ATOM     11  C   UNL d   1      29.645 -14.107   3.113  0.00  0.00     0.009 A 
ATOM     12  C   UNL d   1      29.315 -14.454   4.413  0.00  0.00     0.001 A 
ATOM     13  C   UNL d   1      28.020 -14.232   4.888  0.00  0.00     0.000 A 
ATOM     14  C   UNL d   1      27.033 -13.700   4.059  0.00  0.00     0.001 A 
ATOM     15  C   UNL d   1      27.345 -13.400   2.747  0.00  0.00     0.009 A 
ENDBRANCH   9  10
ENDBRANCH   7   9
ENDBRANCH   4   5
BRANCH   4  16
ATOM     16  C   UNL d   1      28.504 -16.836  -1.647  0.00  0.00     0.035 C 
BRANCH  16  17
ATOM     17  C   UNL d   1      29.968 -16.873  -2.136  0.00  0.00    -0.002 C 
ATOM     18  C   UNL d   1      30.024 -17.252  -3.588  0.00  0.00     0.005 C 
ENDBRANCH  16  17
ENDBRANCH   4  16
ENDBRANCH   1   4
BRANCH   1  19
ATOM     19  C   UNL d   1      25.557 -16.619  -1.507  0.00  0.00     0.077 A 
ATOM     20  C   UNL d   1      24.410 -17.254  -2.020  0.00  0.00     0.033 A 
ATOM     21  C   UNL d   1      23.596 -18.100  -1.222  0.00  0.00     0.002 A 
ATOM     22  C   UNL d   1      23.950 -18.436   0.080  0.00  0.00     0.003 A 
ATOM     23  C   UNL d   1      25.090 -17.881   0.601  0.00  0.00     0.044 A 
ATOM     24  C   UNL d   1      25.828 -16.972  -0.158  0.00  0.00     0.143 A 
ATOM     25  F   UNL d   1      26.704 -16.344   0.617  0.00  0.00    -0.204 F 
ENDBRANCH   1  19
BRANCH   2  26
ATOM     26  C   UNL d   1      26.247 -13.921  -4.216  0.00  0.00     0.115 C 
ATOM     27  S   UNL d   1      27.528 -14.531  -5.185  0.00  0.00     0.019 SA
ATOM     28  N   UNL d   1      27.706 -13.176  -6.162  0.00  0.00    -0.203 NA
ATOM     29  C   UNL d   1      26.831 -12.239  -5.757  0.00  0.00     0.155 C 
ATOM     30  C   UNL d   1      26.123 -12.583  -4.530  0.00  0.00     0.065 C 
BRANCH  29  31
ATOM     31  C   UNL d   1      26.463 -11.065  -6.604  0.00  0.00     0.270 C 
ATOM     32  N   UNL d   1      27.251 -10.743  -7.679  0.00  0.00    -0.365 N 
ATOM     33  H   UNL d   1      28.088 -11.251  -7.922  0.00  0.00     0.159 HD
ATOM     34  H   UNL d   1      26.967  -9.934  -8.218  0.00  0.00     0.159 HD
ATOM     35  O   UNL d   1      25.429 -10.418  -6.449  0.00  0.00    -0.266 OA
ENDBRANCH  29  31
BRANCH  30  36
ATOM     36  N   UNL d   1      25.221 -11.753  -3.938  0.00  0.00    -0.299 NA
ATOM     37  H   UNL d   1      24.812 -11.100  -4.636  0.00  0.00     0.124 HD
ATOM     38  H   UNL d   1      24.404 -12.190  -3.522  0.00  0.00     0.124 HD
ENDBRANCH  30  36
ENDBRANCH   2  26
TORSDOF 10
ENDMDL
MODEL 4
REMARK VINA RESULT:    -7.162      2.877      5.991
REMARK INTER + INTRA:         -13.650
REMARK INTER:                 -10.145
REMARK INTRA:                  -3.505
REMARK CONF_INDEPENDENT:        2.983
REMARK UNBOUND:                -3.505
REMARK  10 active torsions:
REMARK  status: ('A' for Active; 'I' for Inactive)
REMARK    1  A    between atoms: C_2  and  C_3 
REMARK    2  A    between atoms: C_4  and  C_3 
REMARK    3  A    between atoms: C_4  and  N_15 
REMARK    4  A    between atoms: C_4  and  C_5 
REMARK       I    between atoms: C_5  and  N_7 
REMARK    5  A    between atoms: N_7  and  C_8 
REMARK    6  A    between atoms: C_8  and  C_9 
REMARK       I    between atoms: N_15  and  C_16 
REMARK    7  A    between atoms: N_15  and  C_27 
REMARK    8  A    between atoms: C_16  and  C_18 
REMARK    9  A    between atoms: C_21  and  C_22 
REMARK       I    between atoms: C_22  and  N_23 
REMARK   10  A    between atoms: C_25  and  N_26 
ROOT
ATOM      1  N   UNL d   1      26.250 -15.282  -2.172  0.00  0.00    -0.296 N 
ATOM      2  C   UNL d   1      25.616 -14.673  -3.325  0.00  0.00     0.269 C 
ATOM      3  O   UNL d   1      24.407 -14.825  -3.520  0.00  0.00    -0.266 OA
ENDROOT
BRANCH   1   4
ATOM      4  C   UNL d   1      27.656 -14.952  -1.671  0.00  0.00     0.185 C 
BRANCH   4   5
ATOM      5  C   UNL d   1      29.005 -15.510  -2.247  0.00  0.00     0.241 C 
ATOM      6  O   UNL d   1      30.046 -14.917  -2.096  0.00  0.00    -0.271 OA
ATOM      7  N   UNL d   1      28.960 -16.688  -2.971  0.00  0.00    -0.355 N 
ATOM      8  H   UNL d   1      28.325 -16.715  -3.760  0.00  0.00     0.162 HD
BRANCH   7   9
ATOM      9  C   UNL d   1      30.152 -17.449  -3.196  0.00  0.00     0.161 C 
BRANCH   9  10
ATOM     10  C   UNL d   1      30.443 -17.571  -4.644  0.00  0.00    -0.041 A 
ATOM     11  C   UNL d   1      30.535 -16.429  -5.434  0.00  0.00     0.009 A 
ATOM     12  C   UNL d   1      30.662 -16.576  -6.806  0.00  0.00     0.001 A 
ATOM     13  C   UNL d   1      30.780 -17.852  -7.364  0.00  0.00     0.000 A 
ATOM     14  C   UNL d   1      30.731 -18.992  -6.564  0.00  0.00     0.001 A 
ATOM     15  C   UNL d   1      30.553 -18.851  -5.200  0.00  0.00     0.009 A 
ENDBRANCH   9  10
ENDBRANCH   7   9
ENDBRANCH   4   5
BRANCH   4  16
ATOM     16  C   UNL d   1      27.976 -13.472  -1.529  0.00  0.00     0.035 C 
BRANCH  16  17
ATOM     17  C   UNL d   1      27.014 -12.842  -0.499  0.00  0.00    -0.002 C 
ATOM     18  C   UNL d   1      26.808 -13.773   0.662  0.00  0.00     0.005 C 
ENDBRANCH  16  17
ENDBRANCH   4  16
ENDBRANCH   1   4
BRANCH   1  19
ATOM     19  C   UNL d   1      25.442 -16.286  -1.384  0.00  0.00     0.077 A 
ATOM     20  C   UNL d   1      24.041 -16.174  -1.293  0.00  0.00     0.033 A 
ATOM     21  C   UNL d   1      23.269 -17.030  -0.463  0.00  0.00     0.002 A 
ATOM     22  C   UNL d   1      23.844 -18.098   0.219  0.00  0.00     0.003 A 
ATOM     23  C   UNL d   1      25.199 -18.274   0.113  0.00  0.00     0.044 A 
ATOM     24  C   UNL d   1      25.962 -17.367  -0.624  0.00  0.00     0.143 A 
ATOM     25  F   UNL d   1      27.251 -17.544  -0.362  0.00  0.00    -0.204 F 
ENDBRANCH   1  19
BRANCH   2  26
ATOM     26  C   UNL d   1      26.381 -13.844  -4.256  0.00  0.00     0.115 C 
ATOM     27  S   UNL d   1      27.740 -14.478  -5.094  0.00  0.00     0.019 SA
ATOM     28  N   UNL d   1      28.014 -13.143  -6.075  0.00  0.00    -0.203 NA
ATOM     29  C   UNL d   1      27.111 -12.195  -5.770  0.00  0.00     0.155 C 
ATOM     30  C   UNL d   1      26.293 -12.511  -4.606  0.00  0.00     0.065 C 
BRANCH  29  31
ATOM     31  C   UNL d   1      26.828 -11.036  -6.669  0.00  0.00     0.270 C 
ATOM     32  N   UNL d   1      27.540 -10.904  -7.833  0.00  0.00    -0.365 N 
ATOM     33  H   UNL d   1      28.268 -11.544  -8.111  0.00  0.00     0.159 HD
ATOM     34  H   UNL d   1      27.320 -10.098  -8.406  0.00  0.00     0.159 HD
ATOM     35  O   UNL d   1      25.917 -10.234  -6.471  0.00  0.00    -0.266 OA
ENDBRANCH  29  31
BRANCH  30  36
ATOM     36  N   UNL d   1      25.346 -11.666  -4.114  0.00  0.00    -0.299 NA
ATOM     37  H   UNL d   1      25.104 -10.940  -4.817  0.00  0.00     0.124 HD
ATOM     38  H   UNL d   1      24.445 -12.076  -3.884  0.00  0.00     0.124 HD
ENDBRANCH  30  36
ENDBRANCH   2  26
TORSDOF 10
ENDMDL
MODEL 5
REMARK VINA RESULT:    -6.871      3.268      6.982
REMARK INTER + INTRA:         -14.040
REMARK INTER:                  -9.854
REMARK INTRA:                  -4.185
REMARK CONF_INDEPENDENT:        2.983
REMARK UNBOUND:                -4.185
REMARK  10 active torsions:
REMARK  status: ('A' for Active; 'I' for Inactive)
REMARK    1  A    between atoms: C_2  and  C_3 
REMARK    2  A    between atoms: C_4  and  C_3 
REMARK    3  A    between atoms: C_4  and  N_15 
REMARK    4  A    between atoms: C_4  and  C_5 
REMARK       I    between atoms: C_5  and  N_7 
REMARK    5  A    between atoms: N_7  and  C_8 
REMARK    6  A    between atoms: C_8  and  C_9 
REMARK       I    between atoms: N_15  and  C_16 
REMARK    7  A    between atoms: N_15  and  C_27 
REMARK    8  A    between atoms: C_16  and  C_18 
REMARK    9  A    between atoms: C_21  and  C_22 
REMARK       I    between atoms: C_22  and  N_23 
REMARK   10  A    between atoms: C_25  and  N_26 
ROOT
ATOM      1  N   UNL d   1      27.518 -14.107  -0.591  0.00  0.00    -0.296 N 
ATOM      2  C   UNL d   1      27.715 -13.065   0.397  0.00  0.00     0.269 C 
ATOM      3  O   UNL d   1      27.040 -12.033   0.352  0.00  0.00    -0.266 OA
ENDROOT
BRANCH   1   4
ATOM      4  C   UNL d   1      28.081 -15.525  -0.491  0.00  0.00     0.185 C 
BRANCH   4   5
ATOM      5  C   UNL d   1      27.373 -16.763   0.166  0.00  0.00     0.241 C 
ATOM      6  O   UNL d   1      27.408 -16.948   1.359  0.00  0.00    -0.271 OA
ATOM      7  N   UNL d   1      26.737 -17.662  -0.671  0.00  0.00    -0.355 N 
ATOM      8  H   UNL d   1      27.293 -18.063  -1.417  0.00  0.00     0.162 HD
BRANCH   7   9
ATOM      9  C   UNL d   1      25.769 -18.580  -0.151  0.00  0.00     0.161 C 
BRANCH   9  10
ATOM     10  C   UNL d   1      24.390 -18.147  -0.482  0.00  0.00    -0.041 A 
ATOM     11  C   UNL d   1      24.098 -16.793  -0.610  0.00  0.00     0.009 A 
ATOM     12  C   UNL d   1      22.777 -16.408  -0.775  0.00  0.00     0.001 A 
ATOM     13  C   UNL d   1      21.777 -17.378  -0.895  0.00  0.00     0.000 A 
ATOM     14  C   UNL d   1      22.081 -18.736  -0.811  0.00  0.00     0.001 A 
ATOM     15  C   UNL d   1      23.390 -19.121  -0.595  0.00  0.00     0.009 A 
ENDBRANCH   9  10
ENDBRANCH   7   9
ENDBRANCH   4   5
BRANCH   4  16
ATOM     16  C   UNL d   1      28.598 -16.125  -1.789  0.00  0.00     0.035 C 
BRANCH  16  17
ATOM     17  C   UNL d   1      30.141 -16.090  -1.783  0.00  0.00    -0.002 C 
ATOM     18  C   UNL d   1      30.654 -15.875  -0.389  0.00  0.00     0.005 C 
ENDBRANCH  16  17
ENDBRANCH   4  16
ENDBRANCH   1   4
BRANCH   1  19
ATOM     19  C   UNL d   1      26.655 -13.778  -1.786  0.00  0.00     0.077 A 
ATOM     20  C   UNL d   1      25.724 -14.709  -2.284  0.00  0.00     0.033 A 
ATOM     21  C   UNL d   1      24.986 -14.474  -3.475  0.00  0.00     0.002 A 
ATOM     22  C   UNL d   1      25.062 -13.262  -4.153  0.00  0.00     0.003 A 
ATOM     23  C   UNL d   1      25.918 -12.307  -3.670  0.00  0.00     0.044 A 
ATOM     24  C   UNL d   1      26.713 -12.586  -2.557  0.00  0.00     0.143 A 
ATOM     25  F   UNL d   1      27.658 -11.662  -2.435  0.00  0.00    -0.204 F 
ENDBRANCH   1  19
BRANCH   2  26
ATOM     26  C   UNL d   1      28.686 -13.225   1.480  0.00  0.00     0.115 C 
ATOM     27  S   UNL d   1      30.130 -12.295   1.519  0.00  0.00     0.019 SA
ATOM     28  N   UNL d   1      30.660 -12.806   3.028  0.00  0.00    -0.203 NA
ATOM     29  C   UNL d   1      29.780 -13.701   3.509  0.00  0.00     0.155 C 
ATOM     30  C   UNL d   1      28.748 -14.087   2.556  0.00  0.00     0.065 C 
BRANCH  29  31
ATOM     31  C   UNL d   1      29.737 -14.088   4.952  0.00  0.00     0.270 C 
ATOM     32  N   UNL d   1      29.214 -15.307   5.301  0.00  0.00    -0.365 N 
ATOM     33  H   UNL d   1      28.834 -15.957   4.631  0.00  0.00     0.159 HD
ATOM     34  H   UNL d   1      29.198 -15.522   6.290  0.00  0.00     0.159 HD
ATOM     35  O   UNL d   1      30.236 -13.411   5.848  0.00  0.00    -0.266 OA
ENDBRANCH  29  31
BRANCH  30  36
ATOM     36  N   UNL d   1      27.785 -15.007   2.838  0.00  0.00    -0.299 NA
ATOM     37  H   UNL d   1      27.174 -15.161   2.012  0.00  0.00     0.124 HD
ATOM     38  H   UNL d   1      28.104 -15.944   3.070  0.00  0.00     0.124 HD
ENDBRANCH  30  36
ENDBRANCH   2  26
TORSDOF 10
ENDMDL
MODEL 6
REMARK VINA RESULT:    -6.689      2.461      3.654
REMARK INTER + INTRA:         -13.624
REMARK INTER:                  -9.672
REMARK INTRA:                  -3.952
REMARK CONF_INDEPENDENT:        2.983
REMARK UNBOUND:                -3.952
REMARK  10 active torsions:
REMARK  status: ('A' for Active; 'I' for Inactive)
REMARK    1  A    between atoms: C_2  and  C_3 
REMARK    2  A    between atoms: C_4  and  C_3 
REMARK    3  A    between atoms: C_4  and  N_15 
REMARK    4  A    between atoms: C_4  and  C_5 
REMARK       I    between atoms: C_5  and  N_7 
REMARK    5  A    between atoms: N_7  and  C_8 
REMARK    6  A    between atoms: C_8  and  C_9 
REMARK       I    between atoms: N_15  and  C_16 
REMARK    7  A    between atoms: N_15  and  C_27 
REMARK    8  A    between atoms: C_16  and  C_18 
REMARK    9  A    between atoms: C_21  and  C_22 
REMARK       I    between atoms: C_22  and  N_23 
REMARK   10  A    between atoms: C_25  and  N_26 
ROOT
ATOM      1  N   UNL d   1      26.534 -15.614  -0.807  0.00  0.00    -0.296 N 
ATOM      2  C   UNL d   1      27.826 -16.240  -1.010  0.00  0.00     0.269 C 
ATOM      3  O   UNL d   1      27.900 -17.451  -1.234  0.00  0.00    -0.266 OA
ENDROOT
BRANCH   1   4
ATOM      4  C   UNL d   1      26.284 -14.106  -0.798  0.00  0.00     0.185 C 
BRANCH   4   5
ATOM      5  C   UNL d   1      26.876 -13.071   0.223  0.00  0.00     0.241 C 
ATOM      6  O   UNL d   1      27.183 -11.954  -0.120  0.00  0.00    -0.271 OA
ATOM      7  N   UNL d   1      27.075 -13.489   1.526  0.00  0.00    -0.355 N 
ATOM      8  H   UNL d   1      27.643 -14.318   1.658  0.00  0.00     0.162 HD
BRANCH   7   9
ATOM      9  C   UNL d   1      27.241 -12.534   2.580  0.00  0.00     0.161 C 
BRANCH   9  10
ATOM     10  C   UNL d   1      27.761 -13.178   3.809  0.00  0.00    -0.041 A 
ATOM     11  C   UNL d   1      27.858 -14.565   3.880  0.00  0.00     0.009 A 
ATOM     12  C   UNL d   1      28.208 -15.147   5.087  0.00  0.00     0.001 A 
ATOM     13  C   UNL d   1      28.539 -14.343   6.181  0.00  0.00     0.000 A 
ATOM     14  C   UNL d   1      28.484 -12.952   6.092  0.00  0.00     0.001 A 
ATOM     15  C   UNL d   1      28.086 -12.369   4.905  0.00  0.00     0.009 A 
ENDBRANCH   9  10
ENDBRANCH   7   9
ENDBRANCH   4   5
BRANCH   4  16
ATOM     16  C   UNL d   1      26.509 -13.390  -2.120  0.00  0.00     0.035 C 
BRANCH  16  17
ATOM     17  C   UNL d   1      26.094 -14.323  -3.278  0.00  0.00    -0.002 C 
ATOM     18  C   UNL d   1      24.789 -13.874  -3.870  0.00  0.00     0.005 C 
ENDBRANCH  16  17
ENDBRANCH   4  16
ENDBRANCH   1   4
BRANCH   1  19
ATOM     19  C   UNL d   1      25.341 -16.524  -0.637  0.00  0.00     0.077 A 
ATOM     20  C   UNL d   1      24.077 -16.163  -1.144  0.00  0.00     0.033 A 
ATOM     21  C   UNL d   1      22.915 -16.940  -0.895  0.00  0.00     0.002 A 
ATOM     22  C   UNL d   1      22.982 -18.160  -0.230  0.00  0.00     0.003 A 
ATOM     23  C   UNL d   1      24.203 -18.574   0.233  0.00  0.00     0.044 A 
ATOM     24  C   UNL d   1      25.322 -17.755   0.071  0.00  0.00     0.143 A 
ATOM     25  F   UNL d   1      26.317 -18.195   0.832  0.00  0.00    -0.204 F 
ENDBRANCH   1  19
BRANCH   2  26
ATOM     26  C   UNL d   1      29.058 -15.450  -0.990  0.00  0.00     0.115 C 
ATOM     27  S   UNL d   1      29.837 -14.989  -2.450  0.00  0.00     0.019 SA
ATOM     28  N   UNL d   1      31.005 -14.004  -1.753  0.00  0.00    -0.203 NA
ATOM     29  C   UNL d   1      30.846 -14.030  -0.419  0.00  0.00     0.155 C 
ATOM     30  C   UNL d   1      29.857 -14.996   0.040  0.00  0.00     0.065 C 
BRANCH  29  31
ATOM     31  C   UNL d   1      31.463 -13.010   0.483  0.00  0.00     0.270 C 
ATOM     32  N   UNL d   1      31.556 -13.275   1.825  0.00  0.00    -0.365 N 
ATOM     33  H   UNL d   1      31.210 -14.123   2.246  0.00  0.00     0.159 HD
ATOM     34  H   UNL d   1      31.973 -12.551   2.398  0.00  0.00     0.159 HD
ATOM     35  O   UNL d   1      31.984 -11.974   0.075  0.00  0.00    -0.266 OA
ENDBRANCH  29  31
BRANCH  30  36
ATOM     36  N   UNL d   1      29.575 -15.200   1.356  0.00  0.00    -0.299 NA
ATOM     37  H   UNL d   1      28.818 -15.904   1.462  0.00  0.00     0.124 HD
ATOM     38  H   UNL d   1      30.325 -15.577   1.929  0.00  0.00     0.124 HD
ENDBRANCH  30  36
ENDBRANCH   2  26
TORSDOF 10
ENDMDL
MODEL 7
REMARK VINA RESULT:    -6.549      2.276      5.936
REMARK INTER + INTRA:         -13.911
REMARK INTER:                  -9.532
REMARK INTRA:                  -4.379
REMARK CONF_INDEPENDENT:        2.983
REMARK UNBOUND:                -4.379
REMARK  10 active torsions:
REMARK  status: ('A' for Active; 'I' for Inactive)
REMARK    1  A    between atoms: C_2  and  C_3 
REMARK    2  A    between atoms: C_4  and  C_3 
REMARK    3  A    between atoms: C_4  and  N_15 
REMARK    4  A    between atoms: C_4  and  C_5 
REMARK       I    between atoms: C_5  and  N_7 
REMARK    5  A    between atoms: N_7  and  C_8 
REMARK    6  A    between atoms: C_8  and  C_9 
REMARK       I    between atoms: N_15  and  C_16 
REMARK    7  A    between atoms: N_15  and  C_27 
REMARK    8  A    between atoms: C_16  and  C_18 
REMARK    9  A    between atoms: C_21  and  C_22 
REMARK       I    between atoms: C_22  and  N_23 
REMARK   10  A    between atoms: C_25  and  N_26 
ROOT
ATOM      1  N   UNL d   1      28.344 -14.386   0.776  0.00  0.00    -0.296 N 
ATOM      2  C   UNL d   1      28.094 -13.136   0.085  0.00  0.00     0.269 C 
ATOM      3  O   UNL d   1      28.216 -12.063   0.681  0.00  0.00    -0.266 OA
ENDROOT
BRANCH   1   4
ATOM      4  C   UNL d   1      28.496 -15.746   0.097  0.00  0.00     0.185 C 
BRANCH   4   5
ATOM      5  C   UNL d   1      27.332 -16.680  -0.389  0.00  0.00     0.241 C 
ATOM      6  O   UNL d   1      26.990 -16.708  -1.548  0.00  0.00    -0.271 OA
ATOM      7  N   UNL d   1      26.678 -17.445   0.559  0.00  0.00    -0.355 N 
ATOM      8  H   UNL d   1      26.284 -16.951   1.352  0.00  0.00     0.162 HD
BRANCH   7   9
ATOM      9  C   UNL d   1      25.891 -18.574   0.166  0.00  0.00     0.161 C 
BRANCH   9  10
ATOM     10  C   UNL d   1      24.538 -18.156  -0.273  0.00  0.00    -0.041 A 
ATOM     11  C   UNL d   1      24.231 -16.804  -0.387  0.00  0.00     0.009 A 
ATOM     12  C   UNL d   1      22.922 -16.438  -0.657  0.00  0.00     0.001 A 
ATOM     13  C   UNL d   1      21.956 -17.420  -0.892  0.00  0.00     0.000 A 
ATOM     14  C   UNL d   1      22.278 -18.775  -0.819  0.00  0.00     0.001 A 
ATOM     15  C   UNL d   1      23.572 -19.144  -0.501  0.00  0.00     0.009 A 
ENDBRANCH   9  10
ENDBRANCH   7   9
ENDBRANCH   4   5
BRANCH   4  16
ATOM     16  C   UNL d   1      29.436 -15.786  -1.099  0.00  0.00     0.035 C 
BRANCH  16  17
ATOM     17  C   UNL d   1      29.864 -17.247  -1.357  0.00  0.00    -0.002 C 
ATOM     18  C   UNL d   1      30.412 -17.394  -2.747  0.00  0.00     0.005 C 
ENDBRANCH  16  17
ENDBRANCH   4  16
ENDBRANCH   1   4
BRANCH   1  19
ATOM     19  C   UNL d   1      28.508 -14.329   2.277  0.00  0.00     0.077 A 
ATOM     20  C   UNL d   1      27.406 -14.076   3.116  0.00  0.00     0.033 A 
ATOM     21  C   UNL d   1      27.551 -13.898   4.518  0.00  0.00     0.002 A 
ATOM     22  C   UNL d   1      28.776 -14.074   5.152  0.00  0.00     0.003 A 
ATOM     23  C   UNL d   1      29.865 -14.373   4.377  0.00  0.00     0.044 A 
ATOM     24  C   UNL d   1      29.731 -14.447   2.990  0.00  0.00     0.143 A 
ATOM     25  F   UNL d   1      30.930 -14.455   2.420  0.00  0.00    -0.204 F 
ENDBRANCH   1  19
BRANCH   2  26
ATOM     26  C   UNL d   1      27.730 -13.118  -1.332  0.00  0.00     0.115 C 
ATOM     27  S   UNL d   1      28.627 -12.187  -2.463  0.00  0.00     0.019 SA
ATOM     28  N   UNL d   1      27.843 -12.736  -3.844  0.00  0.00    -0.203 NA
ATOM     29  C   UNL d   1      26.882 -13.599  -3.474  0.00  0.00     0.155 C 
ATOM     30  C   UNL d   1      26.684 -13.683  -2.033  0.00  0.00     0.065 C 
BRANCH  29  31
ATOM     31  C   UNL d   1      26.235 -14.541  -4.438  0.00  0.00     0.270 C 
ATOM     32  N   UNL d   1      26.898 -14.878  -5.589  0.00  0.00    -0.365 N 
ATOM     33  H   UNL d   1      27.802 -14.505  -5.836  0.00  0.00     0.159 HD
ATOM     34  H   UNL d   1      26.417 -15.512  -6.216  0.00  0.00     0.159 HD
ATOM     35  O   UNL d   1      25.171 -15.114  -4.211  0.00  0.00    -0.266 OA
ENDBRANCH  29  31
BRANCH  30  36
ATOM     36  N   UNL d   1      25.736 -14.473  -1.460  0.00  0.00    -0.299 NA
ATOM     37  H   UNL d   1      25.468 -15.246  -2.101  0.00  0.00     0.124 HD
ATOM     38  H   UNL d   1      26.001 -14.959  -0.608  0.00  0.00     0.124 HD
ENDBRANCH  30  36
ENDBRANCH   2  26
TORSDOF 10
ENDMDL
MODEL 8
REMARK VINA RESULT:    -5.883      3.389      5.424
REMARK INTER + INTRA:         -13.424
REMARK INTER:                  -8.866
REMARK INTRA:                  -4.559
REMARK CONF_INDEPENDENT:        2.983
REMARK UNBOUND:                -4.559
REMARK  10 active torsions:
REMARK  status: ('A' for Active; 'I' for Inactive)
REMARK    1  A    between atoms: C_2  and  C_3 
REMARK    2  A    between atoms: C_4  and  C_3 
REMARK    3  A    between atoms: C_4  and  N_15 
REMARK    4  A    between atoms: C_4  and  C_5 
REMARK       I    between atoms: C_5  and  N_7 
REMARK    5  A    between atoms: N_7  and  C_8 
REMARK    6  A    between atoms: C_8  and  C_9 
REMARK       I    between atoms: N_15  and  C_16 
REMARK    7  A    between atoms: N_15  and  C_27 
REMARK    8  A    between atoms: C_16  and  C_18 
REMARK    9  A    between atoms: C_21  and  C_22 
REMARK       I    between atoms: C_22  and  N_23 
REMARK   10  A    between atoms: C_25  and  N_26 
ROOT
ATOM      1  N   UNL d   1      26.287 -14.984  -2.504  0.00  0.00    -0.296 N 
ATOM      2  C   UNL d   1      26.202 -15.063  -3.949  0.00  0.00     0.269 C 
ATOM      3  O   UNL d   1      25.528 -15.947  -4.484  0.00  0.00    -0.266 OA
ENDROOT
BRANCH   1   4
ATOM      4  C   UNL d   1      26.850 -13.797  -1.724  0.00  0.00     0.185 C 
BRANCH   4   5
ATOM      5  C   UNL d   1      26.619 -12.277  -2.047  0.00  0.00     0.241 C 
ATOM      6  O   UNL d   1      25.623 -11.900  -2.617  0.00  0.00    -0.271 OA
ATOM      7  N   UNL d   1      27.612 -11.384  -1.692  0.00  0.00    -0.355 N 
ATOM      8  H   UNL d   1      28.543 -11.572  -2.045  0.00  0.00     0.162 HD
BRANCH   7   9
ATOM      9  C   UNL d   1      27.331  -9.983  -1.599  0.00  0.00     0.161 C 
BRANCH   9  10
ATOM     10  C   UNL d   1      26.870  -9.443  -2.901  0.00  0.00    -0.041 A 
ATOM     11  C   UNL d   1      25.559  -9.000  -3.046  0.00  0.00     0.009 A 
ATOM     12  C   UNL d   1      25.113  -8.638  -4.306  0.00  0.00     0.001 A 
ATOM     13  C   UNL d   1      25.998  -8.639  -5.388  0.00  0.00     0.000 A 
ATOM     14  C   UNL d   1      27.324  -9.041  -5.229  0.00  0.00     0.001 A 
ATOM     15  C   UNL d   1      27.759  -9.452  -3.983  0.00  0.00     0.009 A 
ENDBRANCH   9  10
ENDBRANCH   7   9
ENDBRANCH   4   5
BRANCH   4  16
ATOM     16  C   UNL d   1      26.621 -13.825  -0.221  0.00  0.00     0.035 C 
BRANCH  16  17
ATOM     17  C   UNL d   1      27.988 -13.863   0.498  0.00  0.00    -0.002 C 
ATOM     18  C   UNL d   1      27.796 -13.837   1.987  0.00  0.00     0.005 C 
ENDBRANCH  16  17
ENDBRANCH   4  16
ENDBRANCH   1   4
BRANCH   1  19
ATOM     19  C   UNL d   1      25.737 -16.147  -1.712  0.00  0.00     0.077 A 
ATOM     20  C   UNL d   1      24.348 -16.363  -1.615  0.00  0.00     0.033 A 
ATOM     21  C   UNL d   1      23.800 -17.374  -0.782  0.00  0.00     0.002 A 
ATOM     22  C   UNL d   1      24.609 -18.278  -0.102  0.00  0.00     0.003 A 
ATOM     23  C   UNL d   1      25.967 -18.135  -0.213  0.00  0.00     0.044 A 
ATOM     24  C   UNL d   1      26.496 -17.077  -0.954  0.00  0.00     0.143 A 
ATOM     25  F   UNL d   1      27.793 -16.950  -0.697  0.00  0.00    -0.204 F 
ENDBRANCH   1  19
BRANCH   2  26
ATOM     26  C   UNL d   1      26.879 -14.082  -4.799  0.00  0.00     0.115 C 
ATOM     27  S   UNL d   1      28.538 -14.264  -5.210  0.00  0.00     0.019 SA
ATOM     28  N   UNL d   1      28.620 -12.982  -6.292  0.00  0.00    -0.203 NA
ATOM     29  C   UNL d   1      27.417 -12.384  -6.338  0.00  0.00     0.155 C 
ATOM     30  C   UNL d   1      26.468 -12.887  -5.352  0.00  0.00     0.065 C 
BRANCH  29  31
ATOM     31  C   UNL d   1      27.025 -11.452  -7.438  0.00  0.00     0.270 C 
ATOM     32  N   UNL d   1      27.881 -11.267  -8.493  0.00  0.00    -0.365 N 
ATOM     33  H   UNL d   1      28.781 -11.716  -8.560  0.00  0.00     0.159 HD
ATOM     34  H   UNL d   1      27.576 -10.620  -9.211  0.00  0.00     0.159 HD
ATOM     35  O   UNL d   1      25.925 -10.907  -7.502  0.00  0.00    -0.266 OA
ENDBRANCH  29  31
BRANCH  30  36
ATOM     36  N   UNL d   1      25.210 -12.388  -5.214  0.00  0.00    -0.299 NA
ATOM     37  H   UNL d   1      24.983 -12.242  -4.210  0.00  0.00     0.124 HD
ATOM     38  H   UNL d   1      25.033 -11.476  -5.627  0.00  0.00     0.124 HD
ENDBRANCH  30  36
ENDBRANCH   2  26
TORSDOF 10
ENDMDL
MODEL 9
REMARK VINA RESULT:    -5.427      2.922      4.736
REMARK INTER + INTRA:         -13.781
REMARK INTER:                  -8.410
REMARK INTRA:                  -5.371
REMARK CONF_INDEPENDENT:        2.983
REMARK UNBOUND:                -5.371
REMARK  10 active torsions:
REMARK  status: ('A' for Active; 'I' for Inactive)
REMARK    1  A    between atoms: C_2  and  C_3 
REMARK    2  A    between atoms: C_4  and  C_3 
REMARK    3  A    between atoms: C_4  and  N_15 
REMARK    4  A    between atoms: C_4  and  C_5 
REMARK       I    between atoms: C_5  and  N_7 
REMARK    5  A    between atoms: N_7  and  C_8 
REMARK    6  A    between atoms: C_8  and  C_9 
REMARK       I    between atoms: N_15  and  C_16 
REMARK    7  A    between atoms: N_15  and  C_27 
REMARK    8  A    between atoms: C_16  and  C_18 
REMARK    9  A    between atoms: C_21  and  C_22 
REMARK       I    between atoms: C_22  and  N_23 
REMARK   10  A    between atoms: C_25  and  N_26 
ROOT
ATOM      1  N   UNL d   1      25.787 -15.579  -2.209  0.00  0.00    -0.296 N 
ATOM      2  C   UNL d   1      25.181 -14.620  -3.112  0.00  0.00     0.269 C 
ATOM      3  O   UNL d   1      23.959 -14.450  -3.108  0.00  0.00    -0.266 OA
ENDROOT
BRANCH   1   4
ATOM      4  C   UNL d   1      27.284 -15.685  -1.922  0.00  0.00     0.185 C 
BRANCH   4   5
ATOM      5  C   UNL d   1      28.445 -15.537  -2.969  0.00  0.00     0.241 C 
ATOM      6  O   UNL d   1      28.331 -15.950  -4.098  0.00  0.00    -0.271 OA
ATOM      7  N   UNL d   1      29.624 -14.951  -2.546  0.00  0.00    -0.355 N 
ATOM      8  H   UNL d   1      30.073 -15.362  -1.736  0.00  0.00     0.162 HD
BRANCH   7   9
ATOM      9  C   UNL d   1      30.564 -14.440  -3.498  0.00  0.00     0.161 C 
BRANCH   9  10
ATOM     10  C   UNL d   1      30.495 -12.962  -3.578  0.00  0.00    -0.041 A 
ATOM     11  C   UNL d   1      29.686 -12.254  -2.693  0.00  0.00     0.009 A 
ATOM     12  C   UNL d   1      29.525 -10.891  -2.881  0.00  0.00     0.001 A 
ATOM     13  C   UNL d   1      30.236 -10.237  -3.891  0.00  0.00     0.000 A 
ATOM     14  C   UNL d   1      31.080 -10.943  -4.747  0.00  0.00     0.001 A 
ATOM     15  C   UNL d   1      31.203 -12.311  -4.595  0.00  0.00     0.009 A 
ENDBRANCH   9  10
ENDBRANCH   7   9
ENDBRANCH   4   5
BRANCH   4  16
ATOM     16  C   UNL d   1      27.800 -14.832  -0.774  0.00  0.00     0.035 C 
BRANCH  16  17
ATOM     17  C   UNL d   1      26.654 -13.937  -0.255  0.00  0.00    -0.002 C 
ATOM     18  C   UNL d   1      27.173 -12.571   0.092  0.00  0.00     0.005 C 
ENDBRANCH  16  17
ENDBRANCH   4  16
ENDBRANCH   1   4
BRANCH   1  19
ATOM     19  C   UNL d   1      24.861 -16.512  -1.465  0.00  0.00     0.077 A 
ATOM     20  C   UNL d   1      23.506 -16.183  -1.270  0.00  0.00     0.033 A 
ATOM     21  C   UNL d   1      22.644 -16.982  -0.473  0.00  0.00     0.002 A 
ATOM     22  C   UNL d   1      23.064 -18.193   0.067  0.00  0.00     0.003 A 
ATOM     23  C   UNL d   1      24.362 -18.577  -0.145  0.00  0.00     0.044 A 
ATOM     24  C   UNL d   1      25.229 -17.736  -0.845  0.00  0.00     0.143 A 
ATOM     25  F   UNL d   1      26.481 -18.147  -0.687  0.00  0.00    -0.204 F 
ENDBRANCH   1  19
BRANCH   2  26
ATOM     26  C   UNL d   1      26.001 -13.813  -4.016  0.00  0.00     0.115 C 
ATOM     27  S   UNL d   1      26.240 -12.135  -3.733  0.00  0.00     0.019 SA
ATOM     28  N   UNL d   1      27.362 -11.881  -4.956  0.00  0.00    -0.203 NA
ATOM     29  C   UNL d   1      27.551 -13.040  -5.611  0.00  0.00     0.155 C 
ATOM     30  C   UNL d   1      26.642 -14.104  -5.203  0.00  0.00     0.065 C 
BRANCH  29  31
ATOM     31  C   UNL d   1      28.723 -13.274  -6.507  0.00  0.00     0.270 C 
ATOM     32  N   UNL d   1      29.239 -14.539  -6.615  0.00  0.00    -0.365 N 
ATOM     33  H   UNL d   1      28.879 -15.329  -6.102  0.00  0.00     0.159 HD
ATOM     34  H   UNL d   1      30.038 -14.648  -7.228  0.00  0.00     0.159 HD
ATOM     35  O   UNL d   1      29.200 -12.406  -7.236  0.00  0.00    -0.266 OA
ENDBRANCH  29  31
BRANCH  30  36
ATOM     36  N   UNL d   1      26.648 -15.341  -5.770  0.00  0.00    -0.299 NA
ATOM     37  H   UNL d   1      27.597 -15.575  -6.125  0.00  0.00     0.124 HD
ATOM     38  H   UNL d   1      26.429 -16.123  -5.159  0.00  0.00     0.124 HD
ENDBRANCH  30  36
ENDBRANCH   2  26
TORSDOF 10
ENDMDL
