MODEL 1
REMARK VINA RESULT:    -7.714      0.000      0.000
REMARK INTER + INTRA:          -9.898
REMARK INTER:                  -9.205
REMARK INTRA:                  -0.693
REMARK CONF_INDEPENDENT:        1.492
REMARK UNBOUND:                -0.693
REMARK  5 active torsions:
REMARK  status: ('A' for Active; 'I' for Inactive)
REMARK    1  A    between atoms: C_2  and  N_3 
REMARK    2  A    between atoms: N_3  and  N_4 
REMARK    3  A    between atoms: N_3  and  C_17 
REMARK       I    between atoms: N_4  and  C_5 
REMARK    4  A    between atoms: C_5  and  C_7 
REMARK    5  A    between atoms: C_7  and  C_8 
ROOT
ATOM      1  N   UNL d   1      24.644 -17.040  -0.243  0.00  0.00    -0.171 NA
ATOM      2  C   UNL d   1      23.848 -18.186  -0.078  0.00  0.00     0.219 C 
ATOM      3  O   UNL d   1      24.011 -19.258  -0.675  0.00  0.00    -0.278 OA
ATOM      4  H   UNL d   1      24.097 -16.180  -0.317  0.00  0.00     0.156 HD
ENDROOT
BRANCH   2   5
ATOM      5  C   UNL d   1      22.637 -18.198   0.844  0.00  0.00     0.139 C 
BRANCH   5   6
ATOM      6  C   UNL d   1      21.431 -18.816   0.094  0.00  0.00    -0.022 A 
ATOM      7  C   UNL d   1      21.273 -18.930  -1.279  0.00  0.00     0.096 A 
ATOM      8  N   UNL d   1      20.147 -19.676  -1.540  0.00  0.00    -0.365 N 
ATOM      9  C   UNL d   1      19.537 -20.063  -0.369  0.00  0.00     0.042 A 
ATOM     10  H   UNL d   1      19.819 -19.930  -2.463  0.00  0.00     0.165 HD
ATOM     11  C   UNL d   1      18.373 -20.825  -0.147  0.00  0.00     0.030 A 
ATOM     12  C   UNL d   1      20.317 -19.553   0.671  0.00  0.00    -0.001 A 
ATOM     13  C   UNL d   1      18.005 -21.099   1.176  0.00  0.00     0.002 A 
ATOM     14  C   UNL d   1      18.790 -20.659   2.234  0.00  0.00     0.001 A 
ATOM     15  C   UNL d   1      19.929 -19.883   1.989  0.00  0.00     0.014 A 
ENDBRANCH   5   6
ENDBRANCH   2   5
BRANCH   1  16
ATOM     16  N   UNL d   1      25.743 -17.017  -1.253  0.00  0.00    -0.306 N 
BRANCH  16  17
ATOM     17  C   UNL d   1      27.134 -17.529  -0.999  0.00  0.00     0.139 C 
ATOM     18  C   UNL d   1      27.403 -18.137   0.341  0.00  0.00     0.028 C 
ENDBRANCH  16  17
BRANCH  16  19
ATOM     19  C   UNL d   1      25.759 -15.930  -2.197  0.00  0.00     0.046 A 
ATOM     20  C   UNL d   1      24.579 -15.177  -2.388  0.00  0.00     0.031 A 
ATOM     21  C   UNL d   1      24.499 -14.093  -3.272  0.00  0.00     0.009 A 
ATOM     22  C   UNL d   1      25.609 -13.713  -4.021  0.00  0.00    -0.062 A 
ATOM     23  C   UNL d   1      25.527 -12.550  -4.969  0.00  0.00     0.048 C 
ATOM     24  C   UNL d   1      26.791 -14.451  -3.866  0.00  0.00     0.009 A 
ATOM     25  C   UNL d   1      26.867 -15.543  -2.966  0.00  0.00     0.031 A 
ENDBRANCH  16  19
ENDBRANCH   1  16
TORSDOF 5
ENDMDL
MODEL 2
REMARK VINA RESULT:    -7.621      2.096      3.089
REMARK INTER + INTRA:          -9.807
REMARK INTER:                  -9.113
REMARK INTRA:                  -0.695
REMARK CONF_INDEPENDENT:        1.492
REMARK UNBOUND:                -0.695
REMARK  5 active torsions:
REMARK  status: ('A' for Active; 'I' for Inactive)
REMARK    1  A    between atoms: C_2  and  N_3 
REMARK    2  A    between atoms: N_3  and  N_4 
REMARK    3  A    between atoms: N_3  and  C_17 
REMARK       I    between atoms: N_4  and  C_5 
REMARK    4  A    between atoms: C_5  and  C_7 
REMARK    5  A    between atoms: C_7  and  C_8 
ROOT
ATOM      1  N   UNL d   1      24.769 -16.980  -0.562  0.00  0.00    -0.171 NA
ATOM      2  C   UNL d   1      23.415 -17.253  -0.305  0.00  0.00     0.219 C 
ATOM      3  O   UNL d   1      22.476 -16.481  -0.536  0.00  0.00    -0.278 OA
ATOM      4  H   UNL d   1      25.385 -17.252   0.206  0.00  0.00     0.156 HD
ENDROOT
BRANCH   2   5
ATOM      5  C   UNL d   1      22.969 -18.551   0.355  0.00  0.00     0.139 C 
BRANCH   5   6
ATOM      6  C   UNL d   1      21.577 -18.951  -0.196  0.00  0.00    -0.022 A 
ATOM      7  C   UNL d   1      21.176 -18.949  -1.524  0.00  0.00     0.096 A 
ATOM      8  N   UNL d   1      19.927 -19.520  -1.614  0.00  0.00    -0.365 N 
ATOM      9  C   UNL d   1      19.474 -19.899  -0.372  0.00  0.00     0.042 A 
ATOM     10  H   UNL d   1      19.415 -19.665  -2.475  0.00  0.00     0.165 HD
ATOM     11  C   UNL d   1      18.268 -20.513   0.019  0.00  0.00     0.030 A 
ATOM     12  C   UNL d   1      20.483 -19.570   0.535  0.00  0.00    -0.001 A 
ATOM     13  C   UNL d   1      18.093 -20.824   1.373  0.00  0.00     0.002 A 
ATOM     14  C   UNL d   1      19.099 -20.565   2.294  0.00  0.00     0.001 A 
ATOM     15  C   UNL d   1      20.280 -19.933   1.886  0.00  0.00     0.014 A 
ENDBRANCH   5   6
ENDBRANCH   2   5
BRANCH   1  16
ATOM     16  N   UNL d   1      25.188 -15.646  -1.086  0.00  0.00    -0.306 N 
BRANCH  16  17
ATOM     17  C   UNL d   1      24.932 -15.171  -2.490  0.00  0.00     0.139 C 
ATOM     18  C   UNL d   1      25.923 -15.572  -3.536  0.00  0.00     0.028 C 
ENDBRANCH  16  17
BRANCH  16  19
ATOM     19  C   UNL d   1      26.403 -15.076  -0.564  0.00  0.00     0.046 A 
ATOM     20  C   UNL d   1      27.335 -15.925   0.073  0.00  0.00     0.031 A 
ATOM     21  C   UNL d   1      28.551 -15.468   0.598  0.00  0.00     0.009 A 
ATOM     22  C   UNL d   1      28.889 -14.121   0.517  0.00  0.00    -0.062 A 
ATOM     23  C   UNL d   1      30.193 -13.628   1.079  0.00  0.00     0.048 C 
ATOM     24  C   UNL d   1      27.978 -13.249  -0.094  0.00  0.00     0.009 A 
ATOM     25  C   UNL d   1      26.753 -13.719  -0.629  0.00  0.00     0.031 A 
ENDBRANCH  16  19
ENDBRANCH   1  16
TORSDOF 5
ENDMDL
MODEL 3
REMARK VINA RESULT:    -7.319      2.635      8.253
REMARK INTER + INTRA:          -9.958
REMARK INTER:                  -8.811
REMARK INTRA:                  -1.148
REMARK CONF_INDEPENDENT:        1.492
REMARK UNBOUND:                -1.148
REMARK  5 active torsions:
REMARK  status: ('A' for Active; 'I' for Inactive)
REMARK    1  A    between atoms: C_2  and  N_3 
REMARK    2  A    between atoms: N_3  and  N_4 
REMARK    3  A    between atoms: N_3  and  C_17 
REMARK       I    between atoms: N_4  and  C_5 
REMARK    4  A    between atoms: C_5  and  C_7 
REMARK    5  A    between atoms: C_7  and  C_8 
ROOT
ATOM      1  N   UNL d   1      26.075 -15.235  -1.277  0.00  0.00    -0.171 NA
ATOM      2  C   UNL d   1      25.922 -15.277  -2.674  0.00  0.00     0.219 C 
ATOM      3  O   UNL d   1      25.506 -16.250  -3.316  0.00  0.00    -0.278 OA
ATOM      4  H   UNL d   1      26.958 -14.813  -0.984  0.00  0.00     0.156 HD
ENDROOT
BRANCH   2   5
ATOM      5  C   UNL d   1      26.317 -14.104  -3.559  0.00  0.00     0.139 C 
BRANCH   5   6
ATOM      6  C   UNL d   1      27.298 -14.598  -4.653  0.00  0.00    -0.022 A 
ATOM      7  C   UNL d   1      27.406 -14.122  -5.951  0.00  0.00     0.096 A 
ATOM      8  N   UNL d   1      28.496 -14.707  -6.553  0.00  0.00    -0.365 N 
ATOM      9  C   UNL d   1      29.121 -15.576  -5.689  0.00  0.00     0.042 A 
ATOM     10  H   UNL d   1      28.814 -14.514  -7.493  0.00  0.00     0.165 HD
ATOM     11  C   UNL d   1      30.258 -16.389  -5.865  0.00  0.00     0.030 A 
ATOM     12  C   UNL d   1      28.407 -15.525  -4.490  0.00  0.00    -0.001 A 
ATOM     13  C   UNL d   1      30.698 -17.156  -4.778  0.00  0.00     0.002 A 
ATOM     14  C   UNL d   1      30.047 -17.084  -3.554  0.00  0.00     0.001 A 
ATOM     15  C   UNL d   1      28.905 -16.287  -3.409  0.00  0.00     0.014 A 
ENDBRANCH   5   6
ENDBRANCH   2   5
BRANCH   1  16
ATOM     16  N   UNL d   1      25.805 -16.447  -0.448  0.00  0.00    -0.306 N 
BRANCH  16  17
ATOM     17  C   UNL d   1      26.846 -17.465  -0.074  0.00  0.00     0.139 C 
ATOM     18  C   UNL d   1      28.279 -17.070  -0.250  0.00  0.00     0.028 C 
ENDBRANCH  16  17
BRANCH  16  19
ATOM     19  C   UNL d   1      24.507 -17.059  -0.565  0.00  0.00     0.046 A 
ATOM     20  C   UNL d   1      24.402 -18.462  -0.438  0.00  0.00     0.031 A 
ATOM     21  C   UNL d   1      23.183 -19.148  -0.521  0.00  0.00     0.009 A 
ATOM     22  C   UNL d   1      21.999 -18.452  -0.747  0.00  0.00    -0.062 A 
ATOM     23  C   UNL d   1      20.690 -19.185  -0.836  0.00  0.00     0.048 C 
ATOM     24  C   UNL d   1      22.071 -17.060  -0.894  0.00  0.00     0.009 A 
ATOM     25  C   UNL d   1      23.306 -16.372  -0.802  0.00  0.00     0.031 A 
ENDBRANCH  16  19
ENDBRANCH   1  16
TORSDOF 5
ENDMDL
MODEL 4
REMARK VINA RESULT:    -7.315      4.955      8.637
REMARK INTER + INTRA:          -9.695
REMARK INTER:                  -8.807
REMARK INTRA:                  -0.888
REMARK CONF_INDEPENDENT:        1.492
REMARK UNBOUND:                -0.888
REMARK  5 active torsions:
REMARK  status: ('A' for Active; 'I' for Inactive)
REMARK    1  A    between atoms: C_2  and  N_3 
REMARK    2  A    between atoms: N_3  and  N_4 
REMARK    3  A    between atoms: N_3  and  C_17 
REMARK       I    between atoms: N_4  and  C_5 
REMARK    4  A    between atoms: C_5  and  C_7 
REMARK    5  A    between atoms: C_7  and  C_8 
ROOT
ATOM      1  N   UNL d   1      27.783 -15.691   1.302  0.00  0.00    -0.171 NA
ATOM      2  C   UNL d   1      27.614 -14.351   0.914  0.00  0.00     0.219 C 
ATOM      3  O   UNL d   1      27.183 -13.977  -0.184  0.00  0.00    -0.278 OA
ATOM      4  H   UNL d   1      28.672 -15.862   1.775  0.00  0.00     0.156 HD
ENDROOT
BRANCH   2   5
ATOM      5  C   UNL d   1      28.008 -13.197   1.824  0.00  0.00     0.139 C 
BRANCH   5   6
ATOM      6  C   UNL d   1      28.918 -13.729   2.959  0.00  0.00    -0.022 A 
ATOM      7  C   UNL d   1      30.168 -14.315   2.818  0.00  0.00     0.096 A 
ATOM      8  N   UNL d   1      30.716 -14.504   4.066  0.00  0.00    -0.365 N 
ATOM      9  C   UNL d   1      29.857 -14.066   5.047  0.00  0.00     0.042 A 
ATOM     10  H   UNL d   1      31.633 -14.892   4.245  0.00  0.00     0.165 HD
ATOM     11  C   UNL d   1      29.988 -14.060   6.450  0.00  0.00     0.030 A 
ATOM     12  C   UNL d   1      28.730 -13.566   4.392  0.00  0.00    -0.001 A 
ATOM     13  C   UNL d   1      28.951 -13.505   7.209  0.00  0.00     0.002 A 
ATOM     14  C   UNL d   1      27.843 -12.945   6.588  0.00  0.00     0.001 A 
ATOM     15  C   UNL d   1      27.723 -12.983   5.194  0.00  0.00     0.014 A 
ENDBRANCH   5   6
ENDBRANCH   2   5
BRANCH   1  16
ATOM     16  N   UNL d   1      27.512 -16.800   0.339  0.00  0.00    -0.306 N 
BRANCH  16  17
ATOM     17  C   UNL d   1      28.440 -17.196  -0.776  0.00  0.00     0.139 C 
ATOM     18  C   UNL d   1      28.395 -16.373  -2.024  0.00  0.00     0.028 C 
ENDBRANCH  16  17
BRANCH  16  19
ATOM     19  C   UNL d   1      26.140 -17.052  -0.019  0.00  0.00     0.046 A 
ATOM     20  C   UNL d   1      25.502 -18.201   0.499  0.00  0.00     0.031 A 
ATOM     21  C   UNL d   1      24.166 -18.523   0.222  0.00  0.00     0.009 A 
ATOM     22  C   UNL d   1      23.403 -17.705  -0.606  0.00  0.00    -0.062 A 
ATOM     23  C   UNL d   1      21.971 -18.048  -0.905  0.00  0.00     0.048 C 
ATOM     24  C   UNL d   1      24.013 -16.566  -1.149  0.00  0.00     0.009 A 
ATOM     25  C   UNL d   1      25.361 -16.242  -0.859  0.00  0.00     0.031 A 
ENDBRANCH  16  19
ENDBRANCH   1  16
TORSDOF 5
ENDMDL
MODEL 5
REMARK VINA RESULT:    -7.254      2.497      8.338
REMARK INTER + INTRA:          -9.800
REMARK INTER:                  -8.746
REMARK INTRA:                  -1.055
REMARK CONF_INDEPENDENT:        1.492
REMARK UNBOUND:                -1.055
REMARK  5 active torsions:
REMARK  status: ('A' for Active; 'I' for Inactive)
REMARK    1  A    between atoms: C_2  and  N_3 
REMARK    2  A    between atoms: N_3  and  N_4 
REMARK    3  A    between atoms: N_3  and  C_17 
REMARK       I    between atoms: N_4  and  C_5 
REMARK    4  A    between atoms: C_5  and  C_7 
REMARK    5  A    between atoms: C_7  and  C_8 
ROOT
ATOM      1  N   UNL d   1      25.903 -14.888  -1.093  0.00  0.00    -0.171 NA
ATOM      2  C   UNL d   1      25.553 -14.524  -2.405  0.00  0.00     0.219 C 
ATOM      3  O   UNL d   1      25.120 -15.298  -3.267  0.00  0.00    -0.278 OA
ATOM      4  H   UNL d   1      26.786 -14.476  -0.786  0.00  0.00     0.156 HD
ENDROOT
BRANCH   2   5
ATOM      5  C   UNL d   1      25.731 -13.102  -2.917  0.00  0.00     0.139 C 
BRANCH   5   6
ATOM      6  C   UNL d   1      26.433 -13.141  -4.298  0.00  0.00    -0.022 A 
ATOM      7  C   UNL d   1      26.359 -12.182  -5.297  0.00  0.00     0.096 A 
ATOM      8  N   UNL d   1      27.246 -12.508  -6.297  0.00  0.00    -0.365 N 
ATOM      9  C   UNL d   1      27.912 -13.673  -5.996  0.00  0.00     0.042 A 
ATOM     10  H   UNL d   1      27.409 -11.959  -7.131  0.00  0.00     0.165 HD
ATOM     11  C   UNL d   1      28.897 -14.382  -6.713  0.00  0.00     0.030 A 
ATOM     12  C   UNL d   1      27.438 -14.090  -4.750  0.00  0.00    -0.001 A 
ATOM     13  C   UNL d   1      29.434 -15.537  -6.133  0.00  0.00     0.002 A 
ATOM     14  C   UNL d   1      29.029 -15.948  -4.871  0.00  0.00     0.001 A 
ATOM     15  C   UNL d   1      28.032 -15.242  -4.186  0.00  0.00     0.014 A 
ENDBRANCH   5   6
ENDBRANCH   2   5
BRANCH   1  16
ATOM     16  N   UNL d   1      25.843 -16.315  -0.660  0.00  0.00    -0.306 N 
BRANCH  16  17
ATOM     17  C   UNL d   1      26.955 -17.307  -0.862  0.00  0.00     0.139 C 
ATOM     18  C   UNL d   1      28.355 -16.802  -0.703  0.00  0.00     0.028 C 
ENDBRANCH  16  17
BRANCH  16  19
ATOM     19  C   UNL d   1      24.560 -16.968  -0.692  0.00  0.00     0.046 A 
ATOM     20  C   UNL d   1      24.505 -18.370  -0.518  0.00  0.00     0.031 A 
ATOM     21  C   UNL d   1      23.305 -19.093  -0.518  0.00  0.00     0.009 A 
ATOM     22  C   UNL d   1      22.091 -18.440  -0.703  0.00  0.00    -0.062 A 
ATOM     23  C   UNL d   1      20.802 -19.213  -0.702  0.00  0.00     0.048 C 
ATOM     24  C   UNL d   1      22.113 -17.052  -0.895  0.00  0.00     0.009 A 
ATOM     25  C   UNL d   1      23.329 -16.325  -0.888  0.00  0.00     0.031 A 
ENDBRANCH  16  19
ENDBRANCH   1  16
TORSDOF 5
ENDMDL
MODEL 6
REMARK VINA RESULT:    -7.221      2.494      8.883
REMARK INTER + INTRA:          -9.571
REMARK INTER:                  -8.712
REMARK INTRA:                  -0.858
REMARK CONF_INDEPENDENT:        1.492
REMARK UNBOUND:                -0.858
REMARK  5 active torsions:
REMARK  status: ('A' for Active; 'I' for Inactive)
REMARK    1  A    between atoms: C_2  and  N_3 
REMARK    2  A    between atoms: N_3  and  N_4 
REMARK    3  A    between atoms: N_3  and  C_17 
REMARK       I    between atoms: N_4  and  C_5 
REMARK    4  A    between atoms: C_5  and  C_7 
REMARK    5  A    between atoms: C_7  and  C_8 
ROOT
ATOM      1  N   UNL d   1      25.823 -15.068  -1.371  0.00  0.00    -0.171 NA
ATOM      2  C   UNL d   1      25.563 -15.009  -2.751  0.00  0.00     0.219 C 
ATOM      3  O   UNL d   1      25.159 -15.954  -3.441  0.00  0.00    -0.278 OA
ATOM      4  H   UNL d   1      26.698 -14.612  -1.109  0.00  0.00     0.156 HD
ENDROOT
BRANCH   2   5
ATOM      5  C   UNL d   1      25.813 -13.746  -3.561  0.00  0.00     0.139 C 
BRANCH   5   6
ATOM      6  C   UNL d   1      26.929 -14.019  -4.602  0.00  0.00    -0.022 A 
ATOM      7  C   UNL d   1      27.626 -15.205  -4.782  0.00  0.00     0.096 A 
ATOM      8  N   UNL d   1      28.414 -15.093  -5.904  0.00  0.00    -0.365 N 
ATOM      9  C   UNL d   1      28.269 -13.853  -6.480  0.00  0.00     0.042 A 
ATOM     10  H   UNL d   1      29.005 -15.827  -6.275  0.00  0.00     0.165 HD
ATOM     11  C   UNL d   1      28.870 -13.295  -7.626  0.00  0.00     0.030 A 
ATOM     12  C   UNL d   1      27.341 -13.160  -5.700  0.00  0.00    -0.001 A 
ATOM     13  C   UNL d   1      28.496 -11.999  -8.004  0.00  0.00     0.002 A 
ATOM     14  C   UNL d   1      27.532 -11.304  -7.286  0.00  0.00     0.001 A 
ATOM     15  C   UNL d   1      26.966 -11.870  -6.138  0.00  0.00     0.014 A 
ENDBRANCH   5   6
ENDBRANCH   2   5
BRANCH   1  16
ATOM     16  N   UNL d   1      25.695 -16.358  -0.629  0.00  0.00    -0.306 N 
BRANCH  16  17
ATOM     17  C   UNL d   1      26.815 -17.344  -0.449  0.00  0.00     0.139 C 
ATOM     18  C   UNL d   1      28.211 -16.821  -0.580  0.00  0.00     0.028 C 
ENDBRANCH  16  17
BRANCH  16  19
ATOM     19  C   UNL d   1      24.422 -17.029  -0.674  0.00  0.00     0.046 A 
ATOM     20  C   UNL d   1      24.385 -18.431  -0.508  0.00  0.00     0.031 A 
ATOM     21  C   UNL d   1      23.196 -19.172  -0.520  0.00  0.00     0.009 A 
ATOM     22  C   UNL d   1      21.973 -18.534  -0.711  0.00  0.00    -0.062 A 
ATOM     23  C   UNL d   1      20.695 -19.326  -0.724  0.00  0.00     0.048 C 
ATOM     24  C   UNL d   1      21.977 -17.145  -0.895  0.00  0.00     0.009 A 
ATOM     25  C   UNL d   1      23.183 -16.401  -0.875  0.00  0.00     0.031 A 
ENDBRANCH  16  19
ENDBRANCH   1  16
TORSDOF 5
ENDMDL
MODEL 7
REMARK VINA RESULT:    -7.176      4.176      7.060
REMARK INTER + INTRA:          -9.570
REMARK INTER:                  -8.667
REMARK INTRA:                  -0.902
REMARK CONF_INDEPENDENT:        1.492
REMARK UNBOUND:                -0.902
REMARK  5 active torsions:
REMARK  status: ('A' for Active; 'I' for Inactive)
REMARK    1  A    between atoms: C_2  and  N_3 
REMARK    2  A    between atoms: N_3  and  N_4 
REMARK    3  A    between atoms: N_3  and  C_17 
REMARK       I    between atoms: N_4  and  C_5 
REMARK    4  A    between atoms: C_5  and  C_7 
REMARK    5  A    between atoms: C_7  and  C_8 
ROOT
ATOM      1  N   UNL d   1      28.739 -15.156  -4.442  0.00  0.00    -0.171 NA
ATOM      2  C   UNL d   1      27.347 -15.256  -4.609  0.00  0.00     0.219 C 
ATOM      3  O   UNL d   1      26.776 -15.548  -5.667  0.00  0.00    -0.278 OA
ATOM      4  H   UNL d   1      29.021 -14.332  -3.910  0.00  0.00     0.156 HD
ENDROOT
BRANCH   2   5
ATOM      5  C   UNL d   1      26.380 -14.950  -3.475  0.00  0.00     0.139 C 
BRANCH   5   6
ATOM      6  C   UNL d   1      26.573 -15.992  -2.344  0.00  0.00    -0.022 A 
ATOM      7  C   UNL d   1      27.766 -16.339  -1.727  0.00  0.00     0.096 A 
ATOM      8  N   UNL d   1      27.495 -17.178  -0.671  0.00  0.00    -0.365 N 
ATOM      9  C   UNL d   1      26.144 -17.410  -0.568  0.00  0.00     0.042 A 
ATOM     10  H   UNL d   1      28.188 -17.558  -0.039  0.00  0.00     0.165 HD
ATOM     11  C   UNL d   1      25.412 -18.195   0.346  0.00  0.00     0.030 A 
ATOM     12  C   UNL d   1      25.536 -16.677  -1.589  0.00  0.00    -0.001 A 
ATOM     13  C   UNL d   1      24.017 -18.215   0.232  0.00  0.00     0.002 A 
ATOM     14  C   UNL d   1      23.376 -17.451  -0.734  0.00  0.00     0.001 A 
ATOM     15  C   UNL d   1      24.124 -16.697  -1.646  0.00  0.00     0.014 A 
ENDBRANCH   5   6
ENDBRANCH   2   5
BRANCH   1  16
ATOM     16  N   UNL d   1      29.657 -15.332  -5.607  0.00  0.00    -0.306 N 
BRANCH  16  17
ATOM     17  C   UNL d   1      29.596 -14.508  -6.863  0.00  0.00     0.139 C 
ATOM     18  C   UNL d   1      28.580 -13.410  -6.909  0.00  0.00     0.028 C 
ENDBRANCH  16  17
BRANCH  16  19
ATOM     19  C   UNL d   1      30.131 -16.663  -5.888  0.00  0.00     0.046 A 
ATOM     20  C   UNL d   1      30.030 -17.648  -4.880  0.00  0.00     0.031 A 
ATOM     21  C   UNL d   1      30.448 -18.973  -5.062  0.00  0.00     0.009 A 
ATOM     22  C   UNL d   1      31.002 -19.375  -6.274  0.00  0.00    -0.062 A 
ATOM     23  C   UNL d   1      31.451 -20.795  -6.473  0.00  0.00     0.048 C 
ATOM     24  C   UNL d   1      31.132 -18.416  -7.288  0.00  0.00     0.009 A 
ATOM     25  C   UNL d   1      30.701 -17.080  -7.100  0.00  0.00     0.031 A 
ENDBRANCH  16  19
ENDBRANCH   1  16
TORSDOF 5
ENDMDL
MODEL 8
REMARK VINA RESULT:    -7.161      2.542      8.678
REMARK INTER + INTRA:          -9.528
REMARK INTER:                  -8.653
REMARK INTRA:                  -0.875
REMARK CONF_INDEPENDENT:        1.492
REMARK UNBOUND:                -0.875
REMARK  5 active torsions:
REMARK  status: ('A' for Active; 'I' for Inactive)
REMARK    1  A    between atoms: C_2  and  N_3 
REMARK    2  A    between atoms: N_3  and  N_4 
REMARK    3  A    between atoms: N_3  and  C_17 
REMARK       I    between atoms: N_4  and  C_5 
REMARK    4  A    between atoms: C_5  and  C_7 
REMARK    5  A    between atoms: C_7  and  C_8 
ROOT
ATOM      1  N   UNL d   1      26.243 -15.965  -2.538  0.00  0.00    -0.171 NA
ATOM      2  C   UNL d   1      25.551 -15.338  -3.588  0.00  0.00     0.219 C 
ATOM      3  O   UNL d   1      24.507 -14.685  -3.463  0.00  0.00    -0.278 OA
ATOM      4  H   UNL d   1      26.549 -16.911  -2.769  0.00  0.00     0.156 HD
ENDROOT
BRANCH   2   5
ATOM      5  C   UNL d   1      26.012 -15.453  -5.034  0.00  0.00     0.139 C 
BRANCH   5   6
ATOM      6  C   UNL d   1      26.996 -14.298  -5.349  0.00  0.00    -0.022 A 
ATOM      7  C   UNL d   1      28.156 -14.377  -6.107  0.00  0.00     0.096 A 
ATOM      8  N   UNL d   1      28.661 -13.109  -6.283  0.00  0.00    -0.365 N 
ATOM      9  C   UNL d   1      27.869 -12.178  -5.652  0.00  0.00     0.042 A 
ATOM     10  H   UNL d   1      29.487 -12.882  -6.820  0.00  0.00     0.165 HD
ATOM     11  C   UNL d   1      27.993 -10.777  -5.560  0.00  0.00     0.030 A 
ATOM     12  C   UNL d   1      26.815 -12.883  -5.068  0.00  0.00    -0.001 A 
ATOM     13  C   UNL d   1      26.998 -10.069  -4.874  0.00  0.00     0.002 A 
ATOM     14  C   UNL d   1      25.906 -10.731  -4.332  0.00  0.00     0.001 A 
ATOM     15  C   UNL d   1      25.816 -12.126  -4.416  0.00  0.00     0.014 A 
ENDBRANCH   5   6
ENDBRANCH   2   5
BRANCH   1  16
ATOM     16  N   UNL d   1      25.694 -15.946  -1.149  0.00  0.00    -0.306 N 
BRANCH  16  17
ATOM     17  C   UNL d   1      26.516 -15.674   0.081  0.00  0.00     0.139 C 
ATOM     18  C   UNL d   1      27.440 -16.759   0.537  0.00  0.00     0.028 C 
ENDBRANCH  16  17
BRANCH  16  19
ATOM     19  C   UNL d   1      24.602 -16.836  -0.852  0.00  0.00     0.046 A 
ATOM     20  C   UNL d   1      23.283 -16.333  -0.895  0.00  0.00     0.031 A 
ATOM     21  C   UNL d   1      22.155 -17.123  -0.637  0.00  0.00     0.009 A 
ATOM     22  C   UNL d   1      22.299 -18.468  -0.309  0.00  0.00    -0.062 A 
ATOM     23  C   UNL d   1      21.091 -19.319  -0.032  0.00  0.00     0.048 C 
ATOM     24  C   UNL d   1      23.597 -18.994  -0.241  0.00  0.00     0.009 A 
ATOM     25  C   UNL d   1      24.733 -18.191  -0.511  0.00  0.00     0.031 A 
ENDBRANCH  16  19
ENDBRANCH   1  16
TORSDOF 5
ENDMDL
MODEL 9
REMARK VINA RESULT:    -6.850      2.524      8.167
REMARK INTER + INTRA:          -9.241
REMARK INTER:                  -8.342
REMARK INTRA:                  -0.899
REMARK CONF_INDEPENDENT:        1.492
REMARK UNBOUND:                -0.899
REMARK  5 active torsions:
REMARK  status: ('A' for Active; 'I' for Inactive)
REMARK    1  A    between atoms: C_2  and  N_3 
REMARK    2  A    between atoms: N_3  and  N_4 
REMARK    3  A    between atoms: N_3  and  C_17 
REMARK       I    between atoms: N_4  and  C_5 
REMARK    4  A    between atoms: C_5  and  C_7 
REMARK    5  A    between atoms: C_7  and  C_8 
ROOT
ATOM      1  N   UNL d   1      26.218 -15.805  -2.012  0.00  0.00    -0.171 NA
ATOM      2  C   UNL d   1      27.510 -15.953  -2.544  0.00  0.00     0.219 C 
ATOM      3  O   UNL d   1      28.408 -16.647  -2.050  0.00  0.00    -0.278 OA
ATOM      4  H   UNL d   1      25.892 -14.837  -2.016  0.00  0.00     0.156 HD
ENDROOT
BRANCH   2   5
ATOM      5  C   UNL d   1      27.954 -15.206  -3.793  0.00  0.00     0.139 C 
BRANCH   5   6
ATOM      6  C   UNL d   1      26.921 -14.098  -4.119  0.00  0.00    -0.022 A 
ATOM      7  C   UNL d   1      25.661 -14.271  -4.672  0.00  0.00     0.096 A 
ATOM      8  N   UNL d   1      24.996 -13.067  -4.655  0.00  0.00    -0.365 N 
ATOM      9  C   UNL d   1      25.785 -12.082  -4.109  0.00  0.00     0.042 A 
ATOM     10  H   UNL d   1      24.048 -12.922  -4.978  0.00  0.00     0.165 HD
ATOM     11  C   UNL d   1      25.531 -10.713  -3.892  0.00  0.00     0.030 A 
ATOM     12  C   UNL d   1      26.990 -12.692  -3.753  0.00  0.00    -0.001 A 
ATOM     13  C   UNL d   1      26.523  -9.946  -3.270  0.00  0.00     0.002 A 
ATOM     14  C   UNL d   1      27.709 -10.532  -2.849  0.00  0.00     0.001 A 
ATOM     15  C   UNL d   1      27.950 -11.889  -3.096  0.00  0.00     0.014 A 
ENDBRANCH   5   6
ENDBRANCH   2   5
BRANCH   1  16
ATOM     16  N   UNL d   1      25.854 -16.445  -0.713  0.00  0.00    -0.306 N 
BRANCH  16  17
ATOM     17  C   UNL d   1      26.854 -16.968   0.281  0.00  0.00     0.139 C 
ATOM     18  C   UNL d   1      27.738 -15.963   0.951  0.00  0.00     0.028 C 
ENDBRANCH  16  17
BRANCH  16  19
ATOM     19  C   UNL d   1      24.634 -17.208  -0.664  0.00  0.00     0.046 A 
ATOM     20  C   UNL d   1      23.400 -16.526  -0.760  0.00  0.00     0.031 A 
ATOM     21  C   UNL d   1      22.161 -17.181  -0.739  0.00  0.00     0.009 A 
ATOM     22  C   UNL d   1      22.100 -18.565  -0.609  0.00  0.00    -0.062 A 
ATOM     23  C   UNL d   1      20.773 -19.270  -0.586  0.00  0.00     0.048 C 
ATOM     24  C   UNL d   1      23.306 -19.269  -0.494  0.00  0.00     0.009 A 
ATOM     25  C   UNL d   1      24.556 -18.602  -0.524  0.00  0.00     0.031 A 
ENDBRANCH  16  19
ENDBRANCH   1  16
TORSDOF 5
ENDMDL
