MODEL 1
REMARK VINA RESULT:   -11.335      0.000      0.000
REMARK INTER + INTRA:         -15.191
REMARK INTER:                 -13.124
REMARK INTRA:                  -2.067
REMARK CONF_INDEPENDENT:        1.790
REMARK UNBOUND:                -2.067
REMARK  6 active torsions:
REMARK  status: ('A' for Active; 'I' for Inactive)
REMARK    1  A    between atoms: C_2  and  C_3 
REMARK    2  A    between atoms: C_8  and  N_9 
REMARK       I    between atoms: N_9  and  C_10 
REMARK       I    between atoms: C_10  and  N_12 
REMARK    3  A    between atoms: N_12  and  C_13 
REMARK    4  A    between atoms: C_15  and  N_16 
REMARK       I    between atoms: N_16  and  C_17 
REMARK    5  A    between atoms: C_17  and  C_19 
REMARK    6  A    between atoms: C_28  and  N_29 
ROOT
ATOM      1  C   UNL d   1      24.671 -15.768  -1.635  0.00  0.00     0.045 C 
ATOM      2  C   UNL d   1      23.576 -16.659  -1.272  0.00  0.00     0.055 C 
ATOM      3  C   UNL d   1      23.794 -17.846  -0.520  0.00  0.00     0.036 C 
ATOM      4  C   UNL d   1      25.115 -18.208  -0.299  0.00  0.00     0.032 C 
ATOM      5  C   UNL d   1      26.182 -17.384  -0.663  0.00  0.00     0.033 C 
ATOM      6  C   UNL d   1      26.027 -16.139  -1.293  0.00  0.00     0.052 C 
ENDROOT
BRANCH   1   7
ATOM      7  N   UNL d   1      24.372 -14.529  -2.408  0.00  0.00    -0.208 NA
ATOM      8  C   UNL d   1      24.982 -14.450  -3.694  0.00  0.00     0.303 C 
ATOM      9  N   UNL d   1      25.020 -13.124  -4.286  0.00  0.00    -0.313 N 
ATOM     10  O   UNL d   1      25.475 -15.434  -4.158  0.00  0.00    -0.253 OA
ATOM     11  H   UNL d   1      24.429 -12.416  -3.874  0.00  0.00     0.170 HD
ATOM     12  H   UNL d   1      23.387 -14.302  -2.445  0.00  0.00     0.138 HD
BRANCH   9  13
ATOM     13  C   UNL d   1      26.113 -12.566  -5.222  0.00  0.00     0.042 A 
ATOM     14  C   UNL d   1      25.968 -11.286  -5.769  0.00  0.00     0.030 A 
ATOM     15  C   UNL d   1      27.035 -10.649  -6.477  0.00  0.00     0.002 A 
ATOM     16  C   UNL d   1      28.323 -11.179  -6.551  0.00  0.00     0.001 A 
ATOM     17  C   UNL d   1      28.540 -12.403  -5.988  0.00  0.00     0.009 A 
ATOM     18  C   UNL d   1      27.460 -13.088  -5.378  0.00  0.00    -0.032 A 
BRANCH  18  19
ATOM     19  C   UNL d   1      27.998 -14.103  -4.456  0.00  0.00     0.036 C 
ATOM     20  C   UNL d   1      28.247 -15.038  -5.549  0.00  0.00     0.010 C 
ENDBRANCH  18  19
ENDBRANCH   9  13
ENDBRANCH   1   7
BRANCH   6  21
ATOM     21  N   UNL d   1      27.209 -15.414  -1.453  0.00  0.00    -0.379 N 
ATOM     22  C   UNL d   1      28.502 -15.994  -1.825  0.00  0.00     0.123 C 
ATOM     23  C   UNL d   1      29.585 -15.156  -1.145  0.00  0.00     0.021 C 
ATOM     24  C   UNL d   1      28.888 -13.742  -0.945  0.00  0.00     0.021 C 
ATOM     25  C   UNL d   1      27.318 -13.972  -1.092  0.00  0.00     0.123 C 
ENDBRANCH   6  21
BRANCH   3  26
ATOM     26  N   UNL d   1      22.728 -18.628   0.061  0.00  0.00    -0.323 N 
ATOM     27  C   UNL d   1      21.391 -18.575  -0.374  0.00  0.00     0.256 C 
ATOM     28  O   UNL d   1      20.916 -17.822  -1.223  0.00  0.00    -0.267 OA
ATOM     29  H   UNL d   1      22.990 -19.383   0.683  0.00  0.00     0.169 HD
BRANCH  27  30
ATOM     30  C   UNL d   1      20.397 -19.514   0.202  0.00  0.00     0.032 A 
ATOM     31  C   UNL d   1      19.421 -20.064  -0.660  0.00  0.00     0.020 A 
ATOM     32  C   UNL d   1      18.329 -20.761  -0.143  0.00  0.00     0.043 A 
ATOM     33  C   UNL d   1      18.248 -20.961   1.228  0.00  0.00     0.116 A 
ATOM     34  F   UNL d   1      17.233 -21.676   1.731  0.00  0.00    -0.206 F 
ATOM     35  C   UNL d   1      19.207 -20.429   2.090  0.00  0.00     0.043 A 
ATOM     36  C   UNL d   1      20.282 -19.692   1.580  0.00  0.00     0.020 A 
ENDBRANCH  27  30
ENDBRANCH   3  26
TORSDOF 6
ENDMDL
MODEL 2
REMARK VINA RESULT:   -11.253      0.632      1.706
REMARK INTER + INTRA:         -15.108
REMARK INTER:                 -13.043
REMARK INTRA:                  -2.065
REMARK CONF_INDEPENDENT:        1.790
REMARK UNBOUND:                -2.065
REMARK  6 active torsions:
REMARK  status: ('A' for Active; 'I' for Inactive)
REMARK    1  A    between atoms: C_2  and  C_3 
REMARK    2  A    between atoms: C_8  and  N_9 
REMARK       I    between atoms: N_9  and  C_10 
REMARK       I    between atoms: C_10  and  N_12 
REMARK    3  A    between atoms: N_12  and  C_13 
REMARK    4  A    between atoms: C_15  and  N_16 
REMARK       I    between atoms: N_16  and  C_17 
REMARK    5  A    between atoms: C_17  and  C_19 
REMARK    6  A    between atoms: C_28  and  N_29 
ROOT
ATOM      1  C   UNL d   1      24.748 -15.934  -1.628  0.00  0.00     0.045 C 
ATOM      2  C   UNL d   1      23.646 -16.820  -1.277  0.00  0.00     0.055 C 
ATOM      3  C   UNL d   1      23.837 -17.964  -0.453  0.00  0.00     0.036 C 
ATOM      4  C   UNL d   1      25.149 -18.295  -0.145  0.00  0.00     0.032 C 
ATOM      5  C   UNL d   1      26.224 -17.476  -0.495  0.00  0.00     0.033 C 
ATOM      6  C   UNL d   1      26.088 -16.268  -1.197  0.00  0.00     0.052 C 
ENDROOT
BRANCH   1   7
ATOM      7  N   UNL d   1      24.476 -14.741  -2.479  0.00  0.00    -0.208 NA
ATOM      8  C   UNL d   1      25.278 -14.633  -3.653  0.00  0.00     0.303 C 
ATOM      9  N   UNL d   1      25.301 -13.321  -4.274  0.00  0.00    -0.313 N 
ATOM     10  O   UNL d   1      25.920 -15.579  -4.000  0.00  0.00    -0.253 OA
ATOM     11  H   UNL d   1      24.594 -12.659  -3.986  0.00  0.00     0.170 HD
ATOM     12  H   UNL d   1      23.495 -14.602  -2.681  0.00  0.00     0.138 HD
BRANCH   9  13
ATOM     13  C   UNL d   1      26.480 -12.687  -5.042  0.00  0.00     0.042 A 
ATOM     14  C   UNL d   1      27.352 -13.505  -5.770  0.00  0.00     0.030 A 
ATOM     15  C   UNL d   1      28.334 -12.954  -6.652  0.00  0.00     0.002 A 
ATOM     16  C   UNL d   1      28.403 -11.596  -6.963  0.00  0.00     0.001 A 
ATOM     17  C   UNL d   1      27.541 -10.753  -6.323  0.00  0.00     0.009 A 
ATOM     18  C   UNL d   1      26.636 -11.279  -5.368  0.00  0.00    -0.032 A 
BRANCH  18  19
ATOM     19  C   UNL d   1      25.531 -10.324  -5.180  0.00  0.00     0.036 C 
ATOM     20  C   UNL d   1      25.767 -10.254  -3.741  0.00  0.00     0.010 C 
ENDBRANCH  18  19
ENDBRANCH   9  13
ENDBRANCH   1   7
BRANCH   6  21
ATOM     21  N   UNL d   1      27.269 -15.535  -1.333  0.00  0.00    -0.379 N 
ATOM     22  C   UNL d   1      27.438 -14.138  -0.922  0.00  0.00     0.123 C 
ATOM     23  C   UNL d   1      28.441 -13.504  -1.886  0.00  0.00     0.021 C 
ATOM     24  C   UNL d   1      29.293 -14.742  -2.402  0.00  0.00     0.021 C 
ATOM     25  C   UNL d   1      28.452 -16.055  -2.074  0.00  0.00     0.123 C 
ENDBRANCH   6  21
BRANCH   3  26
ATOM     26  N   UNL d   1      22.751 -18.730   0.112  0.00  0.00    -0.323 N 
ATOM     27  C   UNL d   1      21.407 -18.594  -0.285  0.00  0.00     0.256 C 
ATOM     28  O   UNL d   1      20.947 -17.775  -1.079  0.00  0.00    -0.267 OA
ATOM     29  H   UNL d   1      22.993 -19.529   0.685  0.00  0.00     0.169 HD
BRANCH  27  30
ATOM     30  C   UNL d   1      20.386 -19.519   0.264  0.00  0.00     0.032 A 
ATOM     31  C   UNL d   1      19.397 -20.018  -0.614  0.00  0.00     0.020 A 
ATOM     32  C   UNL d   1      18.284 -20.697  -0.117  0.00  0.00     0.043 A 
ATOM     33  C   UNL d   1      18.194 -20.930   1.248  0.00  0.00     0.116 A 
ATOM     34  F   UNL d   1      17.158 -21.630   1.730  0.00  0.00    -0.206 F 
ATOM     35  C   UNL d   1      19.166 -20.450   2.126  0.00  0.00     0.043 A 
ATOM     36  C   UNL d   1      20.262 -19.730   1.637  0.00  0.00     0.020 A 
ENDBRANCH  27  30
ENDBRANCH   3  26
TORSDOF 6
ENDMDL
MODEL 3
REMARK VINA RESULT:   -10.298      2.144      4.702
REMARK INTER + INTRA:         -13.688
REMARK INTER:                 -12.088
REMARK INTRA:                  -1.600
REMARK CONF_INDEPENDENT:        1.790
REMARK UNBOUND:                -1.600
REMARK  6 active torsions:
REMARK  status: ('A' for Active; 'I' for Inactive)
REMARK    1  A    between atoms: C_2  and  C_3 
REMARK    2  A    between atoms: C_8  and  N_9 
REMARK       I    between atoms: N_9  and  C_10 
REMARK       I    between atoms: C_10  and  N_12 
REMARK    3  A    between atoms: N_12  and  C_13 
REMARK    4  A    between atoms: C_15  and  N_16 
REMARK       I    between atoms: N_16  and  C_17 
REMARK    5  A    between atoms: C_17  and  C_19 
REMARK    6  A    between atoms: C_28  and  N_29 
ROOT
ATOM      1  C   UNL d   1      26.328 -17.475  -0.627  0.00  0.00     0.045 C 
ATOM      2  C   UNL d   1      25.238 -18.108   0.104  0.00  0.00     0.055 C 
ATOM      3  C   UNL d   1      23.877 -17.901  -0.253  0.00  0.00     0.036 C 
ATOM      4  C   UNL d   1      23.628 -16.932  -1.215  0.00  0.00     0.032 C 
ATOM      5  C   UNL d   1      24.657 -16.292  -1.909  0.00  0.00     0.033 C 
ATOM      6  C   UNL d   1      26.020 -16.547  -1.692  0.00  0.00     0.052 C 
ENDROOT
BRANCH   1   7
ATOM      7  N   UNL d   1      27.734 -17.750  -0.213  0.00  0.00    -0.208 NA
ATOM      8  C   UNL d   1      28.484 -16.608   0.195  0.00  0.00     0.303 C 
ATOM      9  N   UNL d   1      29.925 -16.788   0.229  0.00  0.00    -0.313 N 
ATOM     10  O   UNL d   1      27.906 -15.585   0.406  0.00  0.00    -0.253 OA
ATOM     11  H   UNL d   1      30.275 -17.735   0.192  0.00  0.00     0.170 HD
ATOM     12  H   UNL d   1      27.821 -18.511   0.446  0.00  0.00     0.138 HD
BRANCH   9  13
ATOM     13  C   UNL d   1      30.993 -15.711  -0.054  0.00  0.00     0.042 A 
ATOM     14  C   UNL d   1      30.862 -14.883  -1.175  0.00  0.00     0.030 A 
ATOM     15  C   UNL d   1      31.711 -13.749  -1.372  0.00  0.00     0.002 A 
ATOM     16  C   UNL d   1      32.620 -13.303  -0.412  0.00  0.00     0.001 A 
ATOM     17  C   UNL d   1      32.755 -14.040   0.728  0.00  0.00     0.009 A 
ATOM     18  C   UNL d   1      31.993 -15.225   0.882  0.00  0.00    -0.032 A 
BRANCH  18  19
ATOM     19  C   UNL d   1      31.933 -15.571   2.313  0.00  0.00     0.036 C 
ATOM     20  C   UNL d   1      32.707 -16.791   2.104  0.00  0.00     0.010 C 
ENDBRANCH  18  19
ENDBRANCH   9  13
ENDBRANCH   1   7
BRANCH   6  21
ATOM     21  N   UNL d   1      26.883 -15.900  -2.579  0.00  0.00    -0.379 N 
ATOM     22  C   UNL d   1      26.477 -14.869  -3.539  0.00  0.00     0.123 C 
ATOM     23  C   UNL d   1      27.388 -15.006  -4.759  0.00  0.00     0.021 C 
ATOM     24  C   UNL d   1      28.698 -15.683  -4.169  0.00  0.00     0.021 C 
ATOM     25  C   UNL d   1      28.302 -16.315  -2.761  0.00  0.00     0.123 C 
ENDBRANCH   6  21
BRANCH   3  26
ATOM     26  N   UNL d   1      22.785 -18.681   0.281  0.00  0.00    -0.323 N 
ATOM     27  C   UNL d   1      21.455 -18.574  -0.164  0.00  0.00     0.256 C 
ATOM     28  O   UNL d   1      21.008 -17.770  -0.982  0.00  0.00    -0.267 OA
ATOM     29  H   UNL d   1      23.021 -19.471   0.869  0.00  0.00     0.169 HD
BRANCH  27  30
ATOM     30  C   UNL d   1      20.432 -19.513   0.357  0.00  0.00     0.032 A 
ATOM     31  C   UNL d   1      19.480 -20.033  -0.550  0.00  0.00     0.020 A 
ATOM     32  C   UNL d   1      18.363 -20.728  -0.085  0.00  0.00     0.043 A 
ATOM     33  C   UNL d   1      18.233 -20.955   1.278  0.00  0.00     0.116 A 
ATOM     34  F   UNL d   1      17.193 -21.669   1.730  0.00  0.00    -0.206 F 
ATOM     35  C   UNL d   1      19.167 -20.453   2.184  0.00  0.00     0.043 A 
ATOM     36  C   UNL d   1      20.266 -19.717   1.726  0.00  0.00     0.020 A 
ENDBRANCH  27  30
ENDBRANCH   3  26
TORSDOF 6
ENDMDL
MODEL 4
REMARK VINA RESULT:    -9.822      2.276      4.365
REMARK INTER + INTRA:         -13.664
REMARK INTER:                 -11.612
REMARK INTRA:                  -2.051
REMARK CONF_INDEPENDENT:        1.790
REMARK UNBOUND:                -2.051
REMARK  6 active torsions:
REMARK  status: ('A' for Active; 'I' for Inactive)
REMARK    1  A    between atoms: C_2  and  C_3 
REMARK    2  A    between atoms: C_8  and  N_9 
REMARK       I    between atoms: N_9  and  C_10 
REMARK       I    between atoms: C_10  and  N_12 
REMARK    3  A    between atoms: N_12  and  C_13 
REMARK    4  A    between atoms: C_15  and  N_16 
REMARK       I    between atoms: N_16  and  C_17 
REMARK    5  A    between atoms: C_17  and  C_19 
REMARK    6  A    between atoms: C_28  and  N_29 
ROOT
ATOM      1  C   UNL d   1      26.026 -17.096  -0.179  0.00  0.00     0.045 C 
ATOM      2  C   UNL d   1      24.857 -17.708   0.441  0.00  0.00     0.055 C 
ATOM      3  C   UNL d   1      23.700 -18.045  -0.314  0.00  0.00     0.036 C 
ATOM      4  C   UNL d   1      23.665 -17.605  -1.629  0.00  0.00     0.032 C 
ATOM      5  C   UNL d   1      24.763 -16.991  -2.236  0.00  0.00     0.033 C 
ATOM      6  C   UNL d   1      25.981 -16.746  -1.581  0.00  0.00     0.052 C 
ENDROOT
BRANCH   1   7
ATOM      7  N   UNL d   1      27.215 -16.786   0.666  0.00  0.00    -0.208 NA
ATOM      8  C   UNL d   1      27.437 -15.401   0.921  0.00  0.00     0.303 C 
ATOM      9  N   UNL d   1      28.765 -15.060   1.399  0.00  0.00    -0.313 N 
ATOM     10  O   UNL d   1      26.568 -14.622   0.664  0.00  0.00    -0.253 OA
ATOM     11  H   UNL d   1      29.346 -15.816   1.731  0.00  0.00     0.170 HD
ATOM     12  H   UNL d   1      27.266 -17.336   1.512  0.00  0.00     0.138 HD
BRANCH   9  13
ATOM     13  C   UNL d   1      29.533 -13.749   1.125  0.00  0.00     0.042 A 
ATOM     14  C   UNL d   1      30.518 -13.718   0.131  0.00  0.00     0.030 A 
ATOM     15  C   UNL d   1      31.115 -12.490  -0.294  0.00  0.00     0.002 A 
ATOM     16  C   UNL d   1      30.669 -11.239   0.134  0.00  0.00     0.001 A 
ATOM     17  C   UNL d   1      29.672 -11.203   1.064  0.00  0.00     0.009 A 
ATOM     18  C   UNL d   1      29.149 -12.420   1.569  0.00  0.00    -0.032 A 
BRANCH  18  19
ATOM     19  C   UNL d   1      27.822 -12.162   2.155  0.00  0.00     0.036 C 
ATOM     20  C   UNL d   1      28.196 -12.802   3.413  0.00  0.00     0.010 C 
ENDBRANCH  18  19
ENDBRANCH   9  13
ENDBRANCH   1   7
BRANCH   6  21
ATOM     21  N   UNL d   1      26.993 -16.244  -2.401  0.00  0.00    -0.379 N 
ATOM     22  C   UNL d   1      28.420 -16.543  -2.247  0.00  0.00     0.123 C 
ATOM     23  C   UNL d   1      29.191 -15.305  -2.706  0.00  0.00     0.021 C 
ATOM     24  C   UNL d   1      28.190 -14.597  -3.715  0.00  0.00     0.021 C 
ATOM     25  C   UNL d   1      26.741 -15.200  -3.434  0.00  0.00     0.123 C 
ENDBRANCH   6  21
BRANCH   3  26
ATOM     26  N   UNL d   1      22.623 -18.860   0.200  0.00  0.00    -0.323 N 
ATOM     27  C   UNL d   1      21.275 -18.701  -0.172  0.00  0.00     0.256 C 
ATOM     28  O   UNL d   1      20.803 -17.825  -0.895  0.00  0.00    -0.267 OA
ATOM     29  H   UNL d   1      22.875 -19.700   0.706  0.00  0.00     0.169 HD
BRANCH  27  30
ATOM     30  C   UNL d   1      20.265 -19.673   0.312  0.00  0.00     0.032 A 
ATOM     31  C   UNL d   1      19.244 -20.075  -0.580  0.00  0.00     0.020 A 
ATOM     32  C   UNL d   1      18.142 -20.796  -0.119  0.00  0.00     0.043 A 
ATOM     33  C   UNL d   1      18.094 -21.167   1.217  0.00  0.00     0.116 A 
ATOM     34  F   UNL d   1      17.068 -21.907   1.659  0.00  0.00    -0.206 F 
ATOM     35  C   UNL d   1      19.097 -20.783   2.108  0.00  0.00     0.043 A 
ATOM     36  C   UNL d   1      20.182 -20.022   1.660  0.00  0.00     0.020 A 
ENDBRANCH  27  30
ENDBRANCH   3  26
TORSDOF 6
ENDMDL
MODEL 5
REMARK VINA RESULT:    -9.667      3.288      5.641
REMARK INTER + INTRA:         -12.783
REMARK INTER:                 -11.457
REMARK INTRA:                  -1.326
REMARK CONF_INDEPENDENT:        1.790
REMARK UNBOUND:                -1.326
REMARK  6 active torsions:
REMARK  status: ('A' for Active; 'I' for Inactive)
REMARK    1  A    between atoms: C_2  and  C_3 
REMARK    2  A    between atoms: C_8  and  N_9 
REMARK       I    between atoms: N_9  and  C_10 
REMARK       I    between atoms: C_10  and  N_12 
REMARK    3  A    between atoms: N_12  and  C_13 
REMARK    4  A    between atoms: C_15  and  N_16 
REMARK       I    between atoms: N_16  and  C_17 
REMARK    5  A    between atoms: C_17  and  C_19 
REMARK    6  A    between atoms: C_28  and  N_29 
ROOT
ATOM      1  C   UNL d   1      26.727 -17.074  -0.374  0.00  0.00     0.045 C 
ATOM      2  C   UNL d   1      25.613 -17.797   0.227  0.00  0.00     0.055 C 
ATOM      3  C   UNL d   1      24.269 -17.573  -0.180  0.00  0.00     0.036 C 
ATOM      4  C   UNL d   1      24.050 -16.512  -1.047  0.00  0.00     0.032 C 
ATOM      5  C   UNL d   1      25.100 -15.788  -1.614  0.00  0.00     0.033 C 
ATOM      6  C   UNL d   1      26.456 -16.043  -1.352  0.00  0.00     0.052 C 
ENDROOT
BRANCH   1   7
ATOM      7  N   UNL d   1      28.115 -17.370   0.084  0.00  0.00    -0.208 NA
ATOM      8  C   UNL d   1      29.047 -17.671  -0.952  0.00  0.00     0.303 C 
ATOM      9  N   UNL d   1      30.270 -18.323  -0.520  0.00  0.00    -0.313 N 
ATOM     10  O   UNL d   1      28.743 -17.443  -2.084  0.00  0.00    -0.253 OA
ATOM     11  H   UNL d   1      30.479 -18.310   0.469  0.00  0.00     0.170 HD
ATOM     12  H   UNL d   1      28.482 -16.688   0.733  0.00  0.00     0.138 HD
BRANCH   9  13
ATOM     13  C   UNL d   1      31.102 -19.345  -1.323  0.00  0.00     0.042 A 
ATOM     14  C   UNL d   1      31.923 -18.902  -2.367  0.00  0.00     0.030 A 
ATOM     15  C   UNL d   1      32.856 -19.776  -3.008  0.00  0.00     0.002 A 
ATOM     16  C   UNL d   1      33.123 -21.069  -2.557  0.00  0.00     0.001 A 
ATOM     17  C   UNL d   1      32.391 -21.539  -1.506  0.00  0.00     0.009 A 
ATOM     18  C   UNL d   1      31.389 -20.716  -0.934  0.00  0.00    -0.032 A 
BRANCH  18  19
ATOM     19  C   UNL d   1      31.084 -21.205   0.422  0.00  0.00     0.036 C 
ATOM     20  C   UNL d   1      31.515 -22.559   0.086  0.00  0.00     0.010 C 
ENDBRANCH  18  19
ENDBRANCH   9  13
ENDBRANCH   1   7
BRANCH   6  21
ATOM     21  N   UNL d   1      27.350 -15.294  -2.118  0.00  0.00    -0.379 N 
ATOM     22  C   UNL d   1      27.411 -15.306  -3.583  0.00  0.00     0.123 C 
ATOM     23  C   UNL d   1      28.871 -15.075  -3.974  0.00  0.00     0.021 C 
ATOM     24  C   UNL d   1      29.468 -14.289  -2.730  0.00  0.00     0.021 C 
ATOM     25  C   UNL d   1      28.466 -14.515  -1.511  0.00  0.00     0.123 C 
ENDBRANCH   6  21
BRANCH   3  26
ATOM     26  N   UNL d   1      23.167 -18.422   0.210  0.00  0.00    -0.323 N 
ATOM     27  C   UNL d   1      21.840 -18.230  -0.220  0.00  0.00     0.256 C 
ATOM     28  O   UNL d   1      21.407 -17.298  -0.896  0.00  0.00    -0.267 OA
ATOM     29  H   UNL d   1      23.392 -19.300   0.661  0.00  0.00     0.169 HD
BRANCH  27  30
ATOM     30  C   UNL d   1      20.806 -19.233   0.132  0.00  0.00     0.032 A 
ATOM     31  C   UNL d   1      19.860 -19.590  -0.856  0.00  0.00     0.020 A 
ATOM     32  C   UNL d   1      18.734 -20.342  -0.521  0.00  0.00     0.043 A 
ATOM     33  C   UNL d   1      18.589 -20.789   0.785  0.00  0.00     0.116 A 
ATOM     34  F   UNL d   1      17.540 -21.559   1.106  0.00  0.00    -0.206 F 
ATOM     35  C   UNL d   1      19.518 -20.450   1.769  0.00  0.00     0.043 A 
ATOM     36  C   UNL d   1      20.627 -19.659   1.447  0.00  0.00     0.020 A 
ENDBRANCH  27  30
ENDBRANCH   3  26
TORSDOF 6
ENDMDL
MODEL 6
REMARK VINA RESULT:    -9.276      4.231      9.304
REMARK INTER + INTRA:         -12.758
REMARK INTER:                 -11.066
REMARK INTRA:                  -1.692
REMARK CONF_INDEPENDENT:        1.790
REMARK UNBOUND:                -1.692
REMARK  6 active torsions:
REMARK  status: ('A' for Active; 'I' for Inactive)
REMARK    1  A    between atoms: C_2  and  C_3 
REMARK    2  A    between atoms: C_8  and  N_9 
REMARK       I    between atoms: N_9  and  C_10 
REMARK       I    between atoms: C_10  and  N_12 
REMARK    3  A    between atoms: N_12  and  C_13 
REMARK    4  A    between atoms: C_15  and  N_16 
REMARK       I    between atoms: N_16  and  C_17 
REMARK    5  A    between atoms: C_17  and  C_19 
REMARK    6  A    between atoms: C_28  and  N_29 
ROOT
ATOM      1  C   UNL d   1      26.146 -13.496  -5.021  0.00  0.00     0.045 C 
ATOM      2  C   UNL d   1      26.966 -14.560  -5.588  0.00  0.00     0.055 C 
ATOM      3  C   UNL d   1      28.185 -14.285  -6.267  0.00  0.00     0.036 C 
ATOM      4  C   UNL d   1      28.469 -12.951  -6.519  0.00  0.00     0.032 C 
ATOM      5  C   UNL d   1      27.683 -11.915  -6.009  0.00  0.00     0.033 C 
ATOM      6  C   UNL d   1      26.538 -12.118  -5.223  0.00  0.00     0.052 C 
ENDROOT
BRANCH   1   7
ATOM      7  N   UNL d   1      24.889 -13.853  -4.303  0.00  0.00    -0.208 NA
ATOM      8  C   UNL d   1      25.058 -14.277  -2.953  0.00  0.00     0.303 C 
ATOM      9  N   UNL d   1      23.926 -14.979  -2.374  0.00  0.00    -0.313 N 
ATOM     10  O   UNL d   1      26.112 -14.100  -2.421  0.00  0.00    -0.253 OA
ATOM     11  H   UNL d   1      23.043 -14.918  -2.862  0.00  0.00     0.170 HD
ATOM     12  H   UNL d   1      24.161 -13.157  -4.390  0.00  0.00     0.138 HD
BRANCH   9  13
ATOM     13  C   UNL d   1      23.982 -16.101  -1.315  0.00  0.00     0.042 A 
ATOM     14  C   UNL d   1      22.797 -16.716  -0.895  0.00  0.00     0.030 A 
ATOM     15  C   UNL d   1      22.812 -17.885  -0.070  0.00  0.00     0.002 A 
ATOM     16  C   UNL d   1      23.982 -18.575   0.251  0.00  0.00     0.001 A 
ATOM     17  C   UNL d   1      25.167 -18.052  -0.177  0.00  0.00     0.009 A 
ATOM     18  C   UNL d   1      25.166 -16.836  -0.904  0.00  0.00    -0.032 A 
BRANCH  18  19
ATOM     19  C   UNL d   1      26.432 -16.724  -1.649  0.00  0.00     0.036 C 
ATOM     20  C   UNL d   1      27.218 -17.070  -0.468  0.00  0.00     0.010 C 
ENDBRANCH  18  19
ENDBRANCH   9  13
ENDBRANCH   1   7
BRANCH   6  21
ATOM     21  N   UNL d   1      25.971 -10.952  -4.705  0.00  0.00    -0.379 N 
ATOM     22  C   UNL d   1      25.530  -9.809  -5.509  0.00  0.00     0.123 C 
ATOM     23  C   UNL d   1      25.746  -8.554  -4.662  0.00  0.00     0.021 C 
ATOM     24  C   UNL d   1      25.689  -9.098  -3.171  0.00  0.00     0.021 C 
ATOM     25  C   UNL d   1      25.907 -10.676  -3.243  0.00  0.00     0.123 C 
ENDBRANCH   6  21
BRANCH   3  26
ATOM     26  N   UNL d   1      29.140 -15.305  -6.633  0.00  0.00    -0.323 N 
ATOM     27  C   UNL d   1      29.569 -16.325  -5.763  0.00  0.00     0.256 C 
ATOM     28  O   UNL d   1      29.281 -16.456  -4.573  0.00  0.00    -0.267 OA
ATOM     29  H   UNL d   1      29.367 -15.400  -7.615  0.00  0.00     0.169 HD
BRANCH  27  30
ATOM     30  C   UNL d   1      30.452 -17.400  -6.276  0.00  0.00     0.032 A 
ATOM     31  C   UNL d   1      31.178 -17.157  -7.464  0.00  0.00     0.020 A 
ATOM     32  C   UNL d   1      31.837 -18.198  -8.119  0.00  0.00     0.043 A 
ATOM     33  C   UNL d   1      31.820 -19.465  -7.553  0.00  0.00     0.116 A 
ATOM     34  F   UNL d   1      32.495 -20.460  -8.144  0.00  0.00    -0.206 F 
ATOM     35  C   UNL d   1      31.113 -19.719  -6.378  0.00  0.00     0.043 A 
ATOM     36  C   UNL d   1      30.414 -18.687  -5.740  0.00  0.00     0.020 A 
ENDBRANCH  27  30
ENDBRANCH   3  26
TORSDOF 6
ENDMDL
MODEL 7
REMARK VINA RESULT:    -9.045      4.948     10.068
REMARK INTER + INTRA:         -12.420
REMARK INTER:                 -10.835
REMARK INTRA:                  -1.585
REMARK CONF_INDEPENDENT:        1.790
REMARK UNBOUND:                -1.585
REMARK  6 active torsions:
REMARK  status: ('A' for Active; 'I' for Inactive)
REMARK    1  A    between atoms: C_2  and  C_3 
REMARK    2  A    between atoms: C_8  and  N_9 
REMARK       I    between atoms: N_9  and  C_10 
REMARK       I    between atoms: C_10  and  N_12 
REMARK    3  A    between atoms: N_12  and  C_13 
REMARK    4  A    between atoms: C_15  and  N_16 
REMARK       I    between atoms: N_16  and  C_17 
REMARK    5  A    between atoms: C_17  and  C_19 
REMARK    6  A    between atoms: C_28  and  N_29 
ROOT
ATOM      1  C   UNL d   1      27.193 -15.560  -1.455  0.00  0.00     0.045 C 
ATOM      2  C   UNL d   1      27.947 -14.861  -2.488  0.00  0.00     0.055 C 
ATOM      3  C   UNL d   1      27.407 -14.633  -3.784  0.00  0.00     0.036 C 
ATOM      4  C   UNL d   1      26.203 -15.258  -4.075  0.00  0.00     0.032 C 
ATOM      5  C   UNL d   1      25.477 -15.958  -3.109  0.00  0.00     0.033 C 
ATOM      6  C   UNL d   1      25.894 -16.110  -1.777  0.00  0.00     0.052 C 
ENDROOT
BRANCH   1   7
ATOM      7  N   UNL d   1      27.809 -15.749  -0.111  0.00  0.00    -0.208 NA
ATOM      8  C   UNL d   1      27.277 -14.925   0.924  0.00  0.00     0.303 C 
ATOM      9  N   UNL d   1      28.098 -14.816   2.117  0.00  0.00    -0.313 N 
ATOM     10  O   UNL d   1      26.258 -14.336   0.725  0.00  0.00    -0.253 OA
ATOM     11  H   UNL d   1      28.845 -15.486   2.229  0.00  0.00     0.170 HD
ATOM     12  H   UNL d   1      27.871 -16.717   0.174  0.00  0.00     0.138 HD
BRANCH   9  13
ATOM     13  C   UNL d   1      28.209 -13.590   3.049  0.00  0.00     0.042 A 
ATOM     14  C   UNL d   1      27.860 -12.322   2.570  0.00  0.00     0.030 A 
ATOM     15  C   UNL d   1      27.756 -11.194   3.443  0.00  0.00     0.002 A 
ATOM     16  C   UNL d   1      27.847 -11.295   4.831  0.00  0.00     0.001 A 
ATOM     17  C   UNL d   1      28.132 -12.518   5.363  0.00  0.00     0.009 A 
ATOM     18  C   UNL d   1      28.342 -13.620   4.496  0.00  0.00    -0.032 A 
BRANCH  18  19
ATOM     19  C   UNL d   1      28.155 -14.868   5.256  0.00  0.00     0.036 C 
ATOM     20  C   UNL d   1      29.110 -14.450   6.278  0.00  0.00     0.010 C 
ENDBRANCH  18  19
ENDBRANCH   9  13
ENDBRANCH   1   7
BRANCH   6  21
ATOM     21  N   UNL d   1      24.963 -16.729  -0.941  0.00  0.00    -0.379 N 
ATOM     22  C   UNL d   1      25.226 -17.929  -0.142  0.00  0.00     0.123 C 
ATOM     23  C   UNL d   1      23.912 -18.707  -0.052  0.00  0.00     0.021 C 
ATOM     24  C   UNL d   1      22.804 -17.586  -0.253  0.00  0.00     0.021 C 
ATOM     25  C   UNL d   1      23.530 -16.324  -0.901  0.00  0.00     0.123 C 
ENDBRANCH   6  21
BRANCH   3  26
ATOM     26  N   UNL d   1      28.010 -13.749  -4.754  0.00  0.00    -0.323 N 
ATOM     27  C   UNL d   1      28.242 -14.100  -6.097  0.00  0.00     0.256 C 
ATOM     28  O   UNL d   1      28.059 -15.200  -6.618  0.00  0.00    -0.267 OA
ATOM     29  H   UNL d   1      28.098 -12.772  -4.503  0.00  0.00     0.169 HD
BRANCH  27  30
ATOM     30  C   UNL d   1      28.746 -13.076  -7.044  0.00  0.00     0.032 A 
ATOM     31  C   UNL d   1      27.843 -12.093  -7.507  0.00  0.00     0.020 A 
ATOM     32  C   UNL d   1      28.189 -11.254  -8.566  0.00  0.00     0.043 A 
ATOM     33  C   UNL d   1      29.458 -11.357  -9.118  0.00  0.00     0.116 A 
ATOM     34  F   UNL d   1      29.821 -10.519 -10.098  0.00  0.00    -0.206 F 
ATOM     35  C   UNL d   1      30.363 -12.318  -8.667  0.00  0.00     0.043 A 
ATOM     36  C   UNL d   1      30.005 -13.192  -7.634  0.00  0.00     0.020 A 
ENDBRANCH  27  30
ENDBRANCH   3  26
TORSDOF 6
ENDMDL
MODEL 8
REMARK VINA RESULT:    -8.476      3.376      5.843
REMARK INTER + INTRA:         -11.886
REMARK INTER:                 -10.266
REMARK INTRA:                  -1.620
REMARK CONF_INDEPENDENT:        1.790
REMARK UNBOUND:                -1.620
REMARK  6 active torsions:
REMARK  status: ('A' for Active; 'I' for Inactive)
REMARK    1  A    between atoms: C_2  and  C_3 
REMARK    2  A    between atoms: C_8  and  N_9 
REMARK       I    between atoms: N_9  and  C_10 
REMARK       I    between atoms: C_10  and  N_12 
REMARK    3  A    between atoms: N_12  and  C_13 
REMARK    4  A    between atoms: C_15  and  N_16 
REMARK       I    between atoms: N_16  and  C_17 
REMARK    5  A    between atoms: C_17  and  C_19 
REMARK    6  A    between atoms: C_28  and  N_29 
ROOT
ATOM      1  C   UNL d   1      26.903 -15.710  -0.429  0.00  0.00     0.045 C 
ATOM      2  C   UNL d   1      25.547 -16.190  -0.194  0.00  0.00     0.055 C 
ATOM      3  C   UNL d   1      24.571 -16.213  -1.228  0.00  0.00     0.036 C 
ATOM      4  C   UNL d   1      24.915 -15.594  -2.422  0.00  0.00     0.032 C 
ATOM      5  C   UNL d   1      26.200 -15.101  -2.660  0.00  0.00     0.033 C 
ATOM      6  C   UNL d   1      27.245 -15.165  -1.725  0.00  0.00     0.052 C 
ENDROOT
BRANCH   1   7
ATOM      7  N   UNL d   1      27.884 -15.731   0.693  0.00  0.00    -0.208 NA
ATOM      8  C   UNL d   1      27.690 -14.733   1.692  0.00  0.00     0.303 C 
ATOM      9  N   UNL d   1      28.826 -14.494   2.564  0.00  0.00    -0.313 N 
ATOM     10  O   UNL d   1      26.663 -14.122   1.703  0.00  0.00    -0.253 OA
ATOM     11  H   UNL d   1      29.565 -15.182   2.561  0.00  0.00     0.170 HD
ATOM     12  H   UNL d   1      28.016 -16.647   1.098  0.00  0.00     0.138 HD
BRANCH   9  13
ATOM     13  C   UNL d   1      29.219 -13.152   3.216  0.00  0.00     0.042 A 
ATOM     14  C   UNL d   1      29.212 -11.981   2.450  0.00  0.00     0.030 A 
ATOM     15  C   UNL d   1      29.374 -10.692   3.049  0.00  0.00     0.002 A 
ATOM     16  C   UNL d   1      29.404 -10.492   4.429  0.00  0.00     0.001 A 
ATOM     17  C   UNL d   1      29.360 -11.594   5.232  0.00  0.00     0.009 A 
ATOM     18  C   UNL d   1      29.306 -12.882   4.642  0.00  0.00    -0.032 A 
BRANCH  18  19
ATOM     19  C   UNL d   1      28.793 -13.842   5.635  0.00  0.00     0.036 C 
ATOM     20  C   UNL d   1      27.408 -13.529   5.298  0.00  0.00     0.010 C 
ENDBRANCH  18  19
ENDBRANCH   9  13
ENDBRANCH   1   7
BRANCH   6  21
ATOM     21  N   UNL d   1      28.484 -14.736  -2.205  0.00  0.00    -0.379 N 
ATOM     22  C   UNL d   1      28.754 -14.346  -3.592  0.00  0.00     0.123 C 
ATOM     23  C   UNL d   1      30.205 -14.724  -3.891  0.00  0.00     0.021 C 
ATOM     24  C   UNL d   1      30.893 -14.715  -2.460  0.00  0.00     0.021 C 
ATOM     25  C   UNL d   1      29.723 -14.790  -1.380  0.00  0.00     0.123 C 
ENDBRANCH   6  21
BRANCH   3  26
ATOM     26  N   UNL d   1      23.302 -16.892  -1.111  0.00  0.00    -0.323 N 
ATOM     27  C   UNL d   1      23.096 -18.035  -0.316  0.00  0.00     0.256 C 
ATOM     28  O   UNL d   1      23.946 -18.667   0.309  0.00  0.00    -0.267 OA
ATOM     29  H   UNL d   1      22.483 -16.415  -1.468  0.00  0.00     0.169 HD
BRANCH  27  30
ATOM     30  C   UNL d   1      21.725 -18.579  -0.160  0.00  0.00     0.032 A 
ATOM     31  C   UNL d   1      21.297 -18.950   1.135  0.00  0.00     0.020 A 
ATOM     32  C   UNL d   1      20.120 -19.678   1.313  0.00  0.00     0.043 A 
ATOM     33  C   UNL d   1      19.342 -19.978   0.204  0.00  0.00     0.116 A 
ATOM     34  F   UNL d   1      18.182 -20.627   0.369  0.00  0.00    -0.206 F 
ATOM     35  C   UNL d   1      19.748 -19.613  -1.080  0.00  0.00     0.043 A 
ATOM     36  C   UNL d   1      20.950 -18.921  -1.268  0.00  0.00     0.020 A 
ENDBRANCH  27  30
ENDBRANCH   3  26
TORSDOF 6
ENDMDL
MODEL 9
REMARK VINA RESULT:    -8.458      1.793      2.552
REMARK INTER + INTRA:         -12.222
REMARK INTER:                 -10.248
REMARK INTRA:                  -1.974
REMARK CONF_INDEPENDENT:        1.790
REMARK UNBOUND:                -1.974
REMARK  6 active torsions:
REMARK  status: ('A' for Active; 'I' for Inactive)
REMARK    1  A    between atoms: C_2  and  C_3 
REMARK    2  A    between atoms: C_8  and  N_9 
REMARK       I    between atoms: N_9  and  C_10 
REMARK       I    between atoms: C_10  and  N_12 
REMARK    3  A    between atoms: N_12  and  C_13 
REMARK    4  A    between atoms: C_15  and  N_16 
REMARK       I    between atoms: N_16  and  C_17 
REMARK    5  A    between atoms: C_17  and  C_19 
REMARK    6  A    between atoms: C_28  and  N_29 
ROOT
ATOM      1  C   UNL d   1      26.239 -15.296  -2.585  0.00  0.00     0.045 C 
ATOM      2  C   UNL d   1      24.998 -16.059  -2.582  0.00  0.00     0.055 C 
ATOM      3  C   UNL d   1      24.758 -17.095  -1.638  0.00  0.00     0.036 C 
ATOM      4  C   UNL d   1      25.827 -17.464  -0.834  0.00  0.00     0.032 C 
ATOM      5  C   UNL d   1      27.036 -16.765  -0.840  0.00  0.00     0.033 C 
ATOM      6  C   UNL d   1      27.291 -15.653  -1.658  0.00  0.00     0.052 C 
ENDROOT
BRANCH   1   7
ATOM      7  N   UNL d   1      26.420 -14.209  -3.590  0.00  0.00    -0.208 NA
ATOM      8  C   UNL d   1      26.977 -14.618  -4.837  0.00  0.00     0.303 C 
ATOM      9  N   UNL d   1      27.507 -13.549  -5.664  0.00  0.00    -0.313 N 
ATOM     10  O   UNL d   1      27.038 -15.785  -5.085  0.00  0.00    -0.253 OA
ATOM     11  H   UNL d   1      27.247 -12.603  -5.422  0.00  0.00     0.170 HD
ATOM     12  H   UNL d   1      25.599 -13.634  -3.717  0.00  0.00     0.138 HD
BRANCH   9  13
ATOM     13  C   UNL d   1      28.703 -13.643  -6.635  0.00  0.00     0.042 A 
ATOM     14  C   UNL d   1      29.009 -12.557  -7.464  0.00  0.00     0.030 A 
ATOM     15  C   UNL d   1      30.215 -12.518  -8.232  0.00  0.00     0.002 A 
ATOM     16  C   UNL d   1      31.229 -13.469  -8.106  0.00  0.00     0.001 A 
ATOM     17  C   UNL d   1      31.011 -14.524  -7.271  0.00  0.00     0.009 A 
ATOM     18  C   UNL d   1      29.773 -14.625  -6.587  0.00  0.00    -0.032 A 
BRANCH  18  19
ATOM     19  C   UNL d   1      29.938 -15.521  -5.430  0.00  0.00     0.036 C 
ATOM     20  C   UNL d   1      30.154 -16.680  -6.291  0.00  0.00     0.010 C 
ENDBRANCH  18  19
ENDBRANCH   9  13
ENDBRANCH   1   7
BRANCH   6  21
ATOM     21  N   UNL d   1      28.511 -15.018  -1.418  0.00  0.00    -0.379 N 
ATOM     22  C   UNL d   1      28.748 -13.579  -1.562  0.00  0.00     0.123 C 
ATOM     23  C   UNL d   1      30.202 -13.404  -2.002  0.00  0.00     0.021 C 
ATOM     24  C   UNL d   1      30.914 -14.715  -1.456  0.00  0.00     0.021 C 
ATOM     25  C   UNL d   1      29.765 -15.775  -1.145  0.00  0.00     0.123 C 
ENDBRANCH   6  21
BRANCH   3  26
ATOM     26  N   UNL d   1      23.467 -17.712  -1.443  0.00  0.00    -0.323 N 
ATOM     27  C   UNL d   1      22.998 -18.171  -0.198  0.00  0.00     0.256 C 
ATOM     28  O   UNL d   1      23.619 -18.202   0.864  0.00  0.00    -0.267 OA
ATOM     29  H   UNL d   1      22.797 -17.641  -2.199  0.00  0.00     0.169 HD
BRANCH  27  30
ATOM     30  C   UNL d   1      21.606 -18.670  -0.080  0.00  0.00     0.032 A 
ATOM     31  C   UNL d   1      21.107 -18.957   1.211  0.00  0.00     0.020 A 
ATOM     32  C   UNL d   1      19.902 -19.642   1.371  0.00  0.00     0.043 A 
ATOM     33  C   UNL d   1      19.170 -19.983   0.242  0.00  0.00     0.116 A 
ATOM     34  F   UNL d   1      17.985 -20.592   0.386  0.00  0.00    -0.206 F 
ATOM     35  C   UNL d   1      19.647 -19.701  -1.038  0.00  0.00     0.043 A 
ATOM     36  C   UNL d   1      20.876 -19.053  -1.204  0.00  0.00     0.020 A 
ENDBRANCH  27  30
ENDBRANCH   3  26
TORSDOF 6
ENDMDL
