MODEL 1
REMARK VINA RESULT:    -8.936      0.000      0.000
REMARK INTER + INTRA:         -12.657
REMARK INTER:                 -11.323
REMARK INTRA:                  -1.334
REMARK CONF_INDEPENDENT:        2.386
REMARK UNBOUND:                -1.334
REMARK  8 active torsions:
REMARK  status: ('A' for Active; 'I' for Inactive)
REMARK    1  A    between atoms: C_3  and  C_4 
REMARK    2  A    between atoms: C_4  and  C_5 
REMARK       I    between atoms: C_5  and  N_7 
REMARK    3  A    between atoms: N_7  and  C_8 
REMARK    4  A    between atoms: C_8  and  C_9 
REMARK    5  A    between atoms: C_9  and  O_10 
REMARK    6  A    between atoms: C_9  and  C_11 
REMARK    7  A    between atoms: C_22  and  O_23 
REMARK    8  A    between atoms: C_25  and  O_26 
ROOT
ATOM      1  C   UNL d   1      28.679 -16.428  -1.282  0.00  0.00     0.050 C 
ATOM      2  C   UNL d   1      27.533 -15.951  -2.153  0.00  0.00    -0.034 A 
ATOM      3  C   UNL d   1      26.245 -15.870  -1.718  0.00  0.00     0.033 A 
ATOM      4  C   UNL d   1      25.183 -15.373  -2.671  0.00  0.00     0.295 A 
ATOM      5  O   UNL d   1      23.993 -15.209  -2.462  0.00  0.00    -0.259 OA
ATOM      6  O   UNL d   1      25.554 -15.046  -3.946  0.00  0.00    -0.274 OA
ATOM      7  C   UNL d   1      26.860 -15.122  -4.376  0.00  0.00     0.095 A 
ATOM      8  C   UNL d   1      27.021 -14.719  -5.700  0.00  0.00     0.075 A 
ATOM      9  C   UNL d   1      28.284 -14.760  -6.236  0.00  0.00     0.071 A 
ATOM     10  C   UNL d   1      29.354 -15.194  -5.462  0.00  0.00     0.074 A 
ATOM     11  C   UNL d   1      29.154 -15.589  -4.131  0.00  0.00     0.082 A 
ATOM     12  C   UNL d   1      27.882 -15.561  -3.545  0.00  0.00     0.038 A 
ENDROOT
BRANCH   3  13
ATOM     13  C   UNL d   1      25.911 -16.281  -0.279  0.00  0.00     0.148 C 
BRANCH  13  14
ATOM     14  C   UNL d   1      24.984 -17.455  -0.018  0.00  0.00     0.222 C 
ATOM     15  O   UNL d   1      25.299 -18.518   0.495  0.00  0.00    -0.273 OA
ATOM     16  N   UNL d   1      23.665 -17.339  -0.367  0.00  0.00    -0.358 N 
ATOM     17  H   UNL d   1      23.263 -16.575  -0.894  0.00  0.00     0.162 HD
BRANCH  16  18
ATOM     18  C   UNL d   1      22.911 -18.542  -0.092  0.00  0.00     0.159 C 
BRANCH  18  19
ATOM     19  C   UNL d   1      21.561 -18.627  -0.765  0.00  0.00     0.169 C 
BRANCH  19  20
ATOM     20  O   UNL d   1      21.728 -19.325  -2.004  0.00  0.00    -0.389 OA
ATOM     21  H   UNL d   1      22.633 -19.687  -1.990  0.00  0.00     0.210 HD
ENDBRANCH  19  20
BRANCH  19  22
ATOM     22  C   UNL d   1      20.539 -19.338   0.097  0.00  0.00    -0.028 A 
ATOM     23  C   UNL d   1      20.590 -19.330   1.505  0.00  0.00     0.010 A 
ATOM     24  C   UNL d   1      19.622 -19.980   2.264  0.00  0.00     0.001 A 
ATOM     25  C   UNL d   1      18.585 -20.647   1.627  0.00  0.00     0.000 A 
ATOM     26  C   UNL d   1      18.515 -20.663   0.234  0.00  0.00     0.001 A 
ATOM     27  C   UNL d   1      19.486 -20.014  -0.528  0.00  0.00     0.010 A 
ENDBRANCH  19  22
ENDBRANCH  18  19
ENDBRANCH  16  18
ENDBRANCH  13  14
ENDBRANCH   3  13
BRANCH  11  28
ATOM     28  O   UNL d   1      30.236 -16.008  -3.408  0.00  0.00    -0.360 OA
ATOM     29  H   UNL d   1      30.725 -16.690  -3.893  0.00  0.00     0.217 HD
ENDBRANCH  11  28
BRANCH   9  30
ATOM     30  O   UNL d   1      28.514 -14.384  -7.522  0.00  0.00    -0.361 OA
ATOM     31  H   UNL d   1      29.353 -14.781  -7.818  0.00  0.00     0.217 HD
ENDBRANCH   9  30
TORSDOF 8
ENDMDL
MODEL 2
REMARK VINA RESULT:    -7.975      2.958      8.816
REMARK INTER + INTRA:         -11.809
REMARK INTER:                 -10.361
REMARK INTRA:                  -1.448
REMARK CONF_INDEPENDENT:        2.386
REMARK UNBOUND:                -1.448
REMARK  8 active torsions:
REMARK  status: ('A' for Active; 'I' for Inactive)
REMARK    1  A    between atoms: C_3  and  C_4 
REMARK    2  A    between atoms: C_4  and  C_5 
REMARK       I    between atoms: C_5  and  N_7 
REMARK    3  A    between atoms: N_7  and  C_8 
REMARK    4  A    between atoms: C_8  and  C_9 
REMARK    5  A    between atoms: C_9  and  O_10 
REMARK    6  A    between atoms: C_9  and  C_11 
REMARK    7  A    between atoms: C_22  and  O_23 
REMARK    8  A    between atoms: C_25  and  O_26 
ROOT
ATOM      1  C   UNL d   1      28.152 -16.741  -1.435  0.00  0.00     0.050 C 
ATOM      2  C   UNL d   1      26.769 -16.260  -1.826  0.00  0.00    -0.034 A 
ATOM      3  C   UNL d   1      26.549 -15.291  -2.759  0.00  0.00     0.033 A 
ATOM      4  C   UNL d   1      25.126 -14.895  -3.077  0.00  0.00     0.295 A 
ATOM      5  O   UNL d   1      24.731 -14.075  -3.889  0.00  0.00    -0.259 OA
ATOM      6  O   UNL d   1      24.111 -15.508  -2.396  0.00  0.00    -0.274 OA
ATOM      7  C   UNL d   1      24.341 -16.493  -1.460  0.00  0.00     0.095 A 
ATOM      8  C   UNL d   1      23.168 -17.000  -0.906  0.00  0.00     0.075 A 
ATOM      9  C   UNL d   1      23.279 -17.984   0.044  0.00  0.00     0.071 A 
ATOM     10  C   UNL d   1      24.534 -18.446   0.425  0.00  0.00     0.074 A 
ATOM     11  C   UNL d   1      25.693 -17.913  -0.158  0.00  0.00     0.082 A 
ATOM     12  C   UNL d   1      25.625 -16.908  -1.132  0.00  0.00     0.038 A 
ENDROOT
BRANCH   3  13
ATOM     13  C   UNL d   1      27.747 -14.637  -3.458  0.00  0.00     0.148 C 
BRANCH  13  14
ATOM     14  C   UNL d   1      28.118 -15.046  -4.873  0.00  0.00     0.222 C 
ATOM     15  O   UNL d   1      27.339 -15.386  -5.749  0.00  0.00    -0.273 OA
ATOM     16  N   UNL d   1      29.439 -15.029  -5.234  0.00  0.00    -0.358 N 
ATOM     17  H   UNL d   1      30.217 -14.877  -4.606  0.00  0.00     0.162 HD
BRANCH  16  18
ATOM     18  C   UNL d   1      29.647 -15.473  -6.595  0.00  0.00     0.159 C 
BRANCH  18  19
ATOM     19  C   UNL d   1      30.987 -16.113  -6.869  0.00  0.00     0.169 C 
BRANCH  19  20
ATOM     20  O   UNL d   1      31.896 -15.691  -5.847  0.00  0.00    -0.389 OA
ATOM     21  H   UNL d   1      31.968 -14.723  -5.932  0.00  0.00     0.210 HD
ENDBRANCH  19  20
BRANCH  19  22
ATOM     22  C   UNL d   1      30.901 -17.625  -6.896  0.00  0.00    -0.028 A 
ATOM     23  C   UNL d   1      31.245 -18.390  -8.027  0.00  0.00     0.010 A 
ATOM     24  C   UNL d   1      31.170 -19.779  -8.008  0.00  0.00     0.001 A 
ATOM     25  C   UNL d   1      30.751 -20.426  -6.853  0.00  0.00     0.000 A 
ATOM     26  C   UNL d   1      30.409 -19.687  -5.722  0.00  0.00     0.001 A 
ATOM     27  C   UNL d   1      30.482 -18.294  -5.741  0.00  0.00     0.010 A 
ENDBRANCH  19  22
ENDBRANCH  18  19
ENDBRANCH  16  18
ENDBRANCH  13  14
ENDBRANCH   3  13
BRANCH  11  28
ATOM     28  O   UNL d   1      26.906 -18.397   0.247  0.00  0.00    -0.360 OA
ATOM     29  H   UNL d   1      27.231 -17.900   1.013  0.00  0.00     0.217 HD
ENDBRANCH  11  28
BRANCH   9  30
ATOM     30  O   UNL d   1      22.176 -18.523   0.630  0.00  0.00    -0.361 OA
ATOM     31  H   UNL d   1      22.262 -19.493   0.622  0.00  0.00     0.217 HD
ENDBRANCH   9  30
TORSDOF 8
ENDMDL
MODEL 3
REMARK VINA RESULT:    -7.960      1.054      2.272
REMARK INTER + INTRA:         -10.983
REMARK INTER:                 -10.346
REMARK INTRA:                  -0.637
REMARK CONF_INDEPENDENT:        2.386
REMARK UNBOUND:                -0.637
REMARK  8 active torsions:
REMARK  status: ('A' for Active; 'I' for Inactive)
REMARK    1  A    between atoms: C_3  and  C_4 
REMARK    2  A    between atoms: C_4  and  C_5 
REMARK       I    between atoms: C_5  and  N_7 
REMARK    3  A    between atoms: N_7  and  C_8 
REMARK    4  A    between atoms: C_8  and  C_9 
REMARK    5  A    between atoms: C_9  and  O_10 
REMARK    6  A    between atoms: C_9  and  C_11 
REMARK    7  A    between atoms: C_22  and  O_23 
REMARK    8  A    between atoms: C_25  and  O_26 
ROOT
ATOM      1  C   UNL d   1      25.385 -14.452  -2.378  0.00  0.00     0.050 C 
ATOM      2  C   UNL d   1      26.697 -15.198  -2.518  0.00  0.00    -0.034 A 
ATOM      3  C   UNL d   1      27.211 -15.999  -1.543  0.00  0.00     0.033 A 
ATOM      4  C   UNL d   1      28.525 -16.702  -1.794  0.00  0.00     0.295 A 
ATOM      5  O   UNL d   1      29.126 -17.469  -1.062  0.00  0.00    -0.259 OA
ATOM      6  O   UNL d   1      29.163 -16.485  -2.985  0.00  0.00    -0.274 OA
ATOM      7  C   UNL d   1      28.633 -15.680  -3.969  0.00  0.00     0.095 A 
ATOM      8  C   UNL d   1      29.432 -15.619  -5.108  0.00  0.00     0.075 A 
ATOM      9  C   UNL d   1      29.002 -14.839  -6.153  0.00  0.00     0.071 A 
ATOM     10  C   UNL d   1      27.803 -14.142  -6.054  0.00  0.00     0.074 A 
ATOM     11  C   UNL d   1      27.024 -14.232  -4.891  0.00  0.00     0.082 A 
ATOM     12  C   UNL d   1      27.425 -15.017  -3.802  0.00  0.00     0.038 A 
ENDROOT
BRANCH   3  13
ATOM     13  C   UNL d   1      26.442 -16.167  -0.228  0.00  0.00     0.148 C 
BRANCH  13  14
ATOM     14  C   UNL d   1      25.474 -17.324  -0.054  0.00  0.00     0.222 C 
ATOM     15  O   UNL d   1      25.779 -18.496   0.109  0.00  0.00    -0.273 OA
ATOM     16  N   UNL d   1      24.131 -17.063  -0.063  0.00  0.00    -0.358 N 
ATOM     17  H   UNL d   1      23.708 -16.172  -0.292  0.00  0.00     0.162 HD
BRANCH  16  18
ATOM     18  C   UNL d   1      23.331 -18.260   0.079  0.00  0.00     0.159 C 
BRANCH  18  19
ATOM     19  C   UNL d   1      22.169 -18.378  -0.879  0.00  0.00     0.169 C 
BRANCH  19  20
ATOM     20  O   UNL d   1      22.611 -19.116  -2.022  0.00  0.00    -0.389 OA
ATOM     21  H   UNL d   1      23.140 -19.859  -1.677  0.00  0.00     0.210 HD
ENDBRANCH  19  20
BRANCH  19  22
ATOM     22  C   UNL d   1      20.978 -19.068  -0.245  0.00  0.00    -0.028 A 
ATOM     23  C   UNL d   1      20.889 -19.323   1.138  0.00  0.00     0.010 A 
ATOM     24  C   UNL d   1      19.771 -19.943   1.685  0.00  0.00     0.001 A 
ATOM     25  C   UNL d   1      18.721 -20.317   0.858  0.00  0.00     0.000 A 
ATOM     26  C   UNL d   1      18.788 -20.072  -0.513  0.00  0.00     0.001 A 
ATOM     27  C   UNL d   1      19.910 -19.452  -1.063  0.00  0.00     0.010 A 
ENDBRANCH  19  22
ENDBRANCH  18  19
ENDBRANCH  16  18
ENDBRANCH  13  14
ENDBRANCH   3  13
BRANCH  11  28
ATOM     28  O   UNL d   1      25.852 -13.529  -4.839  0.00  0.00    -0.360 OA
ATOM     29  H   UNL d   1      25.122 -14.107  -4.571  0.00  0.00     0.217 HD
ENDBRANCH  11  28
BRANCH   9  30
ATOM     30  O   UNL d   1      29.732 -14.729  -7.295  0.00  0.00    -0.361 OA
ATOM     31  H   UNL d   1      29.146 -14.889  -8.056  0.00  0.00     0.217 HD
ENDBRANCH   9  30
TORSDOF 8
ENDMDL
MODEL 4
REMARK VINA RESULT:    -7.525      5.882      9.467
REMARK INTER + INTRA:         -10.705
REMARK INTER:                  -9.911
REMARK INTRA:                  -0.794
REMARK CONF_INDEPENDENT:        2.386
REMARK UNBOUND:                -0.794
REMARK  8 active torsions:
REMARK  status: ('A' for Active; 'I' for Inactive)
REMARK    1  A    between atoms: C_3  and  C_4 
REMARK    2  A    between atoms: C_4  and  C_5 
REMARK       I    between atoms: C_5  and  N_7 
REMARK    3  A    between atoms: N_7  and  C_8 
REMARK    4  A    between atoms: C_8  and  C_9 
REMARK    5  A    between atoms: C_9  and  O_10 
REMARK    6  A    between atoms: C_9  and  C_11 
REMARK    7  A    between atoms: C_22  and  O_23 
REMARK    8  A    between atoms: C_25  and  O_26 
ROOT
ATOM      1  C   UNL d   1      33.462 -20.481   1.438  0.00  0.00     0.050 C 
ATOM      2  C   UNL d   1      32.088 -20.991   1.826  0.00  0.00    -0.034 A 
ATOM      3  C   UNL d   1      31.129 -21.325   0.918  0.00  0.00     0.033 A 
ATOM      4  C   UNL d   1      29.796 -21.832   1.417  0.00  0.00     0.295 A 
ATOM      5  O   UNL d   1      28.833 -22.198   0.767  0.00  0.00    -0.259 OA
ATOM      6  O   UNL d   1      29.595 -21.913   2.768  0.00  0.00    -0.274 OA
ATOM      7  C   UNL d   1      30.573 -21.583   3.680  0.00  0.00     0.095 A 
ATOM      8  C   UNL d   1      30.167 -21.763   5.000  0.00  0.00     0.075 A 
ATOM      9  C   UNL d   1      31.062 -21.457   5.995  0.00  0.00     0.071 A 
ATOM     10  C   UNL d   1      32.329 -20.986   5.671  0.00  0.00     0.074 A 
ATOM     11  C   UNL d   1      32.703 -20.820   4.329  0.00  0.00     0.082 A 
ATOM     12  C   UNL d   1      31.821 -21.121   3.283  0.00  0.00     0.038 A 
ENDROOT
BRANCH   3  13
ATOM     13  C   UNL d   1      31.430 -21.180  -0.578  0.00  0.00     0.148 C 
BRANCH  13  14
ATOM     14  C   UNL d   1      31.141 -19.869  -1.289  0.00  0.00     0.222 C 
ATOM     15  O   UNL d   1      31.691 -19.466  -2.302  0.00  0.00    -0.273 OA
ATOM     16  N   UNL d   1      30.173 -19.047  -0.779  0.00  0.00    -0.358 N 
ATOM     17  H   UNL d   1      29.700 -19.176   0.106  0.00  0.00     0.162 HD
BRANCH  16  18
ATOM     18  C   UNL d   1      30.030 -17.822  -1.536  0.00  0.00     0.159 C 
BRANCH  18  19
ATOM     19  C   UNL d   1      29.282 -16.712  -0.836  0.00  0.00     0.169 C 
BRANCH  19  20
ATOM     20  O   UNL d   1      29.596 -15.482  -1.497  0.00  0.00    -0.389 OA
ATOM     21  H   UNL d   1      28.789 -14.937  -1.450  0.00  0.00     0.210 HD
ENDBRANCH  19  20
BRANCH  19  22
ATOM     22  C   UNL d   1      27.785 -16.939  -0.846  0.00  0.00    -0.028 A 
ATOM     23  C   UNL d   1      27.155 -17.918  -0.052  0.00  0.00     0.010 A 
ATOM     24  C   UNL d   1      25.775 -18.085  -0.074  0.00  0.00     0.001 A 
ATOM     25  C   UNL d   1      24.999 -17.274  -0.891  0.00  0.00     0.000 A 
ATOM     26  C   UNL d   1      25.603 -16.298  -1.683  0.00  0.00     0.001 A 
ATOM     27  C   UNL d   1      26.988 -16.130  -1.662  0.00  0.00     0.010 A 
ENDBRANCH  19  22
ENDBRANCH  18  19
ENDBRANCH  16  18
ENDBRANCH  13  14
ENDBRANCH   3  13
BRANCH  11  28
ATOM     28  O   UNL d   1      33.959 -20.354   4.058  0.00  0.00    -0.360 OA
ATOM     29  H   UNL d   1      34.629 -20.963   4.403  0.00  0.00     0.217 HD
ENDBRANCH  11  28
BRANCH   9  30
ATOM     30  O   UNL d   1      30.733 -21.606   7.307  0.00  0.00    -0.361 OA
ATOM     31  H   UNL d   1      29.764 -21.661   7.381  0.00  0.00     0.217 HD
ENDBRANCH   9  30
TORSDOF 8
ENDMDL
MODEL 5
REMARK VINA RESULT:    -6.476      4.161      8.835
REMARK INTER + INTRA:         -11.128
REMARK INTER:                  -8.863
REMARK INTRA:                  -2.265
REMARK CONF_INDEPENDENT:        2.386
REMARK UNBOUND:                -2.265
REMARK  8 active torsions:
REMARK  status: ('A' for Active; 'I' for Inactive)
REMARK    1  A    between atoms: C_3  and  C_4 
REMARK    2  A    between atoms: C_4  and  C_5 
REMARK       I    between atoms: C_5  and  N_7 
REMARK    3  A    between atoms: N_7  and  C_8 
REMARK    4  A    between atoms: C_8  and  C_9 
REMARK    5  A    between atoms: C_9  and  O_10 
REMARK    6  A    between atoms: C_9  and  C_11 
REMARK    7  A    between atoms: C_22  and  O_23 
REMARK    8  A    between atoms: C_25  and  O_26 
ROOT
ATOM      1  C   UNL d   1      28.508 -16.514  -1.853  0.00  0.00     0.050 C 
ATOM      2  C   UNL d   1      27.104 -16.070  -2.214  0.00  0.00    -0.034 A 
ATOM      3  C   UNL d   1      26.836 -15.147  -3.179  0.00  0.00     0.033 A 
ATOM      4  C   UNL d   1      25.396 -14.784  -3.461  0.00  0.00     0.295 A 
ATOM      5  O   UNL d   1      24.959 -14.007  -4.292  0.00  0.00    -0.259 OA
ATOM      6  O   UNL d   1      24.416 -15.382  -2.716  0.00  0.00    -0.274 OA
ATOM      7  C   UNL d   1      24.695 -16.321  -1.748  0.00  0.00     0.095 A 
ATOM      8  C   UNL d   1      23.551 -16.819  -1.130  0.00  0.00     0.075 A 
ATOM      9  C   UNL d   1      23.712 -17.759  -0.142  0.00  0.00     0.071 A 
ATOM     10  C   UNL d   1      24.987 -18.186   0.211  0.00  0.00     0.074 A 
ATOM     11  C   UNL d   1      26.116 -17.663  -0.437  0.00  0.00     0.082 A 
ATOM     12  C   UNL d   1      25.996 -16.703  -1.450  0.00  0.00     0.038 A 
ENDROOT
BRANCH   3  13
ATOM     13  C   UNL d   1      27.997 -14.507  -3.949  0.00  0.00     0.148 C 
BRANCH  13  14
ATOM     14  C   UNL d   1      27.988 -13.016  -4.238  0.00  0.00     0.222 C 
ATOM     15  O   UNL d   1      28.809 -12.204  -3.841  0.00  0.00    -0.273 OA
ATOM     16  N   UNL d   1      26.990 -12.506  -5.024  0.00  0.00    -0.358 N 
ATOM     17  H   UNL d   1      26.177 -13.017  -5.344  0.00  0.00     0.162 HD
BRANCH  16  18
ATOM     18  C   UNL d   1      27.089 -11.072  -5.186  0.00  0.00     0.159 C 
BRANCH  18  19
ATOM     19  C   UNL d   1      26.090 -10.458  -6.138  0.00  0.00     0.169 C 
BRANCH  19  20
ATOM     20  O   UNL d   1      25.100 -11.448  -6.439  0.00  0.00    -0.389 OA
ATOM     21  H   UNL d   1      24.828 -11.826  -5.583  0.00  0.00     0.210 HD
ENDBRANCH  19  20
BRANCH  19  22
ATOM     22  C   UNL d   1      25.430  -9.226  -5.554  0.00  0.00    -0.028 A 
ATOM     23  C   UNL d   1      25.957  -8.529  -4.448  0.00  0.00     0.010 A 
ATOM     24  C   UNL d   1      25.333  -7.391  -3.951  0.00  0.00     0.001 A 
ATOM     25  C   UNL d   1      24.171  -6.927  -4.553  0.00  0.00     0.000 A 
ATOM     26  C   UNL d   1      23.635  -7.601  -5.650  0.00  0.00     0.001 A 
ATOM     27  C   UNL d   1      24.260  -8.744  -6.149  0.00  0.00     0.010 A 
ENDBRANCH  19  22
ENDBRANCH  18  19
ENDBRANCH  16  18
ENDBRANCH  13  14
ENDBRANCH   3  13
BRANCH  11  28
ATOM     28  O   UNL d   1      27.350 -18.112  -0.056  0.00  0.00    -0.360 OA
ATOM     29  H   UNL d   1      27.816 -17.433   0.454  0.00  0.00     0.217 HD
ENDBRANCH  11  28
BRANCH   9  30
ATOM     30  O   UNL d   1      22.640 -18.287   0.507  0.00  0.00    -0.361 OA
ATOM     31  H   UNL d   1      22.927 -19.087   0.983  0.00  0.00     0.217 HD
ENDBRANCH   9  30
TORSDOF 8
ENDMDL
MODEL 6
REMARK VINA RESULT:    -6.424      3.921      6.307
REMARK INTER + INTRA:         -10.891
REMARK INTER:                  -8.810
REMARK INTRA:                  -2.081
REMARK CONF_INDEPENDENT:        2.386
REMARK UNBOUND:                -2.081
REMARK  8 active torsions:
REMARK  status: ('A' for Active; 'I' for Inactive)
REMARK    1  A    between atoms: C_3  and  C_4 
REMARK    2  A    between atoms: C_4  and  C_5 
REMARK       I    between atoms: C_5  and  N_7 
REMARK    3  A    between atoms: N_7  and  C_8 
REMARK    4  A    between atoms: C_8  and  C_9 
REMARK    5  A    between atoms: C_9  and  O_10 
REMARK    6  A    between atoms: C_9  and  C_11 
REMARK    7  A    between atoms: C_22  and  O_23 
REMARK    8  A    between atoms: C_25  and  O_26 
ROOT
ATOM      1  C   UNL d   1      30.141 -12.768  -8.044  0.00  0.00     0.050 C 
ATOM      2  C   UNL d   1      29.684 -13.957  -7.222  0.00  0.00    -0.034 A 
ATOM      3  C   UNL d   1      28.548 -13.955  -6.470  0.00  0.00     0.033 A 
ATOM      4  C   UNL d   1      28.184 -15.200  -5.695  0.00  0.00     0.295 A 
ATOM      5  O   UNL d   1      27.208 -15.398  -4.992  0.00  0.00    -0.259 OA
ATOM      6  O   UNL d   1      29.026 -16.276  -5.760  0.00  0.00    -0.274 OA
ATOM      7  C   UNL d   1      30.168 -16.274  -6.530  0.00  0.00     0.095 A 
ATOM      8  C   UNL d   1      30.864 -17.479  -6.471  0.00  0.00     0.075 A 
ATOM      9  C   UNL d   1      32.024 -17.586  -7.198  0.00  0.00     0.071 A 
ATOM     10  C   UNL d   1      32.470 -16.513  -7.961  0.00  0.00     0.074 A 
ATOM     11  C   UNL d   1      31.739 -15.316  -7.996  0.00  0.00     0.082 A 
ATOM     12  C   UNL d   1      30.550 -15.164  -7.271  0.00  0.00     0.038 A 
ENDROOT
BRANCH   3  13
ATOM     13  C   UNL d   1      27.674 -12.696  -6.434  0.00  0.00     0.148 C 
BRANCH  13  14
ATOM     14  C   UNL d   1      26.595 -12.548  -5.375  0.00  0.00     0.222 C 
ATOM     15  O   UNL d   1      25.534 -11.959  -5.509  0.00  0.00    -0.273 OA
ATOM     16  N   UNL d   1      26.795 -13.127  -4.151  0.00  0.00    -0.358 N 
ATOM     17  H   UNL d   1      27.656 -13.557  -3.838  0.00  0.00     0.162 HD
BRANCH  16  18
ATOM     18  C   UNL d   1      25.704 -12.877  -3.234  0.00  0.00     0.159 C 
BRANCH  18  19
ATOM     19  C   UNL d   1      24.672 -13.977  -3.141  0.00  0.00     0.169 C 
BRANCH  19  20
ATOM     20  O   UNL d   1      24.408 -14.449  -4.466  0.00  0.00    -0.389 OA
ATOM     21  H   UNL d   1      24.267 -13.655  -5.013  0.00  0.00     0.210 HD
ENDBRANCH  19  20
BRANCH  19  22
ATOM     22  C   UNL d   1      25.138 -15.121  -2.265  0.00  0.00    -0.028 A 
ATOM     23  C   UNL d   1      26.492 -15.333  -1.940  0.00  0.00     0.010 A 
ATOM     24  C   UNL d   1      26.880 -16.384  -1.118  0.00  0.00     0.001 A 
ATOM     25  C   UNL d   1      25.918 -17.243  -0.604  0.00  0.00     0.000 A 
ATOM     26  C   UNL d   1      24.572 -17.050  -0.911  0.00  0.00     0.001 A 
ATOM     27  C   UNL d   1      24.182 -15.996  -1.738  0.00  0.00     0.010 A 
ENDBRANCH  19  22
ENDBRANCH  18  19
ENDBRANCH  16  18
ENDBRANCH  13  14
ENDBRANCH   3  13
BRANCH  11  28
ATOM     28  O   UNL d   1      32.215 -14.287  -8.761  0.00  0.00    -0.360 OA
ATOM     29  H   UNL d   1      31.629 -14.125  -9.515  0.00  0.00     0.217 HD
ENDBRANCH  11  28
BRANCH   9  30
ATOM     30  O   UNL d   1      32.758 -18.731  -7.186  0.00  0.00    -0.361 OA
ATOM     31  H   UNL d   1      32.489 -19.265  -6.417  0.00  0.00     0.217 HD
ENDBRANCH   9  30
TORSDOF 8
ENDMDL
MODEL 7
REMARK VINA RESULT:    -6.144      5.166      8.072
REMARK INTER + INTRA:         -11.220
REMARK INTER:                  -8.531
REMARK INTRA:                  -2.689
REMARK CONF_INDEPENDENT:        2.386
REMARK UNBOUND:                -2.689
REMARK  8 active torsions:
REMARK  status: ('A' for Active; 'I' for Inactive)
REMARK    1  A    between atoms: C_3  and  C_4 
REMARK    2  A    between atoms: C_4  and  C_5 
REMARK       I    between atoms: C_5  and  N_7 
REMARK    3  A    between atoms: N_7  and  C_8 
REMARK    4  A    between atoms: C_8  and  C_9 
REMARK    5  A    between atoms: C_9  and  O_10 
REMARK    6  A    between atoms: C_9  and  C_11 
REMARK    7  A    between atoms: C_22  and  O_23 
REMARK    8  A    between atoms: C_25  and  O_26 
ROOT
ATOM      1  C   UNL d   1      27.267 -10.697   2.870  0.00  0.00     0.050 C 
ATOM      2  C   UNL d   1      27.543 -12.182   2.995  0.00  0.00    -0.034 A 
ATOM      3  C   UNL d   1      27.476 -13.047   1.945  0.00  0.00     0.033 A 
ATOM      4  C   UNL d   1      27.780 -14.508   2.182  0.00  0.00     0.295 A 
ATOM      5  O   UNL d   1      27.795 -15.421   1.374  0.00  0.00    -0.259 OA
ATOM      6  O   UNL d   1      28.088 -14.911   3.453  0.00  0.00    -0.274 OA
ATOM      7  C   UNL d   1      28.163 -14.029   4.508  0.00  0.00     0.095 A 
ATOM      8  C   UNL d   1      28.516 -14.644   5.706  0.00  0.00     0.075 A 
ATOM      9  C   UNL d   1      28.614 -13.859   6.828  0.00  0.00     0.071 A 
ATOM     10  C   UNL d   1      28.366 -12.494   6.746  0.00  0.00     0.074 A 
ATOM     11  C   UNL d   1      28.015 -11.909   5.520  0.00  0.00     0.082 A 
ATOM     12  C   UNL d   1      27.905 -12.674   4.351  0.00  0.00     0.038 A 
ENDROOT
BRANCH   3  13
ATOM     13  C   UNL d   1      27.098 -12.515   0.557  0.00  0.00     0.148 C 
BRANCH  13  14
ATOM     14  C   UNL d   1      26.895 -13.479  -0.598  0.00  0.00     0.222 C 
ATOM     15  O   UNL d   1      25.905 -13.547  -1.311  0.00  0.00    -0.273 OA
ATOM     16  N   UNL d   1      27.898 -14.359  -0.902  0.00  0.00    -0.358 N 
ATOM     17  H   UNL d   1      28.734 -14.510  -0.351  0.00  0.00     0.162 HD
BRANCH  16  18
ATOM     18  C   UNL d   1      27.553 -15.237  -2.000  0.00  0.00     0.159 C 
BRANCH  18  19
ATOM     19  C   UNL d   1      27.432 -16.700  -1.645  0.00  0.00     0.169 C 
BRANCH  19  20
ATOM     20  O   UNL d   1      28.430 -17.001  -0.664  0.00  0.00    -0.389 OA
ATOM     21  H   UNL d   1      28.180 -16.503   0.137  0.00  0.00     0.210 HD
ENDBRANCH  19  20
BRANCH  19  22
ATOM     22  C   UNL d   1      26.057 -17.043  -1.109  0.00  0.00    -0.028 A 
ATOM     23  C   UNL d   1      25.857 -17.923  -0.027  0.00  0.00     0.010 A 
ATOM     24  C   UNL d   1      24.580 -18.200   0.449  0.00  0.00     0.001 A 
ATOM     25  C   UNL d   1      23.480 -17.600  -0.149  0.00  0.00     0.000 A 
ATOM     26  C   UNL d   1      23.657 -16.724  -1.220  0.00  0.00     0.001 A 
ATOM     27  C   UNL d   1      24.938 -16.447  -1.699  0.00  0.00     0.010 A 
ENDBRANCH  19  22
ENDBRANCH  18  19
ENDBRANCH  16  18
ENDBRANCH  13  14
ENDBRANCH   3  13
BRANCH  11  28
ATOM     28  O   UNL d   1      27.780 -10.562   5.486  0.00  0.00    -0.360 OA
ATOM     29  H   UNL d   1      26.890 -10.365   5.815  0.00  0.00     0.217 HD
ENDBRANCH  11  28
BRANCH   9  30
ATOM     30  O   UNL d   1      28.952 -14.393   8.033  0.00  0.00    -0.361 OA
ATOM     31  H   UNL d   1      29.491 -15.189   7.881  0.00  0.00     0.217 HD
ENDBRANCH   9  30
TORSDOF 8
ENDMDL
MODEL 8
REMARK VINA RESULT:    -6.084      7.019      9.860
REMARK INTER + INTRA:         -10.782
REMARK INTER:                  -8.470
REMARK INTRA:                  -2.312
REMARK CONF_INDEPENDENT:        2.386
REMARK UNBOUND:                -2.312
REMARK  8 active torsions:
REMARK  status: ('A' for Active; 'I' for Inactive)
REMARK    1  A    between atoms: C_3  and  C_4 
REMARK    2  A    between atoms: C_4  and  C_5 
REMARK       I    between atoms: C_5  and  N_7 
REMARK    3  A    between atoms: N_7  and  C_8 
REMARK    4  A    between atoms: C_8  and  C_9 
REMARK    5  A    between atoms: C_9  and  O_10 
REMARK    6  A    between atoms: C_9  and  C_11 
REMARK    7  A    between atoms: C_22  and  O_23 
REMARK    8  A    between atoms: C_25  and  O_26 
ROOT
ATOM      1  C   UNL d   1      28.530 -10.259   5.696  0.00  0.00     0.050 C 
ATOM      2  C   UNL d   1      28.544 -11.773   5.774  0.00  0.00    -0.034 A 
ATOM      3  C   UNL d   1      28.402 -12.580   4.686  0.00  0.00     0.033 A 
ATOM      4  C   UNL d   1      28.439 -14.078   4.879  0.00  0.00     0.295 A 
ATOM      5  O   UNL d   1      28.355 -14.954   4.035  0.00  0.00    -0.259 OA
ATOM      6  O   UNL d   1      28.590 -14.568   6.147  0.00  0.00    -0.274 OA
ATOM      7  C   UNL d   1      28.742 -13.745   7.242  0.00  0.00     0.095 A 
ATOM      8  C   UNL d   1      28.905 -14.450   8.432  0.00  0.00     0.075 A 
ATOM      9  C   UNL d   1      29.060 -13.729   9.590  0.00  0.00     0.071 A 
ATOM     10  C   UNL d   1      29.050 -12.339   9.551  0.00  0.00     0.074 A 
ATOM     11  C   UNL d   1      28.886 -11.665   8.332  0.00  0.00     0.082 A 
ATOM     12  C   UNL d   1      28.726 -12.362   7.127  0.00  0.00     0.038 A 
ENDROOT
BRANCH   3  13
ATOM     13  C   UNL d   1      28.213 -11.947   3.302  0.00  0.00     0.148 C 
BRANCH  13  14
ATOM     14  C   UNL d   1      27.346 -12.636   2.263  0.00  0.00     0.222 C 
ATOM     15  O   UNL d   1      26.264 -12.243   1.855  0.00  0.00    -0.273 OA
ATOM     16  N   UNL d   1      27.796 -13.801   1.702  0.00  0.00    -0.358 N 
ATOM     17  H   UNL d   1      28.614 -14.319   2.000  0.00  0.00     0.162 HD
BRANCH  16  18
ATOM     18  C   UNL d   1      26.856 -14.362   0.756  0.00  0.00     0.159 C 
BRANCH  18  19
ATOM     19  C   UNL d   1      27.179 -15.756   0.272  0.00  0.00     0.169 C 
BRANCH  19  20
ATOM     20  O   UNL d   1      27.780 -16.472   1.355  0.00  0.00    -0.389 OA
ATOM     21  H   UNL d   1      28.096 -15.797   1.983  0.00  0.00     0.210 HD
ENDBRANCH  19  20
BRANCH  19  22
ATOM     22  C   UNL d   1      25.945 -16.489  -0.214  0.00  0.00    -0.028 A 
ATOM     23  C   UNL d   1      25.065 -15.951  -1.173  0.00  0.00     0.010 A 
ATOM     24  C   UNL d   1      23.952 -16.662  -1.608  0.00  0.00     0.001 A 
ATOM     25  C   UNL d   1      23.702 -17.926  -1.092  0.00  0.00     0.000 A 
ATOM     26  C   UNL d   1      24.563 -18.478  -0.145  0.00  0.00     0.001 A 
ATOM     27  C   UNL d   1      25.679 -17.765   0.294  0.00  0.00     0.010 A 
ENDBRANCH  19  22
ENDBRANCH  18  19
ENDBRANCH  16  18
ENDBRANCH  13  14
ENDBRANCH   3  13
BRANCH  11  28
ATOM     28  O   UNL d   1      28.883 -10.297   8.342  0.00  0.00    -0.360 OA
ATOM     29  H   UNL d   1      28.789  -9.965   9.247  0.00  0.00     0.217 HD
ENDBRANCH  11  28
BRANCH   9  30
ATOM     30  O   UNL d   1      29.221 -14.350  10.789  0.00  0.00    -0.361 OA
ATOM     31  H   UNL d   1      30.032 -14.012  11.208  0.00  0.00     0.217 HD
ENDBRANCH   9  30
TORSDOF 8
ENDMDL
