MODEL 1
REMARK VINA RESULT:    -9.742      0.000      0.000
REMARK INTER + INTRA:         -12.405
REMARK INTER:                 -11.234
REMARK INTRA:                  -1.172
REMARK CONF_INDEPENDENT:        1.492
REMARK UNBOUND:                -1.172
REMARK  5 active torsions:
REMARK  status: ('A' for Active; 'I' for Inactive)
REMARK       I    between atoms: N_1  and  C_2 
REMARK    1  A    between atoms: C_2  and  C_4 
REMARK    2  A    between atoms: C_4  and  C_5 
REMARK    3  A    between atoms: C_5  and  C_6 
REMARK    4  A    between atoms: N_22  and  C_23 
REMARK    5  A    between atoms: C_23  and  C_24 
ROOT
ATOM      1  C   UNL d   1      28.197 -13.509  -2.517  0.00  0.00     0.237 A 
ATOM      2  N   UNL d   1      28.149 -14.303  -1.282  0.00  0.00     0.113 N 
ATOM      3  C   UNL d   1      28.271 -15.719  -1.618  0.00  0.00     0.279 A 
ATOM      4  C   UNL d   1      29.493 -16.294  -0.828  0.00  0.00     0.267 C 
ATOM      5  O   UNL d   1      30.630 -15.852  -0.797  0.00  0.00    -0.270 OA
ATOM      6  N   UNL d   1      29.031 -17.413  -0.145  0.00  0.00    -0.324 N 
ATOM      7  C   UNL d   1      27.655 -17.539  -0.242  0.00  0.00     0.044 A 
ATOM      8  C   UNL d   1      26.853 -18.461   0.393  0.00  0.00     0.032 A 
ATOM      9  C   UNL d   1      25.472 -18.370   0.182  0.00  0.00     0.026 A 
ATOM     10  C   UNL d   1      24.935 -17.379  -0.657  0.00  0.00     0.034 A 
ATOM     11 CL   UNL d   1      23.233 -17.301  -0.895  0.00  0.00    -0.084 Cl
ATOM     12  C   UNL d   1      25.764 -16.457  -1.299  0.00  0.00     0.036 A 
ATOM     13  C   UNL d   1      27.132 -16.548  -1.072  0.00  0.00     0.019 A 
ATOM     14  C   UNL d   1      28.335 -15.860  -3.120  0.00  0.00     0.147 A 
ATOM     15  C   UNL d   1      29.603 -16.453  -3.637  0.00  0.00     0.235 C 
ATOM     16  O   UNL d   1      30.234 -17.337  -3.108  0.00  0.00    -0.272 OA
ATOM     17  N   UNL d   1      29.910 -15.860  -4.829  0.00  0.00    -0.283 N 
ATOM     18  C   UNL d   1      29.536 -14.536  -4.666  0.00  0.00     0.234 C 
ATOM     19  O   UNL d   1      30.063 -13.535  -5.128  0.00  0.00    -0.272 OA
ATOM     20  C   UNL d   1      28.298 -14.477  -3.722  0.00  0.00     0.128 A 
ATOM     21  H   UNL d   1      27.319 -14.147  -0.711  0.00  0.00     0.318 HD
ATOM     22  H   UNL d   1      29.655 -17.988   0.399  0.00  0.00     0.169 HD
ENDROOT
BRANCH   1  23
ATOM     23  C   UNL d   1      26.892 -12.675  -2.506  0.00  0.00     0.045 C 
BRANCH  23  24
ATOM     24  C   UNL d   1      25.622 -13.542  -2.440  0.00  0.00     0.105 C 
BRANCH  24  25
ATOM     25  C   UNL d   1      25.183 -13.964  -3.827  0.00  0.00     0.215 C 
ATOM     26  N   UNL d   1      24.780 -12.950  -4.644  0.00  0.00    -0.370 N 
ATOM     27  H   UNL d   1      24.492 -13.196  -5.582  0.00  0.00     0.159 HD
ATOM     28  H   UNL d   1      24.771 -11.976  -4.374  0.00  0.00     0.159 HD
ATOM     29  O   UNL d   1      25.166 -15.124  -4.220  0.00  0.00    -0.274 OA
ENDBRANCH  24  25
ENDBRANCH  23  24
ENDBRANCH   1  23
BRANCH  17  30
ATOM     30  C   UNL d   1      31.044 -16.541  -5.521  0.00  0.00     0.175 C 
BRANCH  30  31
ATOM     31  C   UNL d   1      30.877 -17.858  -6.269  0.00  0.00    -0.018 C 
ATOM     32  C   UNL d   1      30.418 -19.022  -5.623  0.00  0.00     0.010 C 
ATOM     33  C   UNL d   1      30.405 -20.268  -6.276  0.00  0.00     0.001 C 
ATOM     34  C   UNL d   1      30.793 -20.372  -7.608  0.00  0.00     0.002 C 
ATOM     35  C   UNL d   1      31.264 -19.242  -8.266  0.00  0.00     0.024 C 
ATOM     36  C   UNL d   1      31.386 -18.024  -7.579  0.00  0.00     0.042 C 
ATOM     37 CL   UNL d   1      32.280 -16.784  -8.394  0.00  0.00    -0.084 Cl
ENDBRANCH  30  31
ENDBRANCH  17  30
TORSDOF 5
ENDMDL
MODEL 2
REMARK VINA RESULT:    -9.341      4.966      7.206
REMARK INTER + INTRA:         -11.882
REMARK INTER:                 -10.833
REMARK INTRA:                  -1.049
REMARK CONF_INDEPENDENT:        1.492
REMARK UNBOUND:                -1.049
REMARK  5 active torsions:
REMARK  status: ('A' for Active; 'I' for Inactive)
REMARK       I    between atoms: N_1  and  C_2 
REMARK    1  A    between atoms: C_2  and  C_4 
REMARK    2  A    between atoms: C_4  and  C_5 
REMARK    3  A    between atoms: C_5  and  C_6 
REMARK    4  A    between atoms: N_22  and  C_23 
REMARK    5  A    between atoms: C_23  and  C_24 
ROOT
ATOM      1  C   UNL d   1      28.061 -11.422   0.497  0.00  0.00     0.237 A 
ATOM      2  N   UNL d   1      29.184 -11.916   1.305  0.00  0.00     0.113 N 
ATOM      3  C   UNL d   1      28.877 -13.262   1.781  0.00  0.00     0.279 A 
ATOM      4  C   UNL d   1      30.025 -14.211   1.305  0.00  0.00     0.267 C 
ATOM      5  O   UNL d   1      30.457 -14.340   0.171  0.00  0.00    -0.270 OA
ATOM      6  N   UNL d   1      30.480 -14.880   2.435  0.00  0.00    -0.324 N 
ATOM      7  C   UNL d   1      29.911 -14.373   3.592  0.00  0.00     0.044 A 
ATOM      8  C   UNL d   1      30.208 -14.720   4.891  0.00  0.00     0.032 A 
ATOM      9  C   UNL d   1      29.537 -14.038   5.912  0.00  0.00     0.026 A 
ATOM     10  C   UNL d   1      28.588 -13.045   5.612  0.00  0.00     0.034 A 
ATOM     11 CL   UNL d   1      27.780 -12.230   6.895  0.00  0.00    -0.084 Cl
ATOM     12  C   UNL d   1      28.293 -12.711   4.289  0.00  0.00     0.036 A 
ATOM     13  C   UNL d   1      28.976 -13.385   3.284  0.00  0.00     0.019 A 
ATOM     14  C   UNL d   1      27.486 -13.633   1.326  0.00  0.00     0.147 A 
ATOM     15  C   UNL d   1      27.423 -14.810   0.411  0.00  0.00     0.235 C 
ATOM     16  O   UNL d   1      28.115 -15.797   0.485  0.00  0.00    -0.272 OA
ATOM     17  N   UNL d   1      26.425 -14.605  -0.499  0.00  0.00    -0.283 N 
ATOM     18  C   UNL d   1      26.481 -13.250  -0.778  0.00  0.00     0.234 C 
ATOM     19  O   UNL d   1      26.254 -12.681  -1.836  0.00  0.00    -0.272 OA
ATOM     20  C   UNL d   1      26.942 -12.492   0.503  0.00  0.00     0.128 A 
ATOM     21  H   UNL d   1      29.439 -11.315   2.089  0.00  0.00     0.318 HD
ATOM     22  H   UNL d   1      31.191 -15.592   2.371  0.00  0.00     0.169 HD
ENDROOT
BRANCH   1  23
ATOM     23  C   UNL d   1      27.643 -10.090   1.168  0.00  0.00     0.045 C 
BRANCH  23  24
ATOM     24  C   UNL d   1      26.645 -10.284   2.325  0.00  0.00     0.105 C 
BRANCH  24  25
ATOM     25  C   UNL d   1      26.643  -9.080   3.244  0.00  0.00     0.215 C 
ATOM     26  N   UNL d   1      26.677  -9.364   4.576  0.00  0.00    -0.370 N 
ATOM     27  H   UNL d   1      26.690  -8.581   5.218  0.00  0.00     0.159 HD
ATOM     28  H   UNL d   1      26.710 -10.301   4.954  0.00  0.00     0.159 HD
ATOM     29  O   UNL d   1      26.601  -7.919   2.856  0.00  0.00    -0.274 OA
ENDBRANCH  24  25
ENDBRANCH  23  24
ENDBRANCH   1  23
BRANCH  17  30
ATOM     30  C   UNL d   1      26.150 -15.823  -1.317  0.00  0.00     0.175 C 
BRANCH  30  31
ATOM     31  C   UNL d   1      24.963 -16.741  -1.049  0.00  0.00    -0.018 C 
ATOM     32  C   UNL d   1      23.638 -16.318  -1.270  0.00  0.00     0.010 C 
ATOM     33  C   UNL d   1      22.540 -17.110  -0.884  0.00  0.00     0.001 C 
ATOM     34  C   UNL d   1      22.739 -18.367  -0.323  0.00  0.00     0.002 C 
ATOM     35  C   UNL d   1      24.036 -18.804  -0.081  0.00  0.00     0.024 C 
ATOM     36  C   UNL d   1      25.126 -17.965  -0.359  0.00  0.00     0.042 C 
ATOM     37 CL   UNL d   1      26.654 -18.476   0.280  0.00  0.00    -0.084 Cl
ENDBRANCH  30  31
ENDBRANCH  17  30
TORSDOF 5
ENDMDL
MODEL 3
REMARK VINA RESULT:    -8.741      5.407      8.315
REMARK INTER + INTRA:         -11.947
REMARK INTER:                 -10.232
REMARK INTRA:                  -1.714
REMARK CONF_INDEPENDENT:        1.492
REMARK UNBOUND:                -1.714
REMARK  5 active torsions:
REMARK  status: ('A' for Active; 'I' for Inactive)
REMARK       I    between atoms: N_1  and  C_2 
REMARK    1  A    between atoms: C_2  and  C_4 
REMARK    2  A    between atoms: C_4  and  C_5 
REMARK    3  A    between atoms: C_5  and  C_6 
REMARK    4  A    between atoms: N_22  and  C_23 
REMARK    5  A    between atoms: C_23  and  C_24 
ROOT
ATOM      1  C   UNL d   1      31.183 -15.196   2.761  0.00  0.00     0.237 A 
ATOM      2  N   UNL d   1      30.643 -14.832   4.078  0.00  0.00     0.113 N 
ATOM      3  C   UNL d   1      29.555 -13.875   3.901  0.00  0.00     0.279 A 
ATOM      4  C   UNL d   1      28.279 -14.469   4.585  0.00  0.00     0.267 C 
ATOM      5  O   UNL d   1      27.793 -15.575   4.412  0.00  0.00    -0.270 OA
ATOM      6  N   UNL d   1      27.805 -13.493   5.454  0.00  0.00    -0.324 N 
ATOM      7  C   UNL d   1      28.685 -12.428   5.555  0.00  0.00     0.044 A 
ATOM      8  C   UNL d   1      28.590 -11.343   6.398  0.00  0.00     0.032 A 
ATOM      9  C   UNL d   1      29.629 -10.405   6.363  0.00  0.00     0.026 A 
ATOM     10  C   UNL d   1      30.717 -10.568   5.489  0.00  0.00     0.034 A 
ATOM     11 CL   UNL d   1      31.974  -9.392   5.472  0.00  0.00    -0.084 Cl
ATOM     12  C   UNL d   1      30.794 -11.671   4.637  0.00  0.00     0.036 A 
ATOM     13  C   UNL d   1      29.764 -12.603   4.690  0.00  0.00     0.019 A 
ATOM     14  C   UNL d   1      29.422 -13.553   2.433  0.00  0.00     0.147 A 
ATOM     15  C   UNL d   1      28.112 -13.934   1.826  0.00  0.00     0.235 C 
ATOM     16  O   UNL d   1      27.036 -13.855   2.369  0.00  0.00    -0.272 OA
ATOM     17  N   UNL d   1      28.327 -14.346   0.542  0.00  0.00    -0.283 N 
ATOM     18  C   UNL d   1      29.529 -15.033   0.593  0.00  0.00     0.234 C 
ATOM     19  O   UNL d   1      29.873 -16.012  -0.052  0.00  0.00    -0.272 OA
ATOM     20  C   UNL d   1      30.435 -14.379   1.679  0.00  0.00     0.128 A 
ATOM     21  H   UNL d   1      31.333 -14.464   4.732  0.00  0.00     0.318 HD
ATOM     22  H   UNL d   1      26.952 -13.626   5.975  0.00  0.00     0.169 HD
ENDROOT
BRANCH   1  23
ATOM     23  C   UNL d   1      32.694 -14.867   2.845  0.00  0.00     0.045 C 
BRANCH  23  24
ATOM     24  C   UNL d   1      33.582 -15.923   2.163  0.00  0.00     0.105 C 
BRANCH  24  25
ATOM     25  C   UNL d   1      32.874 -17.261   2.095  0.00  0.00     0.215 C 
ATOM     26  N   UNL d   1      31.997 -17.403   1.062  0.00  0.00    -0.370 N 
ATOM     27  H   UNL d   1      31.516 -18.290   0.980  0.00  0.00     0.159 HD
ATOM     28  H   UNL d   1      31.817 -16.689   0.370  0.00  0.00     0.159 HD
ATOM     29  O   UNL d   1      33.041 -18.169   2.899  0.00  0.00    -0.274 OA
ENDBRANCH  24  25
ENDBRANCH  23  24
ENDBRANCH   1  23
BRANCH  17  30
ATOM     30  C   UNL d   1      27.051 -14.540  -0.208  0.00  0.00     0.175 C 
BRANCH  30  31
ATOM     31  C   UNL d   1      26.280 -15.855  -0.188  0.00  0.00    -0.018 C 
ATOM     32  C   UNL d   1      26.694 -16.942   0.605  0.00  0.00     0.010 C 
ATOM     33  C   UNL d   1      26.070 -18.200   0.510  0.00  0.00     0.001 C 
ATOM     34  C   UNL d   1      24.980 -18.386  -0.335  0.00  0.00     0.002 C 
ATOM     35  C   UNL d   1      24.560 -17.334  -1.140  0.00  0.00     0.024 C 
ATOM     36  C   UNL d   1      25.256 -16.116  -1.129  0.00  0.00     0.042 C 
ATOM     37 CL   UNL d   1      24.850 -15.004  -2.395  0.00  0.00    -0.084 Cl
ENDBRANCH  30  31
ENDBRANCH  17  30
TORSDOF 5
ENDMDL
MODEL 4
REMARK VINA RESULT:    -8.588      4.151      7.345
REMARK INTER + INTRA:         -11.031
REMARK INTER:                 -10.079
REMARK INTRA:                  -0.952
REMARK CONF_INDEPENDENT:        1.492
REMARK UNBOUND:                -0.952
REMARK  5 active torsions:
REMARK  status: ('A' for Active; 'I' for Inactive)
REMARK       I    between atoms: N_1  and  C_2 
REMARK    1  A    between atoms: C_2  and  C_4 
REMARK    2  A    between atoms: C_4  and  C_5 
REMARK    3  A    between atoms: C_5  and  C_6 
REMARK    4  A    between atoms: N_22  and  C_23 
REMARK    5  A    between atoms: C_23  and  C_24 
ROOT
ATOM      1  C   UNL d   1      29.588 -13.811   1.501  0.00  0.00     0.237 A 
ATOM      2  N   UNL d   1      30.749 -14.158   0.670  0.00  0.00     0.113 N 
ATOM      3  C   UNL d   1      30.461 -15.384  -0.069  0.00  0.00     0.279 A 
ATOM      4  C   UNL d   1      30.644 -15.079  -1.592  0.00  0.00     0.267 C 
ATOM      5  O   UNL d   1      30.142 -14.168  -2.231  0.00  0.00    -0.270 OA
ATOM      6  N   UNL d   1      31.514 -16.043  -2.087  0.00  0.00    -0.324 N 
ATOM      7  C   UNL d   1      32.050 -16.817  -1.071  0.00  0.00     0.044 A 
ATOM      8  C   UNL d   1      33.019 -17.789  -1.182  0.00  0.00     0.032 A 
ATOM      9  C   UNL d   1      33.447 -18.414  -0.005  0.00  0.00     0.026 A 
ATOM     10  C   UNL d   1      32.892 -18.065   1.238  0.00  0.00     0.034 A 
ATOM     11 CL   UNL d   1      33.440 -18.858   2.664  0.00  0.00    -0.084 Cl
ATOM     12  C   UNL d   1      31.904 -17.083   1.332  0.00  0.00     0.036 A 
ATOM     13  C   UNL d   1      31.498 -16.459   0.159  0.00  0.00     0.019 A 
ATOM     14  C   UNL d   1      29.098 -15.889   0.340  0.00  0.00     0.147 A 
ATOM     15  C   UNL d   1      28.095 -15.941  -0.764  0.00  0.00     0.235 C 
ATOM     16  O   UNL d   1      28.325 -16.243  -1.911  0.00  0.00    -0.272 OA
ATOM     17  N   UNL d   1      26.866 -15.631  -0.254  0.00  0.00    -0.283 N 
ATOM     18  C   UNL d   1      27.118 -14.648   0.688  0.00  0.00     0.234 C 
ATOM     19  O   UNL d   1      26.423 -13.690   0.992  0.00  0.00    -0.272 OA
ATOM     20  C   UNL d   1      28.514 -14.912   1.329  0.00  0.00     0.128 A 
ATOM     21  H   UNL d   1      31.625 -14.254   1.184  0.00  0.00     0.318 HD
ATOM     22  H   UNL d   1      31.746 -16.085  -3.067  0.00  0.00     0.169 HD
ENDROOT
BRANCH   1  23
ATOM     23  C   UNL d   1      30.145 -13.715   2.943  0.00  0.00     0.045 C 
BRANCH  23  24
ATOM     24  C   UNL d   1      29.091 -13.260   3.969  0.00  0.00     0.105 C 
BRANCH  24  25
ATOM     25  C   UNL d   1      28.776 -14.372   4.948  0.00  0.00     0.215 C 
ATOM     26  N   UNL d   1      29.839 -14.838   5.662  0.00  0.00    -0.370 N 
ATOM     27  H   UNL d   1      29.660 -15.574   6.334  0.00  0.00     0.159 HD
ATOM     28  H   UNL d   1      30.780 -14.482   5.573  0.00  0.00     0.159 HD
ATOM     29  O   UNL d   1      27.660 -14.854   5.106  0.00  0.00    -0.274 OA
ENDBRANCH  24  25
ENDBRANCH  23  24
ENDBRANCH   1  23
BRANCH  17  30
ATOM     30  C   UNL d   1      25.771 -15.867  -1.241  0.00  0.00     0.175 C 
BRANCH  30  31
ATOM     31  C   UNL d   1      24.604 -16.806  -0.963  0.00  0.00    -0.018 C 
ATOM     32  C   UNL d   1      23.267 -16.388  -1.114  0.00  0.00     0.010 C 
ATOM     33  C   UNL d   1      22.193 -17.205  -0.716  0.00  0.00     0.001 C 
ATOM     34  C   UNL d   1      22.425 -18.482  -0.212  0.00  0.00     0.002 C 
ATOM     35  C   UNL d   1      23.734 -18.914  -0.039  0.00  0.00     0.024 C 
ATOM     36  C   UNL d   1      24.805 -18.054  -0.328  0.00  0.00     0.042 C 
ATOM     37 CL   UNL d   1      26.361 -18.575   0.230  0.00  0.00    -0.084 Cl
ENDBRANCH  30  31
ENDBRANCH  17  30
TORSDOF 5
ENDMDL
MODEL 5
REMARK VINA RESULT:    -8.216      2.560      7.352
REMARK INTER + INTRA:         -11.300
REMARK INTER:                  -9.707
REMARK INTRA:                  -1.592
REMARK CONF_INDEPENDENT:        1.492
REMARK UNBOUND:                -1.592
REMARK  5 active torsions:
REMARK  status: ('A' for Active; 'I' for Inactive)
REMARK       I    between atoms: N_1  and  C_2 
REMARK    1  A    between atoms: C_2  and  C_4 
REMARK    2  A    between atoms: C_4  and  C_5 
REMARK    3  A    between atoms: C_5  and  C_6 
REMARK    4  A    between atoms: N_22  and  C_23 
REMARK    5  A    between atoms: C_23  and  C_24 
ROOT
ATOM      1  C   UNL d   1      31.249 -15.907  -0.741  0.00  0.00     0.237 A 
ATOM      2  N   UNL d   1      31.462 -16.002  -2.192  0.00  0.00     0.113 N 
ATOM      3  C   UNL d   1      30.304 -16.647  -2.805  0.00  0.00     0.279 A 
ATOM      4  C   UNL d   1      29.741 -15.680  -3.898  0.00  0.00     0.267 C 
ATOM      5  O   UNL d   1      29.447 -14.503  -3.766  0.00  0.00    -0.270 OA
ATOM      6  N   UNL d   1      29.654 -16.417  -5.073  0.00  0.00    -0.324 N 
ATOM      7  C   UNL d   1      30.238 -17.666  -4.936  0.00  0.00     0.044 A 
ATOM      8  C   UNL d   1      30.427 -18.613  -5.919  0.00  0.00     0.032 A 
ATOM      9  C   UNL d   1      31.089 -19.792  -5.561  0.00  0.00     0.026 A 
ATOM     10  C   UNL d   1      31.531 -19.999  -4.243  0.00  0.00     0.034 A 
ATOM     11 CL   UNL d   1      32.338 -21.464  -3.839  0.00  0.00    -0.084 Cl
ATOM     12  C   UNL d   1      31.325 -19.032  -3.257  0.00  0.00     0.036 A 
ATOM     13  C   UNL d   1      30.679 -17.858  -3.628  0.00  0.00     0.019 A 
ATOM     14  C   UNL d   1      29.335 -17.043  -1.718  0.00  0.00     0.147 A 
ATOM     15  C   UNL d   1      28.000 -16.380  -1.800  0.00  0.00     0.235 C 
ATOM     16  O   UNL d   1      27.403 -16.123  -2.818  0.00  0.00    -0.272 OA
ATOM     17  N   UNL d   1      27.547 -16.149  -0.532  0.00  0.00    -0.283 N 
ATOM     18  C   UNL d   1      28.681 -15.805   0.186  0.00  0.00     0.234 C 
ATOM     19  O   UNL d   1      28.785 -15.010   1.108  0.00  0.00    -0.272 OA
ATOM     20  C   UNL d   1      29.899 -16.584  -0.397  0.00  0.00     0.128 A 
ATOM     21  H   UNL d   1      32.318 -16.485  -2.463  0.00  0.00     0.318 HD
ATOM     22  H   UNL d   1      29.265 -16.019  -5.913  0.00  0.00     0.169 HD
ENDROOT
BRANCH   1  23
ATOM     23  C   UNL d   1      32.471 -16.619  -0.112  0.00  0.00     0.045 C 
BRANCH  23  24
ATOM     24  C   UNL d   1      32.248 -17.017   1.359  0.00  0.00     0.105 C 
BRANCH  24  25
ATOM     25  C   UNL d   1      32.465 -15.832   2.277  0.00  0.00     0.215 C 
ATOM     26  N   UNL d   1      31.330 -15.209   2.702  0.00  0.00    -0.370 N 
ATOM     27  H   UNL d   1      31.439 -14.420   3.327  0.00  0.00     0.159 HD
ATOM     28  H   UNL d   1      30.396 -15.499   2.447  0.00  0.00     0.159 HD
ATOM     29  O   UNL d   1      33.566 -15.423   2.625  0.00  0.00    -0.274 OA
ENDBRANCH  24  25
ENDBRANCH  23  24
ENDBRANCH   1  23
BRANCH  17  30
ATOM     30  C   UNL d   1      26.128 -15.685  -0.517  0.00  0.00     0.175 C 
BRANCH  30  31
ATOM     31  C   UNL d   1      24.949 -16.647  -0.601  0.00  0.00    -0.018 C 
ATOM     32  C   UNL d   1      23.657 -16.204  -0.942  0.00  0.00     0.010 C 
ATOM     33  C   UNL d   1      22.544 -17.064  -0.875  0.00  0.00     0.001 C 
ATOM     34  C   UNL d   1      22.704 -18.400  -0.522  0.00  0.00     0.002 C 
ATOM     35  C   UNL d   1      23.967 -18.861  -0.167  0.00  0.00     0.024 C 
ATOM     36  C   UNL d   1      25.054 -17.975  -0.122  0.00  0.00     0.042 C 
ATOM     37 CL   UNL d   1      26.488 -18.578   0.641  0.00  0.00    -0.084 Cl
ENDBRANCH  30  31
ENDBRANCH  17  30
TORSDOF 5
ENDMDL
MODEL 6
REMARK VINA RESULT:    -7.931      4.558      6.495
REMARK INTER + INTRA:         -11.068
REMARK INTER:                  -9.422
REMARK INTRA:                  -1.645
REMARK CONF_INDEPENDENT:        1.492
REMARK UNBOUND:                -1.645
REMARK  5 active torsions:
REMARK  status: ('A' for Active; 'I' for Inactive)
REMARK       I    between atoms: N_1  and  C_2 
REMARK    1  A    between atoms: C_2  and  C_4 
REMARK    2  A    between atoms: C_4  and  C_5 
REMARK    3  A    between atoms: C_5  and  C_6 
REMARK    4  A    between atoms: N_22  and  C_23 
REMARK    5  A    between atoms: C_23  and  C_24 
ROOT
ATOM      1  C   UNL d   1      28.387 -11.957  -1.713  0.00  0.00     0.237 A 
ATOM      2  N   UNL d   1      29.168 -12.180  -0.489  0.00  0.00     0.113 N 
ATOM      3  C   UNL d   1      28.424 -13.070   0.398  0.00  0.00     0.279 A 
ATOM      4  C   UNL d   1      29.335 -14.301   0.714  0.00  0.00     0.267 C 
ATOM      5  O   UNL d   1      29.913 -15.020  -0.085  0.00  0.00    -0.270 OA
ATOM      6  N   UNL d   1      29.379 -14.416   2.099  0.00  0.00    -0.324 N 
ATOM      7  C   UNL d   1      28.772 -13.338   2.720  0.00  0.00     0.044 A 
ATOM      8  C   UNL d   1      28.723 -13.069   4.070  0.00  0.00     0.032 A 
ATOM      9  C   UNL d   1      28.092 -11.887   4.472  0.00  0.00     0.026 A 
ATOM     10  C   UNL d   1      27.520 -11.018   3.526  0.00  0.00     0.034 A 
ATOM     11 CL   UNL d   1      26.748  -9.575   4.058  0.00  0.00    -0.084 Cl
ATOM     12  C   UNL d   1      27.571 -11.310   2.162  0.00  0.00     0.036 A 
ATOM     13  C   UNL d   1      28.214 -12.480   1.774  0.00  0.00     0.019 A 
ATOM     14  C   UNL d   1      27.091 -13.385  -0.235  0.00  0.00     0.147 A 
ATOM     15  C   UNL d   1      26.875 -14.829  -0.547  0.00  0.00     0.235 C 
ATOM     16  O   UNL d   1      27.246 -15.759   0.128  0.00  0.00    -0.272 OA
ATOM     17  N   UNL d   1      26.151 -14.924  -1.703  0.00  0.00    -0.283 N 
ATOM     18  C   UNL d   1      26.625 -13.892  -2.496  0.00  0.00     0.234 C 
ATOM     19  O   UNL d   1      26.756 -13.865  -3.710  0.00  0.00    -0.272 OA
ATOM     20  C   UNL d   1      27.037 -12.701  -1.578  0.00  0.00     0.128 A 
ATOM     21  H   UNL d   1      29.431 -11.328   0.007  0.00  0.00     0.318 HD
ATOM     22  H   UNL d   1      29.869 -15.176   2.546  0.00  0.00     0.169 HD
ENDROOT
BRANCH   1  23
ATOM     23  C   UNL d   1      28.234 -10.419  -1.813  0.00  0.00     0.045 C 
BRANCH  23  24
ATOM     24  C   UNL d   1      27.766  -9.947  -3.202  0.00  0.00     0.105 C 
BRANCH  24  25
ATOM     25  C   UNL d   1      26.258 -10.027  -3.319  0.00  0.00     0.215 C 
ATOM     26  N   UNL d   1      25.783 -11.118  -3.983  0.00  0.00    -0.370 N 
ATOM     27  H   UNL d   1      24.778 -11.208  -4.069  0.00  0.00     0.159 HD
ATOM     28  H   UNL d   1      26.369 -11.843  -4.373  0.00  0.00     0.159 HD
ATOM     29  O   UNL d   1      25.488  -9.185  -2.874  0.00  0.00    -0.274 OA
ENDBRANCH  24  25
ENDBRANCH  23  24
ENDBRANCH   1  23
BRANCH  17  30
ATOM     30  C   UNL d   1      25.706 -16.323  -1.974  0.00  0.00     0.175 C 
BRANCH  30  31
ATOM     31  C   UNL d   1      24.528 -16.964  -1.251  0.00  0.00    -0.018 C 
ATOM     32  C   UNL d   1      23.234 -16.410  -1.310  0.00  0.00     0.010 C 
ATOM     33  C   UNL d   1      22.182 -16.917  -0.525  0.00  0.00     0.001 C 
ATOM     34  C   UNL d   1      22.381 -18.025   0.293  0.00  0.00     0.002 C 
ATOM     35  C   UNL d   1      23.651 -18.583   0.381  0.00  0.00     0.024 C 
ATOM     36  C   UNL d   1      24.725 -18.004  -0.313  0.00  0.00     0.042 C 
ATOM     37 CL   UNL d   1      26.302 -18.576   0.126  0.00  0.00    -0.084 Cl
ENDBRANCH  30  31
ENDBRANCH  17  30
TORSDOF 5
ENDMDL
MODEL 7
REMARK VINA RESULT:    -7.805      2.199      4.601
REMARK INTER + INTRA:         -10.877
REMARK INTER:                  -9.297
REMARK INTRA:                  -1.580
REMARK CONF_INDEPENDENT:        1.492
REMARK UNBOUND:                -1.580
REMARK  5 active torsions:
REMARK  status: ('A' for Active; 'I' for Inactive)
REMARK       I    between atoms: N_1  and  C_2 
REMARK    1  A    between atoms: C_2  and  C_4 
REMARK    2  A    between atoms: C_4  and  C_5 
REMARK    3  A    between atoms: C_5  and  C_6 
REMARK    4  A    between atoms: N_22  and  C_23 
REMARK    5  A    between atoms: C_23  and  C_24 
ROOT
ATOM      1  C   UNL d   1      28.020 -16.242  -2.157  0.00  0.00     0.237 A 
ATOM      2  N   UNL d   1      26.835 -15.416  -2.427  0.00  0.00     0.113 N 
ATOM      3  C   UNL d   1      27.114 -14.534  -3.557  0.00  0.00     0.279 A 
ATOM      4  C   UNL d   1      26.022 -14.793  -4.646  0.00  0.00     0.267 C 
ATOM      5  O   UNL d   1      25.692 -15.867  -5.124  0.00  0.00    -0.270 OA
ATOM      6  N   UNL d   1      25.476 -13.555  -4.963  0.00  0.00    -0.324 N 
ATOM      7  C   UNL d   1      25.936 -12.562  -4.113  0.00  0.00     0.044 A 
ATOM      8  C   UNL d   1      25.529 -11.247  -4.066  0.00  0.00     0.032 A 
ATOM      9  C   UNL d   1      26.101 -10.429  -3.086  0.00  0.00     0.026 A 
ATOM     10  C   UNL d   1      27.062 -10.935  -2.195  0.00  0.00     0.034 A 
ATOM     11 CL   UNL d   1      27.746  -9.897  -1.005  0.00  0.00    -0.084 Cl
ATOM     12  C   UNL d   1      27.468 -12.269  -2.261  0.00  0.00     0.036 A 
ATOM     13  C   UNL d   1      26.883 -13.077  -3.229  0.00  0.00     0.019 A 
ATOM     14  C   UNL d   1      28.543 -14.742  -3.996  0.00  0.00     0.147 A 
ATOM     15  C   UNL d   1      28.698 -15.253  -5.391  0.00  0.00     0.235 C 
ATOM     16  O   UNL d   1      28.012 -14.941  -6.335  0.00  0.00    -0.272 OA
ATOM     17  N   UNL d   1      29.770 -16.098  -5.431  0.00  0.00    -0.283 N 
ATOM     18  C   UNL d   1      29.725 -16.776  -4.224  0.00  0.00     0.234 C 
ATOM     19  O   UNL d   1      30.038 -17.933  -3.990  0.00  0.00    -0.272 OA
ATOM     20  C   UNL d   1      29.145 -15.824  -3.135  0.00  0.00     0.128 A 
ATOM     21  H   UNL d   1      26.507 -14.873  -1.629  0.00  0.00     0.318 HD
ATOM     22  H   UNL d   1      24.780 -13.459  -5.686  0.00  0.00     0.169 HD
ENDROOT
BRANCH   1  23
ATOM     23  C   UNL d   1      28.364 -15.971  -0.671  0.00  0.00     0.045 C 
BRANCH  23  24
ATOM     24  C   UNL d   1      27.755 -17.009   0.289  0.00  0.00     0.105 C 
BRANCH  24  25
ATOM     25  C   UNL d   1      26.261 -17.133   0.073  0.00  0.00     0.215 C 
ATOM     26  N   UNL d   1      25.753 -18.388   0.228  0.00  0.00    -0.370 N 
ATOM     27  H   UNL d   1      24.755 -18.504   0.102  0.00  0.00     0.159 HD
ATOM     28  H   UNL d   1      26.306 -19.196   0.478  0.00  0.00     0.159 HD
ATOM     29  O   UNL d   1      25.530 -16.199  -0.235  0.00  0.00    -0.274 OA
ENDBRANCH  24  25
ENDBRANCH  23  24
ENDBRANCH   1  23
BRANCH  17  30
ATOM     30  C   UNL d   1      30.128 -16.487  -6.827  0.00  0.00     0.175 C 
BRANCH  30  31
ATOM     31  C   UNL d   1      30.777 -17.823  -7.166  0.00  0.00    -0.018 C 
ATOM     32  C   UNL d   1      30.388 -19.016  -6.528  0.00  0.00     0.010 C 
ATOM     33  C   UNL d   1      31.086 -20.221  -6.733  0.00  0.00     0.001 C 
ATOM     34  C   UNL d   1      32.152 -20.276  -7.626  0.00  0.00     0.002 C 
ATOM     35  C   UNL d   1      32.566 -19.111  -8.260  0.00  0.00     0.024 C 
ATOM     36  C   UNL d   1      31.943 -17.888  -7.965  0.00  0.00     0.042 C 
ATOM     37 CL   UNL d   1      32.746 -16.471  -8.556  0.00  0.00    -0.084 Cl
ENDBRANCH  30  31
ENDBRANCH  17  30
TORSDOF 5
ENDMDL
MODEL 8
REMARK VINA RESULT:    -7.672      3.868      5.896
REMARK INTER + INTRA:         -10.864
REMARK INTER:                  -9.164
REMARK INTRA:                  -1.701
REMARK CONF_INDEPENDENT:        1.492
REMARK UNBOUND:                -1.701
REMARK  5 active torsions:
REMARK  status: ('A' for Active; 'I' for Inactive)
REMARK       I    between atoms: N_1  and  C_2 
REMARK    1  A    between atoms: C_2  and  C_4 
REMARK    2  A    between atoms: C_4  and  C_5 
REMARK    3  A    between atoms: C_5  and  C_6 
REMARK    4  A    between atoms: N_22  and  C_23 
REMARK    5  A    between atoms: C_23  and  C_24 
ROOT
ATOM      1  C   UNL d   1      25.472 -16.897  -0.151  0.00  0.00     0.237 A 
ATOM      2  N   UNL d   1      26.710 -16.594   0.580  0.00  0.00     0.113 N 
ATOM      3  C   UNL d   1      27.614 -15.855  -0.296  0.00  0.00     0.279 A 
ATOM      4  C   UNL d   1      27.975 -14.509   0.415  0.00  0.00     0.267 C 
ATOM      5  O   UNL d   1      27.202 -13.687   0.882  0.00  0.00    -0.270 OA
ATOM      6  N   UNL d   1      29.362 -14.430   0.434  0.00  0.00    -0.324 N 
ATOM      7  C   UNL d   1      29.947 -15.606  -0.007  0.00  0.00     0.044 A 
ATOM      8  C   UNL d   1      31.288 -15.920  -0.021  0.00  0.00     0.032 A 
ATOM      9  C   UNL d   1      31.649 -17.196  -0.468  0.00  0.00     0.026 A 
ATOM     10  C   UNL d   1      30.673 -18.112  -0.895  0.00  0.00     0.034 A 
ATOM     11 CL   UNL d   1      31.155 -19.671  -1.441  0.00  0.00    -0.084 Cl
ATOM     12  C   UNL d   1      29.318 -17.776  -0.881  0.00  0.00     0.036 A 
ATOM     13  C   UNL d   1      28.970 -16.511  -0.422  0.00  0.00     0.019 A 
ATOM     14  C   UNL d   1      26.977 -15.727  -1.658  0.00  0.00     0.147 A 
ATOM     15  C   UNL d   1      26.704 -14.325  -2.090  0.00  0.00     0.235 C 
ATOM     16  O   UNL d   1      27.409 -13.370  -1.868  0.00  0.00    -0.272 OA
ATOM     17  N   UNL d   1      25.544 -14.306  -2.812  0.00  0.00    -0.283 N 
ATOM     18  C   UNL d   1      24.727 -15.230  -2.182  0.00  0.00     0.234 C 
ATOM     19  O   UNL d   1      23.513 -15.200  -2.042  0.00  0.00    -0.272 OA
ATOM     20  C   UNL d   1      25.614 -16.371  -1.600  0.00  0.00     0.128 A 
ATOM     21  H   UNL d   1      27.184 -17.411   0.967  0.00  0.00     0.318 HD
ATOM     22  H   UNL d   1      29.836 -13.618   0.799  0.00  0.00     0.169 HD
ENDROOT
BRANCH   1  23
ATOM     23  C   UNL d   1      25.326 -18.437  -0.067  0.00  0.00     0.045 C 
BRANCH  23  24
ATOM     24  C   UNL d   1      23.886 -18.893   0.230  0.00  0.00     0.105 C 
BRANCH  24  25
ATOM     25  C   UNL d   1      22.943 -18.453  -0.871  0.00  0.00     0.215 C 
ATOM     26  N   UNL d   1      22.656 -17.121  -0.895  0.00  0.00    -0.370 N 
ATOM     27  H   UNL d   1      22.038 -16.793  -1.626  0.00  0.00     0.159 HD
ATOM     28  H   UNL d   1      23.035 -16.449  -0.243  0.00  0.00     0.159 HD
ATOM     29  O   UNL d   1      22.444 -19.213  -1.693  0.00  0.00    -0.274 OA
ENDBRANCH  24  25
ENDBRANCH  23  24
ENDBRANCH   1  23
BRANCH  17  30
ATOM     30  C   UNL d   1      25.308 -12.984  -3.464  0.00  0.00     0.175 C 
BRANCH  30  31
ATOM     31  C   UNL d   1      26.221 -12.431  -4.552  0.00  0.00    -0.018 C 
ATOM     32  C   UNL d   1      26.199 -11.069  -4.912  0.00  0.00     0.010 C 
ATOM     33  C   UNL d   1      26.933 -10.590  -6.013  0.00  0.00     0.001 C 
ATOM     34  C   UNL d   1      27.751 -11.446  -6.744  0.00  0.00     0.002 C 
ATOM     35  C   UNL d   1      27.780 -12.797  -6.419  0.00  0.00     0.024 C 
ATOM     36  C   UNL d   1      26.959 -13.294  -5.395  0.00  0.00     0.042 C 
ATOM     37 CL   UNL d   1      26.835 -15.020  -5.298  0.00  0.00    -0.084 Cl
ENDBRANCH  30  31
ENDBRANCH  17  30
TORSDOF 5
ENDMDL
MODEL 9
REMARK VINA RESULT:    -7.617      3.514      7.638
REMARK INTER + INTRA:         -11.158
REMARK INTER:                  -9.108
REMARK INTRA:                  -2.049
REMARK CONF_INDEPENDENT:        1.492
REMARK UNBOUND:                -2.049
REMARK  5 active torsions:
REMARK  status: ('A' for Active; 'I' for Inactive)
REMARK       I    between atoms: N_1  and  C_2 
REMARK    1  A    between atoms: C_2  and  C_4 
REMARK    2  A    between atoms: C_4  and  C_5 
REMARK    3  A    between atoms: C_5  and  C_6 
REMARK    4  A    between atoms: N_22  and  C_23 
REMARK    5  A    between atoms: C_23  and  C_24 
ROOT
ATOM      1  C   UNL d   1      29.008 -13.922  -4.799  0.00  0.00     0.237 A 
ATOM      2  N   UNL d   1      28.891 -12.458  -4.851  0.00  0.00     0.113 N 
ATOM      3  C   UNL d   1      27.478 -12.092  -4.875  0.00  0.00     0.279 A 
ATOM      4  C   UNL d   1      27.213 -11.131  -3.669  0.00  0.00     0.267 C 
ATOM      5  O   UNL d   1      27.498 -11.318  -2.497  0.00  0.00    -0.270 OA
ATOM      6  N   UNL d   1      26.597 -10.000  -4.191  0.00  0.00    -0.324 N 
ATOM      7  C   UNL d   1      26.584 -10.019  -5.576  0.00  0.00     0.044 A 
ATOM      8  C   UNL d   1      26.154  -9.022  -6.422  0.00  0.00     0.032 A 
ATOM      9  C   UNL d   1      26.280  -9.242  -7.798  0.00  0.00     0.026 A 
ATOM     10  C   UNL d   1      26.815 -10.445  -8.290  0.00  0.00     0.034 A 
ATOM     11 CL   UNL d   1      26.951 -10.682  -9.989  0.00  0.00    -0.084 Cl
ATOM     12  C   UNL d   1      27.240 -11.449  -7.418  0.00  0.00     0.036 A 
ATOM     13  C   UNL d   1      27.123 -11.214  -6.053  0.00  0.00     0.019 A 
ATOM     14  C   UNL d   1      26.648 -13.352  -4.905  0.00  0.00     0.147 A 
ATOM     15  C   UNL d   1      25.753 -13.538  -3.725  0.00  0.00     0.235 C 
ATOM     16  O   UNL d   1      25.157 -12.660  -3.148  0.00  0.00    -0.272 OA
ATOM     17  N   UNL d   1      25.687 -14.871  -3.431  0.00  0.00    -0.283 N 
ATOM     18  C   UNL d   1      26.965 -15.346  -3.676  0.00  0.00     0.234 C 
ATOM     19  O   UNL d   1      27.574 -16.226  -3.088  0.00  0.00    -0.272 OA
ATOM     20  C   UNL d   1      27.586 -14.532  -4.851  0.00  0.00     0.128 A 
ATOM     21  H   UNL d   1      29.381 -12.022  -5.632  0.00  0.00     0.318 HD
ATOM     22  H   UNL d   1      26.279  -9.254  -3.593  0.00  0.00     0.169 HD
ENDROOT
BRANCH   1  23
ATOM     23  C   UNL d   1      29.882 -14.295  -6.022  0.00  0.00     0.045 C 
BRANCH  23  24
ATOM     24  C   UNL d   1      29.296 -13.803  -7.357  0.00  0.00     0.105 C 
BRANCH  24  25
ATOM     25  C   UNL d   1      30.036 -12.578  -7.853  0.00  0.00     0.215 C 
ATOM     26  N   UNL d   1      30.332 -12.575  -9.183  0.00  0.00    -0.370 N 
ATOM     27  H   UNL d   1      30.817 -11.765  -9.549  0.00  0.00     0.159 HD
ATOM     28  H   UNL d   1      30.083 -13.319  -9.820  0.00  0.00     0.159 HD
ATOM     29  O   UNL d   1      30.373 -11.642  -7.138  0.00  0.00    -0.274 OA
ENDBRANCH  24  25
ENDBRANCH  23  24
ENDBRANCH   1  23
BRANCH  17  30
ATOM     30  C   UNL d   1      24.647 -15.169  -2.402  0.00  0.00     0.175 C 
BRANCH  30  31
ATOM     31  C   UNL d   1      24.707 -16.402  -1.509  0.00  0.00    -0.018 C 
ATOM     32  C   UNL d   1      23.655 -17.337  -1.468  0.00  0.00     0.010 C 
ATOM     33  C   UNL d   1      23.646 -18.393  -0.537  0.00  0.00     0.001 C 
ATOM     34  C   UNL d   1      24.715 -18.575   0.335  0.00  0.00     0.002 C 
ATOM     35  C   UNL d   1      25.760 -17.659   0.326  0.00  0.00     0.024 C 
ATOM     36  C   UNL d   1      25.712 -16.542  -0.522  0.00  0.00     0.042 C 
ATOM     37 CL   UNL d   1      26.894 -15.312  -0.217  0.00  0.00    -0.084 Cl
ENDBRANCH  30  31
ENDBRANCH  17  30
TORSDOF 5
ENDMDL
