MODEL 1
REMARK VINA RESULT:   -14.951      0.000      0.000
REMARK INTER + INTRA:         -19.077
REMARK INTER:                 -17.040
REMARK INTRA:                  -2.038
REMARK CONF_INDEPENDENT:        2.088
REMARK UNBOUND:                -2.038
REMARK  7 active torsions:
REMARK  status: ('A' for Active; 'I' for Inactive)
REMARK    1  A    between atoms: C_12  and  N_13 
REMARK       I    between atoms: N_13  and  C_14 
REMARK    2  A    between atoms: C_14  and  C_16 
REMARK    3  A    between atoms: C_16  and  S_17 
REMARK    4  A    between atoms: S_17  and  C_18 
REMARK    5  A    between atoms: C_21  and  C_22 
REMARK    6  A    between atoms: C_22  and  C_23 
REMARK    7  A    between atoms: N_28  and  C_29 
ROOT
ATOM      1  C   UNL d   1      25.460 -14.792  -2.976  0.00  0.00     0.180 C 
ENDROOT
BRANCH   1   2
ATOM      2  C   UNL d   1      24.969 -15.382  -1.647  0.00  0.00     0.229 C 
ATOM      3  N   UNL d   1      23.862 -16.201  -1.725  0.00  0.00    -0.330 N 
ATOM      4  H   UNL d   1      23.425 -16.464  -2.596  0.00  0.00     0.165 HD
ATOM      5  O   UNL d   1      25.480 -15.108  -0.563  0.00  0.00    -0.273 OA
BRANCH   3   6
ATOM      6  C   UNL d   1      23.311 -16.713  -0.502  0.00  0.00     0.264 A 
ATOM      7  O   UNL d   1      24.270 -17.651   0.029  0.00  0.00    -0.353 OA
ATOM      8  C   UNL d   1      23.619 -18.921   0.243  0.00  0.00     0.152 A 
ATOM      9  C   UNL d   1      22.244 -18.742  -0.283  0.00  0.00    -0.017 A 
ATOM     10  C   UNL d   1      24.379 -19.990  -0.521  0.00  0.00     0.044 C 
ATOM     11  C   UNL d   1      22.099 -17.502  -0.732  0.00  0.00     0.066 A 
ATOM     12  C   UNL d   1      21.169 -19.757  -0.248  0.00  0.00     0.105 C 
ATOM     13  C   UNL d   1      20.829 -17.033  -1.250  0.00  0.00     0.266 C 
ATOM     14  N   UNL d   1      19.816 -17.963  -1.286  0.00  0.00    -0.287 N 
ATOM     15  O   UNL d   1      20.676 -15.877  -1.648  0.00  0.00    -0.266 OA
ATOM     16  N   UNL d   1      19.913 -19.321  -0.894  0.00  0.00    -0.229 NA
ATOM     17  H   UNL d   1      18.945 -17.643  -1.703  0.00  0.00     0.184 HD
ATOM     18  H   UNL d   1      19.143 -19.493  -0.240  0.00  0.00     0.147 HD
ATOM     19  C   UNL d   1      20.864 -20.092   1.211  0.00  0.00     0.033 C 
ENDBRANCH   3   6
ENDBRANCH   1   2
BRANCH   1  20
ATOM     20  S   UNL d   1      27.292 -15.012  -3.106  0.00  0.00    -0.118 SA
BRANCH  20  21
ATOM     21  C   UNL d   1      28.033 -13.842  -1.923  0.00  0.00     0.244 C 
ATOM     22  N   UNL d   1      27.027 -12.854  -1.532  0.00  0.00    -0.183 NA
ATOM     23  N   UNL d   1      26.962 -11.801  -2.402  0.00  0.00    -0.185 NA
ATOM     24  H   UNL d   1      26.126 -13.226  -1.243  0.00  0.00     0.152 HD
ATOM     25  C   UNL d   1      28.111 -11.785  -3.014  0.00  0.00     0.123 C 
ATOM     26  N   UNL d   1      28.937 -12.899  -2.594  0.00  0.00    -0.336 N 
BRANCH  25  27
ATOM     27  C   UNL d   1      28.552 -10.740  -4.020  0.00  0.00     0.126 C 
BRANCH  27  28
ATOM     28  C   UNL d   1      27.362 -10.180  -4.755  0.00  0.00    -0.011 A 
ATOM     29  C   UNL d   1      26.403 -10.896  -5.447  0.00  0.00     0.015 A 
ATOM     30  C   UNL d   1      25.512 -10.062  -6.174  0.00  0.00     0.008 A 
ATOM     31  C   UNL d   1      25.761  -8.726  -5.952  0.00  0.00     0.050 A 
ATOM     32  S   UNL d   1      27.076  -8.493  -4.874  0.00  0.00    -0.106 SA
ENDBRANCH  27  28
ENDBRANCH  25  27
BRANCH  26  33
ATOM     33  C   UNL d   1      30.400 -12.937  -2.619  0.00  0.00     0.088 C 
ATOM     34  C   UNL d   1      31.054 -12.218  -1.421  0.00  0.00     0.025 C 
ATOM     35  C   UNL d   1      32.582 -12.421  -1.414  0.00  0.00     0.002 C 
ATOM     36  C   UNL d   1      32.968 -13.899  -1.447  0.00  0.00     0.000 C 
ATOM     37  C   UNL d   1      32.333 -14.589  -2.647  0.00  0.00     0.002 C 
ATOM     38  C   UNL d   1      30.830 -14.391  -2.632  0.00  0.00     0.025 C 
ENDBRANCH  26  33
ENDBRANCH  20  21
ENDBRANCH   1  20
TORSDOF 7
ENDMDL
MODEL 2
REMARK VINA RESULT:   -13.303      2.099      2.668
REMARK INTER + INTRA:         -16.917
REMARK INTER:                 -15.391
REMARK INTRA:                  -1.526
REMARK CONF_INDEPENDENT:        2.088
REMARK UNBOUND:                -1.526
REMARK  7 active torsions:
REMARK  status: ('A' for Active; 'I' for Inactive)
REMARK    1  A    between atoms: C_12  and  N_13 
REMARK       I    between atoms: N_13  and  C_14 
REMARK    2  A    between atoms: C_14  and  C_16 
REMARK    3  A    between atoms: C_16  and  S_17 
REMARK    4  A    between atoms: S_17  and  C_18 
REMARK    5  A    between atoms: C_21  and  C_22 
REMARK    6  A    between atoms: C_22  and  C_23 
REMARK    7  A    between atoms: N_28  and  C_29 
ROOT
ATOM      1  C   UNL d   1      25.883 -15.058  -2.793  0.00  0.00     0.180 C 
ENDROOT
BRANCH   1   2
ATOM      2  C   UNL d   1      25.279 -15.551  -1.471  0.00  0.00     0.229 C 
ATOM      3  N   UNL d   1      24.386 -16.597  -1.570  0.00  0.00    -0.330 N 
ATOM      4  H   UNL d   1      24.176 -17.069  -2.437  0.00  0.00     0.165 HD
ATOM      5  O   UNL d   1      25.519 -15.022  -0.387  0.00  0.00    -0.273 OA
BRANCH   3   6
ATOM      6  C   UNL d   1      23.730 -17.042  -0.373  0.00  0.00     0.264 A 
ATOM      7  O   UNL d   1      24.484 -18.165   0.126  0.00  0.00    -0.353 OA
ATOM      8  C   UNL d   1      23.600 -19.295   0.282  0.00  0.00     0.152 A 
ATOM      9  C   UNL d   1      22.293 -18.837  -0.247  0.00  0.00    -0.017 A 
ATOM     10  C   UNL d   1      24.155 -20.459  -0.520  0.00  0.00     0.044 C 
ATOM     11  C   UNL d   1      22.394 -17.575  -0.645  0.00  0.00     0.066 A 
ATOM     12  C   UNL d   1      21.044 -19.629  -0.262  0.00  0.00     0.105 C 
ATOM     13  C   UNL d   1      21.243 -16.854  -1.153  0.00  0.00     0.266 C 
ATOM     14  N   UNL d   1      20.073 -17.571  -1.235  0.00  0.00    -0.287 N 
ATOM     15  O   UNL d   1      21.319 -15.675  -1.505  0.00  0.00    -0.266 OA
ATOM     16  N   UNL d   1      19.904 -18.938  -0.899  0.00  0.00    -0.229 NA
ATOM     17  H   UNL d   1      19.285 -17.075  -1.645  0.00  0.00     0.184 HD
ATOM     18  H   UNL d   1      19.106 -18.985  -0.258  0.00  0.00     0.147 HD
ATOM     19  C   UNL d   1      20.658 -19.957   1.179  0.00  0.00     0.033 C 
ENDBRANCH   3   6
ENDBRANCH   1   2
BRANCH   1  20
ATOM     20  S   UNL d   1      25.157 -13.411  -3.223  0.00  0.00    -0.118 SA
BRANCH  20  21
ATOM     21  C   UNL d   1      26.124 -12.171  -2.303  0.00  0.00     0.244 C 
ATOM     22  N   UNL d   1      25.990 -10.872  -2.963  0.00  0.00    -0.183 NA
ATOM     23  N   UNL d   1      26.896 -10.704  -3.974  0.00  0.00    -0.185 NA
ATOM     24  H   UNL d   1      25.042 -10.582  -3.187  0.00  0.00     0.152 HD
ATOM     25  C   UNL d   1      27.865 -11.534  -3.713  0.00  0.00     0.123 C 
ATOM     26  N   UNL d   1      27.564 -12.328  -2.540  0.00  0.00    -0.336 N 
BRANCH  25  27
ATOM     27  C   UNL d   1      29.150 -11.656  -4.509  0.00  0.00     0.126 C 
BRANCH  27  28
ATOM     28  C   UNL d   1      29.104 -12.868  -5.403  0.00  0.00    -0.011 A 
ATOM     29  C   UNL d   1      30.101 -13.309  -6.253  0.00  0.00     0.015 A 
ATOM     30  C   UNL d   1      29.680 -14.380  -7.087  0.00  0.00     0.008 A 
ATOM     31  C   UNL d   1      28.398 -14.786  -6.792  0.00  0.00     0.050 A 
ATOM     32  S   UNL d   1      27.713 -13.863  -5.519  0.00  0.00    -0.106 SA
ENDBRANCH  27  28
ENDBRANCH  25  27
BRANCH  26  33
ATOM     33  C   UNL d   1      28.548 -12.943  -1.648  0.00  0.00     0.088 C 
ATOM     34  C   UNL d   1      28.517 -12.376  -0.213  0.00  0.00     0.025 C 
ATOM     35  C   UNL d   1      29.460 -13.161   0.719  0.00  0.00     0.002 C 
ATOM     36  C   UNL d   1      29.162 -14.659   0.712  0.00  0.00     0.000 C 
ATOM     37  C   UNL d   1      29.219 -15.208  -0.707  0.00  0.00     0.002 C 
ATOM     38  C   UNL d   1      28.277 -14.434  -1.607  0.00  0.00     0.025 C 
ENDBRANCH  26  33
ENDBRANCH  20  21
ENDBRANCH   1  20
TORSDOF 7
ENDMDL
MODEL 3
REMARK VINA RESULT:   -13.276      1.425      2.055
REMARK INTER + INTRA:         -17.653
REMARK INTER:                 -15.364
REMARK INTRA:                  -2.289
REMARK CONF_INDEPENDENT:        2.088
REMARK UNBOUND:                -2.289
REMARK  7 active torsions:
REMARK  status: ('A' for Active; 'I' for Inactive)
REMARK    1  A    between atoms: C_12  and  N_13 
REMARK       I    between atoms: N_13  and  C_14 
REMARK    2  A    between atoms: C_14  and  C_16 
REMARK    3  A    between atoms: C_16  and  S_17 
REMARK    4  A    between atoms: S_17  and  C_18 
REMARK    5  A    between atoms: C_21  and  C_22 
REMARK    6  A    between atoms: C_22  and  C_23 
REMARK    7  A    between atoms: N_28  and  C_29 
ROOT
ATOM      1  C   UNL d   1      25.382 -14.905  -3.047  0.00  0.00     0.180 C 
ENDROOT
BRANCH   1   2
ATOM      2  C   UNL d   1      24.890 -15.467  -1.706  0.00  0.00     0.229 C 
ATOM      3  N   UNL d   1      23.808 -16.319  -1.772  0.00  0.00    -0.330 N 
ATOM      4  H   UNL d   1      23.389 -16.621  -2.639  0.00  0.00     0.165 HD
ATOM      5  O   UNL d   1      25.379 -15.145  -0.626  0.00  0.00    -0.273 OA
BRANCH   3   6
ATOM      6  C   UNL d   1      23.255 -16.807  -0.540  0.00  0.00     0.264 A 
ATOM      7  O   UNL d   1      24.181 -17.787  -0.025  0.00  0.00    -0.353 OA
ATOM      8  C   UNL d   1      23.478 -19.028   0.200  0.00  0.00     0.152 A 
ATOM      9  C   UNL d   1      22.104 -18.788  -0.304  0.00  0.00    -0.017 A 
ATOM     10  C   UNL d   1      24.178 -20.128  -0.578  0.00  0.00     0.044 C 
ATOM     11  C   UNL d   1      22.006 -17.542  -0.750  0.00  0.00     0.066 A 
ATOM     12  C   UNL d   1      20.986 -19.754  -0.251  0.00  0.00     0.105 C 
ATOM     13  C   UNL d   1      20.749 -17.018  -1.246  0.00  0.00     0.266 C 
ATOM     14  N   UNL d   1      19.696 -17.902  -1.266  0.00  0.00    -0.287 N 
ATOM     15  O   UNL d   1      20.640 -15.856  -1.642  0.00  0.00    -0.266 OA
ATOM     16  N   UNL d   1      19.740 -19.264  -0.876  0.00  0.00    -0.229 NA
ATOM     17  H   UNL d   1      18.833 -17.544  -1.668  0.00  0.00     0.184 HD
ATOM     18  H   UNL d   1      18.974 -19.402  -0.209  0.00  0.00     0.147 HD
ATOM     19  C   UNL d   1      20.691 -20.078   1.212  0.00  0.00     0.033 C 
ENDBRANCH   3   6
ENDBRANCH   1   2
BRANCH   1  20
ATOM     20  S   UNL d   1      27.199 -15.210  -3.211  0.00  0.00    -0.118 SA
BRANCH  20  21
ATOM     21  C   UNL d   1      28.018 -14.038  -2.081  0.00  0.00     0.244 C 
ATOM     22  N   UNL d   1      27.095 -12.946  -1.772  0.00  0.00    -0.183 NA
ATOM     23  N   UNL d   1      27.139 -11.946  -2.704  0.00  0.00    -0.185 NA
ATOM     24  H   UNL d   1      26.159 -13.220  -1.484  0.00  0.00     0.152 HD
ATOM     25  C   UNL d   1      28.297 -12.066  -3.287  0.00  0.00     0.123 C 
ATOM     26  N   UNL d   1      29.013 -13.220  -2.784  0.00  0.00    -0.336 N 
BRANCH  25  27
ATOM     27  C   UNL d   1      28.846 -11.125  -4.342  0.00  0.00     0.126 C 
BRANCH  27  28
ATOM     28  C   UNL d   1      29.908 -10.233  -3.753  0.00  0.00    -0.011 A 
ATOM     29  C   UNL d   1      29.784  -9.419  -2.642  0.00  0.00     0.015 A 
ATOM     30  C   UNL d   1      30.911  -8.574  -2.451  0.00  0.00     0.008 A 
ATOM     31  C   UNL d   1      31.903  -8.826  -3.371  0.00  0.00     0.050 A 
ATOM     32  S   UNL d   1      31.460 -10.073  -4.463  0.00  0.00    -0.106 SA
ENDBRANCH  27  28
ENDBRANCH  25  27
BRANCH  26  33
ATOM     33  C   UNL d   1      30.467 -13.385  -2.771  0.00  0.00     0.088 C 
ATOM     34  C   UNL d   1      31.160 -12.655  -1.601  0.00  0.00     0.025 C 
ATOM     35  C   UNL d   1      32.663 -12.988  -1.546  0.00  0.00     0.002 C 
ATOM     36  C   UNL d   1      32.919 -14.493  -1.485  0.00  0.00     0.000 C 
ATOM     37  C   UNL d   1      32.249 -15.197  -2.657  0.00  0.00     0.002 C 
ATOM     38  C   UNL d   1      30.769 -14.869  -2.690  0.00  0.00     0.025 C 
ENDBRANCH  26  33
ENDBRANCH  20  21
ENDBRANCH   1  20
TORSDOF 7
ENDMDL
