MODEL 1
REMARK VINA RESULT:   -31.842      0.000      0.000
REMARK INTER + INTRA:         -33.916
REMARK INTER:                 -33.333
REMARK INTRA:                  -0.583
REMARK CONF_INDEPENDENT:        1.492
REMARK UNBOUND:                -0.583
REMARK  5 active torsions:
REMARK  status: ('A' for Active; 'I' for Inactive)
REMARK       I    between atoms: C_2  and  N_3 
REMARK    1  A    between atoms: C_15  and  C_2 
REMARK    2  A    between atoms: N_3  and  C_4 
REMARK    3  A    between atoms: C_4  and  C_5 
REMARK    4  A    between atoms: C_5  and  C_6 
REMARK    5  A    between atoms: N_19  and  C_20 
ROOT
ATOM      1  C   UNL d   1      25.898 -15.158  -0.637  0.00  0.00     0.106 C 
ATOM      2  C   UNL d   1      26.459 -15.646  -1.975  0.00  0.00     0.017 C 
ATOM      3  C   UNL d   1      25.295 -16.137  -2.840  0.00  0.00     0.031 C 
ATOM      4  C   UNL d   1      24.426 -17.229  -2.171  0.00  0.00     0.275 C 
ATOM      5  N   UNL d   1      23.754 -16.779  -0.969  0.00  0.00     0.117 N 
ATOM      6  C   UNL d   1      24.808 -16.195  -0.035  0.00  0.00     0.289 C 
ENDROOT
BRANCH   1   7
ATOM      7  C   UNL d   1      27.016 -14.848   0.390  0.00  0.00     0.223 C 
ATOM      8  O   UNL d   1      27.992 -15.583   0.570  0.00  0.00    -0.273 OA
ATOM      9  N   UNL d   1      26.870 -13.676   1.099  0.00  0.00    -0.360 N 
ATOM     10  H   UNL d   1      25.969 -13.221   1.121  0.00  0.00     0.162 HD
BRANCH   9  11
ATOM     11  C   UNL d   1      27.932 -13.189   1.943  0.00  0.00     0.127 C 
BRANCH  11  12
ATOM     12  C   UNL d   1      27.430 -12.594   3.260  0.00  0.00     0.056 C 
BRANCH  12  13
ATOM     13  C   UNL d   1      27.909 -13.326   4.477  0.00  0.00    -0.048 A 
ATOM     14  C   UNL d   1      28.201 -12.836   5.687  0.00  0.00    -0.006 A 
ATOM     15  C   UNL d   1      28.204 -11.533   6.273  0.00  0.00     0.014 A 
ATOM     16  C   UNL d   1      28.611 -13.999   6.492  0.00  0.00     0.038 A 
ATOM     17  C   UNL d   1      28.533 -11.392   7.559  0.00  0.00     0.001 A 
ATOM     18  C   UNL d   1      28.939 -12.523   8.366  0.00  0.00     0.002 A 
ATOM     19  C   UNL d   1      28.999 -13.787   7.892  0.00  0.00     0.030 A 
ATOM     20  N   UNL d   1      28.573 -15.103   5.805  0.00  0.00    -0.385 N 
ATOM     21  C   UNL d   1      28.113 -14.817   4.434  0.00  0.00     0.155 A 
ATOM     22  H   UNL d   1      28.829 -15.999   6.189  0.00  0.00     0.160 HD
ENDBRANCH  12  13
ENDBRANCH  11  12
ENDBRANCH   9  11
ENDBRANCH   1   7
BRANCH   5  23
ATOM     23  C   UNL d   1      22.644 -17.753  -0.441  0.00  0.00     0.370 C 
ATOM     24  N   UNL d   1      22.367 -18.543   0.964  0.00  0.00    -0.252 NA
ATOM     25  C   UNL d   1      21.324 -19.697   0.591  0.00  0.00     0.046 C 
ATOM     26  H   UNL d   1      23.167 -19.121   1.238  0.00  0.00     0.130 HD
ATOM     27  C   UNL d   1      20.216 -20.030   1.415  0.00  0.00     0.028 C 
ATOM     28  C   UNL d   1      21.102 -19.646  -0.776  0.00  0.00     0.117 C 
ATOM     29  C   UNL d   1      18.937 -19.773   0.905  0.00  0.00     0.021 C 
ATOM     30  C   UNL d   1      18.856 -19.322  -0.402  0.00  0.00     0.118 C 
ATOM     31  N   UNL d   1      19.897 -19.318  -1.270  0.00  0.00    -0.252 NA
ATOM     32  S   UNL d   1      22.555 -19.126  -1.634  0.00  0.00    -0.057 SA
ENDBRANCH   5  23
TORSDOF 5
ENDMDL
MODEL 2
REMARK VINA RESULT:   -31.363      0.929      1.428
REMARK INTER + INTRA:         -33.400
REMARK INTER:                 -32.854
REMARK INTRA:                  -0.546
REMARK CONF_INDEPENDENT:        1.492
REMARK UNBOUND:                -0.546
REMARK  5 active torsions:
REMARK  status: ('A' for Active; 'I' for Inactive)
REMARK       I    between atoms: C_2  and  N_3 
REMARK    1  A    between atoms: C_15  and  C_2 
REMARK    2  A    between atoms: N_3  and  C_4 
REMARK    3  A    between atoms: C_4  and  C_5 
REMARK    4  A    between atoms: C_5  and  C_6 
REMARK    5  A    between atoms: N_19  and  C_20 
ROOT
ATOM      1  C   UNL d   1      25.936 -15.191  -0.806  0.00  0.00     0.106 C 
ATOM      2  C   UNL d   1      26.546 -15.797  -2.072  0.00  0.00     0.017 C 
ATOM      3  C   UNL d   1      25.415 -16.365  -2.934  0.00  0.00     0.031 C 
ATOM      4  C   UNL d   1      24.517 -17.392  -2.202  0.00  0.00     0.275 C 
ATOM      5  N   UNL d   1      23.801 -16.836  -1.073  0.00  0.00     0.117 N 
ATOM      6  C   UNL d   1      24.821 -16.170  -0.155  0.00  0.00     0.289 C 
ENDROOT
BRANCH   1   7
ATOM      7  C   UNL d   1      27.015 -14.790   0.231  0.00  0.00     0.223 C 
ATOM      8  O   UNL d   1      28.020 -15.470   0.460  0.00  0.00    -0.273 OA
ATOM      9  N   UNL d   1      26.799 -13.599   0.890  0.00  0.00    -0.360 N 
ATOM     10  H   UNL d   1      25.878 -13.186   0.875  0.00  0.00     0.162 HD
BRANCH   9  11
ATOM     11  C   UNL d   1      27.818 -13.030   1.736  0.00  0.00     0.127 C 
BRANCH  11  12
ATOM     12  C   UNL d   1      27.940 -13.733   3.089  0.00  0.00     0.056 C 
BRANCH  12  13
ATOM     13  C   UNL d   1      27.963 -12.796   4.259  0.00  0.00    -0.048 A 
ATOM     14  C   UNL d   1      28.294 -13.053   5.529  0.00  0.00    -0.006 A 
ATOM     15  C   UNL d   1      28.704 -14.217   6.249  0.00  0.00     0.014 A 
ATOM     16  C   UNL d   1      28.146 -11.771   6.239  0.00  0.00     0.038 A 
ATOM     17  C   UNL d   1      28.994 -14.119   7.548  0.00  0.00     0.001 A 
ATOM     18  C   UNL d   1      28.854 -12.867   8.263  0.00  0.00     0.002 A 
ATOM     19  C   UNL d   1      28.442 -11.722   7.676  0.00  0.00     0.030 A 
ATOM     20  N   UNL d   1      27.746 -10.821   5.447  0.00  0.00    -0.385 N 
ATOM     21  C   UNL d   1      27.585 -11.350   4.080  0.00  0.00     0.155 A 
ATOM     22  H   UNL d   1      27.581  -9.877   5.759  0.00  0.00     0.160 HD
ENDBRANCH  12  13
ENDBRANCH  11  12
ENDBRANCH   9  11
ENDBRANCH   1   7
BRANCH   5  23
ATOM     23  C   UNL d   1      22.670 -17.759  -0.501  0.00  0.00     0.370 C 
ATOM     24  N   UNL d   1      22.364 -18.461   0.944  0.00  0.00    -0.252 NA
ATOM     25  C   UNL d   1      21.305 -19.617   0.627  0.00  0.00     0.046 C 
ATOM     26  H   UNL d   1      23.151 -19.035   1.260  0.00  0.00     0.130 HD
ATOM     27  C   UNL d   1      20.183 -19.884   1.456  0.00  0.00     0.028 C 
ATOM     28  C   UNL d   1      21.098 -19.643  -0.744  0.00  0.00     0.117 C 
ATOM     29  C   UNL d   1      18.914 -19.636   0.917  0.00  0.00     0.021 C 
ATOM     30  C   UNL d   1      18.855 -19.261  -0.416  0.00  0.00     0.118 C 
ATOM     31  N   UNL d   1      19.905 -19.325  -1.270  0.00  0.00    -0.252 NA
ATOM     32  S   UNL d   1      22.570 -19.198  -1.614  0.00  0.00    -0.057 SA
ENDBRANCH   5  23
TORSDOF 5
ENDMDL
MODEL 3
REMARK VINA RESULT:   -30.666      1.526      2.020
REMARK INTER + INTRA:         -32.842
REMARK INTER:                 -32.157
REMARK INTRA:                  -0.684
REMARK CONF_INDEPENDENT:        1.492
REMARK UNBOUND:                -0.684
REMARK  5 active torsions:
REMARK  status: ('A' for Active; 'I' for Inactive)
REMARK       I    between atoms: C_2  and  N_3 
REMARK    1  A    between atoms: C_15  and  C_2 
REMARK    2  A    between atoms: N_3  and  C_4 
REMARK    3  A    between atoms: C_4  and  C_5 
REMARK    4  A    between atoms: C_5  and  C_6 
REMARK    5  A    between atoms: N_19  and  C_20 
ROOT
ATOM      1  C   UNL d   1      25.771 -14.970  -0.916  0.00  0.00     0.106 C 
ATOM      2  C   UNL d   1      26.510 -15.707  -2.036  0.00  0.00     0.017 C 
ATOM      3  C   UNL d   1      25.480 -16.442  -2.898  0.00  0.00     0.031 C 
ATOM      4  C   UNL d   1      24.566 -17.408  -2.105  0.00  0.00     0.275 C 
ATOM      5  N   UNL d   1      23.736 -16.744  -1.122  0.00  0.00     0.117 N 
ATOM      6  C   UNL d   1      24.646 -15.910  -0.227  0.00  0.00     0.289 C 
ENDROOT
BRANCH   1   7
ATOM      7  C   UNL d   1      26.742 -14.379   0.138  0.00  0.00     0.223 C 
ATOM      8  O   UNL d   1      27.509 -15.071   0.814  0.00  0.00    -0.273 OA
ATOM      9  N   UNL d   1      26.715 -13.008   0.274  0.00  0.00    -0.360 N 
ATOM     10  H   UNL d   1      25.931 -12.490  -0.096  0.00  0.00     0.162 HD
BRANCH   9  11
ATOM     11  C   UNL d   1      27.697 -12.330   1.082  0.00  0.00     0.127 C 
BRANCH  11  12
ATOM     12  C   UNL d   1      29.120 -12.842   0.856  0.00  0.00     0.056 C 
BRANCH  12  13
ATOM     13  C   UNL d   1      29.793 -13.334   2.103  0.00  0.00    -0.048 A 
ATOM     14  C   UNL d   1      29.236 -13.739   3.249  0.00  0.00    -0.006 A 
ATOM     15  C   UNL d   1      27.897 -13.845   3.737  0.00  0.00     0.014 A 
ATOM     16  C   UNL d   1      30.361 -14.117   4.120  0.00  0.00     0.038 A 
ATOM     17  C   UNL d   1      27.680 -14.331   4.962  0.00  0.00     0.001 A 
ATOM     18  C   UNL d   1      28.775 -14.708   5.831  0.00  0.00     0.002 A 
ATOM     19  C   UNL d   1      30.074 -14.613   5.471  0.00  0.00     0.030 A 
ATOM     20  N   UNL d   1      31.509 -13.942   3.533  0.00  0.00    -0.385 N 
ATOM     21  C   UNL d   1      31.294 -13.426   2.169  0.00  0.00     0.155 A 
ATOM     22  H   UNL d   1      32.391 -14.139   3.980  0.00  0.00     0.160 HD
ENDBRANCH  12  13
ENDBRANCH  11  12
ENDBRANCH   9  11
ENDBRANCH   1   7
BRANCH   5  23
ATOM     23  C   UNL d   1      22.598 -17.640  -0.521  0.00  0.00     0.370 C 
ATOM     24  N   UNL d   1      22.245 -18.225   0.965  0.00  0.00    -0.252 NA
ATOM     25  C   UNL d   1      21.221 -19.426   0.705  0.00  0.00     0.046 C 
ATOM     26  H   UNL d   1      23.028 -18.753   1.360  0.00  0.00     0.130 HD
ATOM     27  C   UNL d   1      20.070 -19.646   1.508  0.00  0.00     0.028 C 
ATOM     28  C   UNL d   1      21.072 -19.571  -0.665  0.00  0.00     0.117 C 
ATOM     29  C   UNL d   1      18.820 -19.471   0.900  0.00  0.00     0.021 C 
ATOM     30  C   UNL d   1      18.811 -19.211  -0.461  0.00  0.00     0.118 C 
ATOM     31  N   UNL d   1      19.896 -19.324  -1.264  0.00  0.00    -0.252 NA
ATOM     32  S   UNL d   1      22.571 -19.169  -1.510  0.00  0.00    -0.057 SA
ENDBRANCH   5  23
TORSDOF 5
ENDMDL
MODEL 4
REMARK VINA RESULT:   -30.287      1.650      2.942
REMARK INTER + INTRA:         -32.349
REMARK INTER:                 -31.778
REMARK INTRA:                  -0.571
REMARK CONF_INDEPENDENT:        1.492
REMARK UNBOUND:                -0.571
REMARK  5 active torsions:
REMARK  status: ('A' for Active; 'I' for Inactive)
REMARK       I    between atoms: C_2  and  N_3 
REMARK    1  A    between atoms: C_15  and  C_2 
REMARK    2  A    between atoms: N_3  and  C_4 
REMARK    3  A    between atoms: C_4  and  C_5 
REMARK    4  A    between atoms: C_5  and  C_6 
REMARK    5  A    between atoms: N_19  and  C_20 
ROOT
ATOM      1  C   UNL d   1      26.069 -15.405  -0.486  0.00  0.00     0.106 C 
ATOM      2  C   UNL d   1      26.423 -15.660  -1.954  0.00  0.00     0.017 C 
ATOM      3  C   UNL d   1      25.126 -15.888  -2.734  0.00  0.00     0.031 C 
ATOM      4  C   UNL d   1      24.240 -17.026  -2.169  0.00  0.00     0.275 C 
ATOM      5  N   UNL d   1      23.758 -16.773  -0.828  0.00  0.00     0.117 N 
ATOM      6  C   UNL d   1      24.963 -16.459   0.051  0.00  0.00     0.289 C 
ENDROOT
BRANCH   1   7
ATOM      7  C   UNL d   1      27.324 -15.382   0.424  0.00  0.00     0.223 C 
ATOM      8  O   UNL d   1      28.218 -16.231   0.365  0.00  0.00    -0.273 OA
ATOM      9  N   UNL d   1      27.398 -14.332   1.314  0.00  0.00    -0.360 N 
ATOM     10  H   UNL d   1      26.567 -13.798   1.519  0.00  0.00     0.162 HD
BRANCH   9  11
ATOM     11  C   UNL d   1      28.598 -14.100   2.078  0.00  0.00     0.127 C 
BRANCH  11  12
ATOM     12  C   UNL d   1      28.325 -13.823   3.558  0.00  0.00     0.056 C 
BRANCH  12  13
ATOM     13  C   UNL d   1      27.911 -12.410   3.843  0.00  0.00    -0.048 A 
ATOM     14  C   UNL d   1      27.576 -11.446   2.980  0.00  0.00    -0.006 A 
ATOM     15  C   UNL d   1      27.501 -11.349   1.556  0.00  0.00     0.014 A 
ATOM     16  C   UNL d   1      27.252 -10.273   3.808  0.00  0.00     0.038 A 
ATOM     17  C   UNL d   1      27.091 -10.209   0.995  0.00  0.00     0.001 A 
ATOM     18  C   UNL d   1      26.767  -9.046   1.794  0.00  0.00     0.002 A 
ATOM     19  C   UNL d   1      26.840  -9.031   3.143  0.00  0.00     0.030 A 
ATOM     20  N   UNL d   1      27.391 -10.521   5.077  0.00  0.00    -0.385 N 
ATOM     21  C   UNL d   1      27.822 -11.919   5.264  0.00  0.00     0.155 A 
ATOM     22  H   UNL d   1      27.221  -9.834   5.794  0.00  0.00     0.160 HD
ENDBRANCH  12  13
ENDBRANCH  11  12
ENDBRANCH   9  11
ENDBRANCH   1   7
BRANCH   5  23
ATOM     23  C   UNL d   1      22.630 -17.750  -0.347  0.00  0.00     0.370 C 
ATOM     24  N   UNL d   1      22.319 -18.577   1.029  0.00  0.00    -0.252 NA
ATOM     25  C   UNL d   1      21.273 -19.710   0.605  0.00  0.00     0.046 C 
ATOM     26  H   UNL d   1      23.109 -19.170   1.301  0.00  0.00     0.130 HD
ATOM     27  C   UNL d   1      20.146 -20.055   1.399  0.00  0.00     0.028 C 
ATOM     28  C   UNL d   1      21.075 -19.617  -0.764  0.00  0.00     0.117 C 
ATOM     29  C   UNL d   1      18.879 -19.771   0.874  0.00  0.00     0.021 C 
ATOM     30  C   UNL d   1      18.827 -19.282  -0.421  0.00  0.00     0.118 C 
ATOM     31  N   UNL d   1      19.883 -19.264  -1.270  0.00  0.00    -0.252 NA
ATOM     32  S   UNL d   1      22.549 -19.088  -1.581  0.00  0.00    -0.057 SA
ENDBRANCH   5  23
TORSDOF 5
ENDMDL
MODEL 5
REMARK VINA RESULT:   -30.132      4.892      7.596
REMARK INTER + INTRA:         -32.507
REMARK INTER:                 -31.624
REMARK INTRA:                  -0.883
REMARK CONF_INDEPENDENT:        1.492
REMARK UNBOUND:                -0.883
REMARK  5 active torsions:
REMARK  status: ('A' for Active; 'I' for Inactive)
REMARK       I    between atoms: C_2  and  N_3 
REMARK    1  A    between atoms: C_15  and  C_2 
REMARK    2  A    between atoms: N_3  and  C_4 
REMARK    3  A    between atoms: C_4  and  C_5 
REMARK    4  A    between atoms: C_5  and  C_6 
REMARK    5  A    between atoms: N_19  and  C_20 
ROOT
ATOM      1  C   UNL d   1      25.272 -15.305  -2.498  0.00  0.00     0.106 C 
ATOM      2  C   UNL d   1      26.202 -14.933  -1.340  0.00  0.00     0.017 C 
ATOM      3  C   UNL d   1      26.301 -16.131  -0.392  0.00  0.00     0.031 C 
ATOM      4  C   UNL d   1      24.935 -16.638   0.132  0.00  0.00     0.275 C 
ATOM      5  N   UNL d   1      24.063 -17.135  -0.911  0.00  0.00     0.117 N 
ATOM      6  C   UNL d   1      23.932 -16.047  -1.970  0.00  0.00     0.289 C 
ENDROOT
BRANCH   1   7
ATOM      7  C   UNL d   1      24.933 -14.085  -3.392  0.00  0.00     0.223 C 
ATOM      8  O   UNL d   1      23.785 -13.813  -3.758  0.00  0.00    -0.273 OA
ATOM      9  N   UNL d   1      26.001 -13.294  -3.755  0.00  0.00    -0.360 N 
ATOM     10  H   UNL d   1      26.939 -13.655  -3.659  0.00  0.00     0.162 HD
BRANCH   9  11
ATOM     11  C   UNL d   1      25.790 -12.036  -4.425  0.00  0.00     0.127 C 
BRANCH  11  12
ATOM     12  C   UNL d   1      27.067 -11.458  -5.038  0.00  0.00     0.056 C 
BRANCH  12  13
ATOM     13  C   UNL d   1      27.807 -12.422  -5.918  0.00  0.00    -0.048 A 
ATOM     14  C   UNL d   1      28.554 -13.472  -5.564  0.00  0.00    -0.006 A 
ATOM     15  C   UNL d   1      28.950 -14.055  -4.320  0.00  0.00     0.014 A 
ATOM     16  C   UNL d   1      29.028 -14.060  -6.828  0.00  0.00     0.038 A 
ATOM     17  C   UNL d   1      29.705 -15.156  -4.322  0.00  0.00     0.001 A 
ATOM     18  C   UNL d   1      30.180 -15.748  -5.555  0.00  0.00     0.002 A 
ATOM     19  C   UNL d   1      29.887 -15.249  -6.776  0.00  0.00     0.030 A 
ATOM     20  N   UNL d   1      28.597 -13.399  -7.862  0.00  0.00    -0.385 N 
ATOM     21  C   UNL d   1      27.756 -12.273  -7.415  0.00  0.00     0.155 A 
ATOM     22  H   UNL d   1      28.827 -13.650  -8.810  0.00  0.00     0.160 HD
ENDBRANCH  12  13
ENDBRANCH  11  12
ENDBRANCH   9  11
ENDBRANCH   1   7
BRANCH   5  23
ATOM     23  C   UNL d   1      22.810 -17.922  -0.390  0.00  0.00     0.370 C 
ATOM     24  N   UNL d   1      22.375 -18.601   1.033  0.00  0.00    -0.252 NA
ATOM     25  C   UNL d   1      21.196 -19.617   0.665  0.00  0.00     0.046 C 
ATOM     26  H   UNL d   1      23.077 -19.270   1.363  0.00  0.00     0.130 HD
ATOM     27  C   UNL d   1      20.023 -19.756   1.454  0.00  0.00     0.028 C 
ATOM     28  C   UNL d   1      21.032 -19.598  -0.712  0.00  0.00     0.117 C 
ATOM     29  C   UNL d   1      18.811 -19.349   0.881  0.00  0.00     0.021 C 
ATOM     30  C   UNL d   1      18.842 -18.952  -0.446  0.00  0.00     0.118 C 
ATOM     31  N   UNL d   1      19.903 -19.131  -1.269  0.00  0.00    -0.252 NA
ATOM     32  S   UNL d   1      22.573 -19.324  -1.529  0.00  0.00    -0.057 SA
ENDBRANCH   5  23
TORSDOF 5
ENDMDL
MODEL 6
REMARK VINA RESULT:   -30.057      4.902      8.744
REMARK INTER + INTRA:         -32.194
REMARK INTER:                 -31.549
REMARK INTRA:                  -0.645
REMARK CONF_INDEPENDENT:        1.492
REMARK UNBOUND:                -0.645
REMARK  5 active torsions:
REMARK  status: ('A' for Active; 'I' for Inactive)
REMARK       I    between atoms: C_2  and  N_3 
REMARK    1  A    between atoms: C_15  and  C_2 
REMARK    2  A    between atoms: N_3  and  C_4 
REMARK    3  A    between atoms: C_4  and  C_5 
REMARK    4  A    between atoms: C_5  and  C_6 
REMARK    5  A    between atoms: N_19  and  C_20 
ROOT
ATOM      1  C   UNL d   1      25.229 -15.296  -2.556  0.00  0.00     0.106 C 
ATOM      2  C   UNL d   1      26.145 -14.882  -1.401  0.00  0.00     0.017 C 
ATOM      3  C   UNL d   1      26.255 -16.055  -0.424  0.00  0.00     0.031 C 
ATOM      4  C   UNL d   1      24.894 -16.569   0.103  0.00  0.00     0.275 C 
ATOM      5  N   UNL d   1      24.036 -17.106  -0.934  0.00  0.00     0.117 N 
ATOM      6  C   UNL d   1      23.897 -16.045  -2.020  0.00  0.00     0.289 C 
ENDROOT
BRANCH   1   7
ATOM      7  C   UNL d   1      24.877 -14.103  -3.482  0.00  0.00     0.223 C 
ATOM      8  O   UNL d   1      23.737 -13.885  -3.901  0.00  0.00    -0.273 OA
ATOM      9  N   UNL d   1      25.926 -13.271  -3.810  0.00  0.00    -0.360 N 
ATOM     10  H   UNL d   1      26.873 -13.590  -3.668  0.00  0.00     0.162 HD
BRANCH   9  11
ATOM     11  C   UNL d   1      25.691 -12.032  -4.507  0.00  0.00     0.127 C 
BRANCH  11  12
ATOM     12  C   UNL d   1      26.979 -11.341  -4.957  0.00  0.00     0.056 C 
BRANCH  12  13
ATOM     13  C   UNL d   1      27.540 -11.879  -6.240  0.00  0.00    -0.048 A 
ATOM     14  C   UNL d   1      27.304 -11.472  -7.491  0.00  0.00    -0.006 A 
ATOM     15  C   UNL d   1      26.483 -10.465  -8.087  0.00  0.00     0.014 A 
ATOM     16  C   UNL d   1      28.122 -12.347  -8.349  0.00  0.00     0.038 A 
ATOM     17  C   UNL d   1      26.503 -10.299  -9.411  0.00  0.00     0.001 A 
ATOM     18  C   UNL d   1      27.301 -11.150 -10.270  0.00  0.00     0.002 A 
ATOM     19  C   UNL d   1      28.083 -12.148  -9.802  0.00  0.00     0.030 A 
ATOM     20  N   UNL d   1      28.791 -13.219  -7.654  0.00  0.00    -0.385 N 
ATOM     21  C   UNL d   1      28.512 -13.029  -6.219  0.00  0.00     0.155 A 
ATOM     22  H   UNL d   1      29.397 -13.907  -8.072  0.00  0.00     0.160 HD
ENDBRANCH  12  13
ENDBRANCH  11  12
ENDBRANCH   9  11
ENDBRANCH   1   7
BRANCH   5  23
ATOM     23  C   UNL d   1      22.792 -17.899  -0.402  0.00  0.00     0.370 C 
ATOM     24  N   UNL d   1      22.361 -18.556   1.032  0.00  0.00    -0.252 NA
ATOM     25  C   UNL d   1      21.196 -19.594   0.679  0.00  0.00     0.046 C 
ATOM     26  H   UNL d   1      23.070 -19.209   1.378  0.00  0.00     0.130 HD
ATOM     27  C   UNL d   1      20.022 -19.733   1.466  0.00  0.00     0.028 C 
ATOM     28  C   UNL d   1      21.037 -19.604  -0.699  0.00  0.00     0.117 C 
ATOM     29  C   UNL d   1      18.808 -19.354   0.881  0.00  0.00     0.021 C 
ATOM     30  C   UNL d   1      18.838 -18.982  -0.453  0.00  0.00     0.118 C 
ATOM     31  N   UNL d   1      19.905 -19.163  -1.268  0.00  0.00    -0.252 NA
ATOM     32  S   UNL d   1      22.578 -19.325  -1.515  0.00  0.00    -0.057 SA
ENDBRANCH   5  23
TORSDOF 5
ENDMDL
MODEL 7
REMARK VINA RESULT:   -29.801      4.717      7.807
REMARK INTER + INTRA:         -31.969
REMARK INTER:                 -31.293
REMARK INTRA:                  -0.676
REMARK CONF_INDEPENDENT:        1.492
REMARK UNBOUND:                -0.676
REMARK  5 active torsions:
REMARK  status: ('A' for Active; 'I' for Inactive)
REMARK       I    between atoms: C_2  and  N_3 
REMARK    1  A    between atoms: C_15  and  C_2 
REMARK    2  A    between atoms: N_3  and  C_4 
REMARK    3  A    between atoms: C_4  and  C_5 
REMARK    4  A    between atoms: C_5  and  C_6 
REMARK    5  A    between atoms: N_19  and  C_20 
ROOT
ATOM      1  C   UNL d   1      26.432 -15.824  -0.747  0.00  0.00     0.106 C 
ATOM      2  C   UNL d   1      26.181 -15.230  -2.136  0.00  0.00     0.017 C 
ATOM      3  C   UNL d   1      24.693 -14.893  -2.259  0.00  0.00     0.031 C 
ATOM      4  C   UNL d   1      23.749 -16.089  -1.987  0.00  0.00     0.275 C 
ATOM      5  N   UNL d   1      23.843 -16.606  -0.637  0.00  0.00     0.117 N 
ATOM      6  C   UNL d   1      25.307 -16.922  -0.358  0.00  0.00     0.289 C 
ENDROOT
BRANCH   1   7
ATOM      7  C   UNL d   1      27.864 -16.400  -0.606  0.00  0.00     0.223 C 
ATOM      8  O   UNL d   1      28.332 -16.796   0.466  0.00  0.00    -0.273 OA
ATOM      9  N   UNL d   1      28.601 -16.464  -1.769  0.00  0.00    -0.360 N 
ATOM     10  H   UNL d   1      28.308 -15.924  -2.570  0.00  0.00     0.162 HD
BRANCH   9  11
ATOM     11  C   UNL d   1      29.869 -17.148  -1.800  0.00  0.00     0.127 C 
BRANCH  11  12
ATOM     12  C   UNL d   1      30.871 -16.516  -2.767  0.00  0.00     0.056 C 
BRANCH  12  13
ATOM     13  C   UNL d   1      30.696 -16.950  -4.192  0.00  0.00    -0.048 A 
ATOM     14  C   UNL d   1      30.751 -18.184  -4.702  0.00  0.00    -0.006 A 
ATOM     15  C   UNL d   1      30.999 -19.486  -4.168  0.00  0.00     0.014 A 
ATOM     16  C   UNL d   1      30.500 -18.023  -6.145  0.00  0.00     0.038 A 
ATOM     17  C   UNL d   1      30.952 -20.548  -4.977  0.00  0.00     0.001 A 
ATOM     18  C   UNL d   1      30.706 -20.409  -6.397  0.00  0.00     0.002 A 
ATOM     19  C   UNL d   1      30.493 -19.217  -6.998  0.00  0.00     0.030 A 
ATOM     20  N   UNL d   1      30.315 -16.777  -6.469  0.00  0.00    -0.385 N 
ATOM     21  C   UNL d   1      30.409 -15.933  -5.264  0.00  0.00     0.155 A 
ATOM     22  H   UNL d   1      30.138 -16.475  -7.414  0.00  0.00     0.160 HD
ENDBRANCH  12  13
ENDBRANCH  11  12
ENDBRANCH   9  11
ENDBRANCH   1   7
BRANCH   5  23
ATOM     23  C   UNL d   1      22.702 -17.607  -0.244  0.00  0.00     0.370 C 
ATOM     24  N   UNL d   1      22.398 -18.575   1.039  0.00  0.00    -0.252 NA
ATOM     25  C   UNL d   1      21.319 -19.632   0.515  0.00  0.00     0.046 C 
ATOM     26  H   UNL d   1      23.179 -19.211   1.227  0.00  0.00     0.130 HD
ATOM     27  C   UNL d   1      20.200 -20.040   1.289  0.00  0.00     0.028 C 
ATOM     28  C   UNL d   1      21.098 -19.385  -0.831  0.00  0.00     0.117 C 
ATOM     29  C   UNL d   1      18.930 -19.674   0.825  0.00  0.00     0.021 C 
ATOM     30  C   UNL d   1      18.865 -19.044  -0.407  0.00  0.00     0.118 C 
ATOM     31  N   UNL d   1      19.905 -18.953  -1.270  0.00  0.00    -0.252 NA
ATOM     32  S   UNL d   1      22.568 -18.798  -1.616  0.00  0.00    -0.057 SA
ENDBRANCH   5  23
TORSDOF 5
ENDMDL
MODEL 8
REMARK VINA RESULT:   -29.476      3.160      5.522
REMARK INTER + INTRA:         -32.019
REMARK INTER:                 -30.968
REMARK INTRA:                  -1.051
REMARK CONF_INDEPENDENT:        1.492
REMARK UNBOUND:                -1.051
REMARK  5 active torsions:
REMARK  status: ('A' for Active; 'I' for Inactive)
REMARK       I    between atoms: C_2  and  N_3 
REMARK    1  A    between atoms: C_15  and  C_2 
REMARK    2  A    between atoms: N_3  and  C_4 
REMARK    3  A    between atoms: C_4  and  C_5 
REMARK    4  A    between atoms: C_5  and  C_6 
REMARK    5  A    between atoms: N_19  and  C_20 
ROOT
ATOM      1  C   UNL d   1      25.755 -14.969  -0.801  0.00  0.00     0.106 C 
ATOM      2  C   UNL d   1      26.470 -15.610  -1.994  0.00  0.00     0.017 C 
ATOM      3  C   UNL d   1      25.424 -16.297  -2.876  0.00  0.00     0.031 C 
ATOM      4  C   UNL d   1      24.550 -17.333  -2.129  0.00  0.00     0.275 C 
ATOM      5  N   UNL d   1      23.741 -16.757  -1.075  0.00  0.00     0.117 N 
ATOM      6  C   UNL d   1      24.666 -15.976  -0.150  0.00  0.00     0.289 C 
ENDROOT
BRANCH   1   7
ATOM      7  C   UNL d   1      26.750 -14.440   0.263  0.00  0.00     0.223 C 
ATOM      8  O   UNL d   1      27.476 -15.178   0.937  0.00  0.00    -0.273 OA
ATOM      9  N   UNL d   1      26.795 -13.071   0.412  0.00  0.00    -0.360 N 
ATOM     10  H   UNL d   1      26.041 -12.509   0.044  0.00  0.00     0.162 HD
BRANCH   9  11
ATOM     11  C   UNL d   1      27.807 -12.453   1.232  0.00  0.00     0.127 C 
BRANCH  11  12
ATOM     12  C   UNL d   1      28.421 -11.207   0.592  0.00  0.00     0.056 C 
BRANCH  12  13
ATOM     13  C   UNL d   1      27.665 -10.701  -0.600  0.00  0.00    -0.048 A 
ATOM     14  C   UNL d   1      27.442 -11.312  -1.769  0.00  0.00    -0.006 A 
ATOM     15  C   UNL d   1      27.811 -12.571  -2.336  0.00  0.00     0.014 A 
ATOM     16  C   UNL d   1      26.642 -10.362  -2.561  0.00  0.00     0.038 A 
ATOM     17  C   UNL d   1      27.385 -12.891  -3.560  0.00  0.00     0.001 A 
ATOM     18  C   UNL d   1      26.598 -11.969  -4.353  0.00  0.00     0.002 A 
ATOM     19  C   UNL d   1      26.228 -10.745  -3.916  0.00  0.00     0.030 A 
ATOM     20  N   UNL d   1      26.413  -9.260  -1.909  0.00  0.00    -0.385 N 
ATOM     21  C   UNL d   1      27.029  -9.337  -0.572  0.00  0.00     0.155 A 
ATOM     22  H   UNL d   1      25.889  -8.491  -2.297  0.00  0.00     0.160 HD
ENDBRANCH  12  13
ENDBRANCH  11  12
ENDBRANCH   9  11
ENDBRANCH   1   7
BRANCH   5  23
ATOM     23  C   UNL d   1      22.636 -17.714  -0.507  0.00  0.00     0.370 C 
ATOM     24  N   UNL d   1      22.362 -18.447   0.929  0.00  0.00    -0.252 NA
ATOM     25  C   UNL d   1      21.325 -19.620   0.605  0.00  0.00     0.046 C 
ATOM     26  H   UNL d   1      23.165 -19.009   1.226  0.00  0.00     0.130 HD
ATOM     27  C   UNL d   1      20.218 -19.924   1.442  0.00  0.00     0.028 C 
ATOM     28  C   UNL d   1      21.102 -19.626  -0.763  0.00  0.00     0.117 C 
ATOM     29  C   UNL d   1      18.938 -19.694   0.922  0.00  0.00     0.021 C 
ATOM     30  C   UNL d   1      18.855 -19.298  -0.402  0.00  0.00     0.118 C 
ATOM     31  N   UNL d   1      19.896 -19.325  -1.270  0.00  0.00    -0.252 NA
ATOM     32  S   UNL d   1      22.553 -19.135  -1.643  0.00  0.00    -0.057 SA
ENDBRANCH   5  23
TORSDOF 5
ENDMDL
MODEL 9
REMARK VINA RESULT:   -29.019      3.189      5.388
REMARK INTER + INTRA:         -32.003
REMARK INTER:                 -30.510
REMARK INTRA:                  -1.493
REMARK CONF_INDEPENDENT:        1.492
REMARK UNBOUND:                -1.493
REMARK  5 active torsions:
REMARK  status: ('A' for Active; 'I' for Inactive)
REMARK       I    between atoms: C_2  and  N_3 
REMARK    1  A    between atoms: C_15  and  C_2 
REMARK    2  A    between atoms: N_3  and  C_4 
REMARK    3  A    between atoms: C_4  and  C_5 
REMARK    4  A    between atoms: C_5  and  C_6 
REMARK    5  A    between atoms: N_19  and  C_20 
ROOT
ATOM      1  C   UNL d   1      25.918 -15.216  -0.672  0.00  0.00     0.106 C 
ATOM      2  C   UNL d   1      26.495 -15.745  -1.988  0.00  0.00     0.017 C 
ATOM      3  C   UNL d   1      25.341 -16.251  -2.857  0.00  0.00     0.031 C 
ATOM      4  C   UNL d   1      24.454 -17.318  -2.170  0.00  0.00     0.275 C 
ATOM      5  N   UNL d   1      23.768 -16.830  -0.992  0.00  0.00     0.117 N 
ATOM      6  C   UNL d   1      24.812 -16.228  -0.059  0.00  0.00     0.289 C 
ENDROOT
BRANCH   1   7
ATOM      7  C   UNL d   1      27.024 -14.886   0.362  0.00  0.00     0.223 C 
ATOM      8  O   UNL d   1      27.459 -15.709   1.173  0.00  0.00    -0.273 OA
ATOM      9  N   UNL d   1      27.518 -13.600   0.320  0.00  0.00    -0.360 N 
ATOM     10  H   UNL d   1      26.996 -12.886  -0.167  0.00  0.00     0.162 HD
BRANCH   9  11
ATOM     11  C   UNL d   1      28.671 -13.229   1.101  0.00  0.00     0.127 C 
BRANCH  11  12
ATOM     12  C   UNL d   1      29.979 -13.290   0.310  0.00  0.00     0.056 C 
BRANCH  12  13
ATOM     13  C   UNL d   1      29.823 -13.832  -1.080  0.00  0.00    -0.048 A 
ATOM     14  C   UNL d   1      29.978 -15.088  -1.510  0.00  0.00    -0.006 A 
ATOM     15  C   UNL d   1      30.346 -16.326  -0.897  0.00  0.00     0.014 A 
ATOM     16  C   UNL d   1      29.694 -15.046  -2.954  0.00  0.00     0.038 A 
ATOM     17  C   UNL d   1      30.380 -17.439  -1.633  0.00  0.00     0.001 A 
ATOM     18  C   UNL d   1      30.104 -17.416  -3.054  0.00  0.00     0.002 A 
ATOM     19  C   UNL d   1      29.780 -16.290  -3.728  0.00  0.00     0.030 A 
ATOM     20  N   UNL d   1      29.397 -13.845  -3.355  0.00  0.00    -0.385 N 
ATOM     21  C   UNL d   1      29.434 -12.917  -2.210  0.00  0.00     0.155 A 
ATOM     22  H   UNL d   1      29.182 -13.623  -4.315  0.00  0.00     0.160 HD
ENDBRANCH  12  13
ENDBRANCH  11  12
ENDBRANCH   9  11
ENDBRANCH   1   7
BRANCH   5  23
ATOM     23  C   UNL d   1      22.644 -17.782  -0.453  0.00  0.00     0.370 C 
ATOM     24  N   UNL d   1      22.351 -18.547   0.962  0.00  0.00    -0.252 NA
ATOM     25  C   UNL d   1      21.295 -19.693   0.603  0.00  0.00     0.046 C 
ATOM     26  H   UNL d   1      23.142 -19.131   1.248  0.00  0.00     0.130 HD
ATOM     27  C   UNL d   1      20.179 -20.000   1.426  0.00  0.00     0.028 C 
ATOM     28  C   UNL d   1      21.078 -19.660  -0.766  0.00  0.00     0.117 C 
ATOM     29  C   UNL d   1      18.905 -19.734   0.908  0.00  0.00     0.021 C 
ATOM     30  C   UNL d   1      18.836 -19.302  -0.407  0.00  0.00     0.118 C 
ATOM     31  N   UNL d   1      19.880 -19.325  -1.270  0.00  0.00    -0.252 NA
ATOM     32  S   UNL d   1      22.542 -19.172  -1.626  0.00  0.00    -0.057 SA
ENDBRANCH   5  23
TORSDOF 5
ENDMDL
