MODEL 1
REMARK VINA RESULT:   -10.332      0.000      0.000
REMARK INTER + INTRA:         -15.667
REMARK INTER:                 -13.912
REMARK INTRA:                  -1.755
REMARK CONF_INDEPENDENT:        3.580
REMARK UNBOUND:                -1.755
REMARK  12 active torsions:
REMARK  status: ('A' for Active; 'I' for Inactive)
REMARK    1  A    between atoms: C_2  and  C_3 
REMARK       I    between atoms: C_2  and  N_16 
REMARK    2  A    between atoms: C_3  and  C_4 
REMARK    3  A    between atoms: C_4  and  C_5 
REMARK    4  A    between atoms: C_5  and  O_7 
REMARK    5  A    between atoms: O_7  and  C_8 
REMARK    6  A    between atoms: C_8  and  C_9 
REMARK    7  A    between atoms: C_9  and  C_10 
REMARK    8  A    between atoms: N_16  and  C_17 
REMARK    9  A    between atoms: C_17  and  N_19 
REMARK   10  A    between atoms: N_19  and  C_20 
REMARK   11  A    between atoms: C_24  and  N_25 
REMARK       I    between atoms: N_25  and  C_26 
REMARK   12  A    between atoms: C_26  and  C_28 
ROOT
ATOM      1  C   UNL d   1      25.117 -14.394  -3.412  0.00  0.00     0.178 C 
ATOM      2  S   UNL d   1      25.925 -15.408  -4.506  0.00  0.00    -0.040 SA
ENDROOT
BRANCH   1   3
ATOM      3  N   UNL d   1      25.163 -12.977  -3.449  0.00  0.00    -0.304 N 
ATOM      4  C   UNL d   1      26.136 -12.056  -3.006  0.00  0.00     0.224 C 
ATOM      5  O   UNL d   1      26.042 -10.861  -3.285  0.00  0.00    -0.273 OA
ATOM      6  H   UNL d   1      24.421 -12.496  -3.944  0.00  0.00     0.171 HD
BRANCH   4   7
ATOM      7  C   UNL d   1      27.286 -12.607  -2.192  0.00  0.00     0.113 C 
BRANCH   7   8
ATOM      8  C   UNL d   1      27.394 -12.278  -0.721  0.00  0.00     0.120 C 
BRANCH   8   9
ATOM      9  C   UNL d   1      27.187 -13.556   0.072  0.00  0.00     0.259 C 
ATOM     10  O   UNL d   1      26.106 -13.974   0.473  0.00  0.00    -0.265 OA
BRANCH   9  11
ATOM     11  O   UNL d   1      28.378 -14.191   0.283  0.00  0.00    -0.321 OA
BRANCH  11  12
ATOM     12  C   UNL d   1      28.844 -14.027   1.629  0.00  0.00     0.183 C 
BRANCH  12  13
ATOM     13  C   UNL d   1      27.794 -14.502   2.633  0.00  0.00     0.065 C 
BRANCH  13  14
ATOM     14  C   UNL d   1      28.031 -14.022   4.050  0.00  0.00    -0.056 A 
ATOM     15  C   UNL d   1      27.789 -12.694   4.437  0.00  0.00     0.007 A 
ATOM     16  C   UNL d   1      28.158 -12.234   5.699  0.00  0.00     0.001 A 
ATOM     17  C   UNL d   1      28.695 -13.116   6.628  0.00  0.00     0.000 A 
ATOM     18  C   UNL d   1      28.907 -14.448   6.277  0.00  0.00     0.001 A 
ATOM     19  C   UNL d   1      28.591 -14.897   4.991  0.00  0.00     0.007 A 
ENDBRANCH  13  14
ENDBRANCH  12  13
ENDBRANCH  11  12
ENDBRANCH   9  11
ENDBRANCH   8   9
ENDBRANCH   7   8
ENDBRANCH   4   7
ENDBRANCH   1   3
BRANCH   1  20
ATOM     20  N   UNL d   1      24.279 -14.918  -2.396  0.00  0.00    -0.333 N 
ATOM     21  H   UNL d   1      23.321 -14.608  -2.303  0.00  0.00     0.168 HD
BRANCH  20  22
ATOM     22  C   UNL d   1      24.653 -16.088  -1.659  0.00  0.00     0.036 A 
ATOM     23  C   UNL d   1      25.948 -16.398  -1.282  0.00  0.00     0.029 A 
ATOM     24  C   UNL d   1      26.166 -17.546  -0.492  0.00  0.00     0.004 A 
ATOM     25  C   UNL d   1      25.092 -18.348  -0.035  0.00  0.00     0.029 A 
ATOM     26  C   UNL d   1      23.790 -18.049  -0.431  0.00  0.00     0.037 A 
ATOM     27  C   UNL d   1      23.630 -16.955  -1.271  0.00  0.00     0.059 A 
BRANCH  26  28
ATOM     28  N   UNL d   1      22.662 -18.814  -0.021  0.00  0.00    -0.321 N 
ATOM     29  C   UNL d   1      21.336 -18.589  -0.425  0.00  0.00     0.279 C 
ATOM     30  O   UNL d   1      20.966 -17.712  -1.219  0.00  0.00    -0.265 OA
ATOM     31  H   UNL d   1      22.837 -19.612   0.577  0.00  0.00     0.169 HD
BRANCH  29  32
ATOM     32  C   UNL d   1      20.339 -19.462   0.137  0.00  0.00     0.142 A 
ATOM     33  C   UNL d   1      19.985 -19.747   1.440  0.00  0.00     0.045 A 
ATOM     34  C   UNL d   1      18.823 -20.553   1.377  0.00  0.00     0.027 A 
ATOM     35  C   UNL d   1      18.548 -20.737   0.042  0.00  0.00     0.143 A 
ATOM     36  O   UNL d   1      19.457 -20.077  -0.716  0.00  0.00    -0.317 OA
ENDBRANCH  29  32
ENDBRANCH  26  28
ENDBRANCH  20  22
ENDBRANCH   1  20
TORSDOF 12
ENDMDL
MODEL 2
REMARK VINA RESULT:   -10.003      4.055      6.212
REMARK INTER + INTRA:         -15.637
REMARK INTER:                 -13.583
REMARK INTRA:                  -2.054
REMARK CONF_INDEPENDENT:        3.580
REMARK UNBOUND:                -2.054
REMARK  12 active torsions:
REMARK  status: ('A' for Active; 'I' for Inactive)
REMARK    1  A    between atoms: C_2  and  C_3 
REMARK       I    between atoms: C_2  and  N_16 
REMARK    2  A    between atoms: C_3  and  C_4 
REMARK    3  A    between atoms: C_4  and  C_5 
REMARK    4  A    between atoms: C_5  and  O_7 
REMARK    5  A    between atoms: O_7  and  C_8 
REMARK    6  A    between atoms: C_8  and  C_9 
REMARK    7  A    between atoms: C_9  and  C_10 
REMARK    8  A    between atoms: N_16  and  C_17 
REMARK    9  A    between atoms: C_17  and  N_19 
REMARK   10  A    between atoms: N_19  and  C_20 
REMARK   11  A    between atoms: C_24  and  N_25 
REMARK       I    between atoms: N_25  and  C_26 
REMARK   12  A    between atoms: C_26  and  C_28 
ROOT
ATOM      1  C   UNL d   1      27.992 -17.151   0.120  0.00  0.00     0.178 C 
ATOM      2  S   UNL d   1      27.920 -15.653   0.912  0.00  0.00    -0.040 SA
ENDROOT
BRANCH   1   3
ATOM      3  N   UNL d   1      29.160 -17.683  -0.484  0.00  0.00    -0.304 N 
ATOM      4  C   UNL d   1      29.879 -17.302  -1.637  0.00  0.00     0.224 C 
ATOM      5  O   UNL d   1      30.970 -17.811  -1.892  0.00  0.00    -0.273 OA
ATOM      6  H   UNL d   1      29.648 -18.422   0.009  0.00  0.00     0.171 HD
BRANCH   4   7
ATOM      7  C   UNL d   1      29.254 -16.246  -2.522  0.00  0.00     0.113 C 
BRANCH   7   8
ATOM      8  C   UNL d   1      29.994 -15.754  -3.744  0.00  0.00     0.120 C 
BRANCH   8   9
ATOM      9  C   UNL d   1      29.780 -16.753  -4.868  0.00  0.00     0.259 C 
ATOM     10  O   UNL d   1      29.668 -17.965  -4.726  0.00  0.00    -0.265 OA
BRANCH   9  11
ATOM     11  O   UNL d   1      29.726 -16.115  -6.075  0.00  0.00    -0.321 OA
BRANCH  11  12
ATOM     12  C   UNL d   1      29.779 -14.689  -5.933  0.00  0.00     0.183 C 
BRANCH  12  13
ATOM     13  C   UNL d   1      28.509 -14.038  -6.481  0.00  0.00     0.065 C 
BRANCH  13  14
ATOM     14  C   UNL d   1      27.353 -14.019  -5.503  0.00  0.00    -0.056 A 
ATOM     15  C   UNL d   1      26.789 -15.200  -4.992  0.00  0.00     0.007 A 
ATOM     16  C   UNL d   1      25.632 -15.168  -4.218  0.00  0.00     0.001 A 
ATOM     17  C   UNL d   1      25.066 -13.949  -3.868  0.00  0.00     0.000 A 
ATOM     18  C   UNL d   1      25.632 -12.763  -4.333  0.00  0.00     0.001 A 
ATOM     19  C   UNL d   1      26.760 -12.797  -5.157  0.00  0.00     0.007 A 
ENDBRANCH  13  14
ENDBRANCH  12  13
ENDBRANCH  11  12
ENDBRANCH   9  11
ENDBRANCH   8   9
ENDBRANCH   7   8
ENDBRANCH   4   7
ENDBRANCH   1   3
BRANCH   1  20
ATOM     20  N   UNL d   1      26.867 -18.011   0.058  0.00  0.00    -0.333 N 
ATOM     21  H   UNL d   1      26.900 -18.937   0.462  0.00  0.00     0.168 HD
BRANCH  20  22
ATOM     22  C   UNL d   1      25.576 -17.514  -0.315  0.00  0.00     0.036 A 
ATOM     23  C   UNL d   1      25.361 -16.470  -1.197  0.00  0.00     0.029 A 
ATOM     24  C   UNL d   1      24.034 -16.131  -1.534  0.00  0.00     0.004 A 
ATOM     25  C   UNL d   1      22.931 -16.868  -1.039  0.00  0.00     0.029 A 
ATOM     26  C   UNL d   1      23.145 -17.906  -0.135  0.00  0.00     0.037 A 
ATOM     27  C   UNL d   1      24.461 -18.155   0.228  0.00  0.00     0.059 A 
BRANCH  26  28
ATOM     28  N   UNL d   1      22.087 -18.685   0.414  0.00  0.00    -0.321 N 
ATOM     29  C   UNL d   1      21.078 -19.325  -0.326  0.00  0.00     0.279 C 
ATOM     30  O   UNL d   1      20.985 -19.325  -1.562  0.00  0.00    -0.265 OA
ATOM     31  H   UNL d   1      22.088 -18.825   1.417  0.00  0.00     0.169 HD
BRANCH  29  32
ATOM     32  C   UNL d   1      20.083 -20.036   0.432  0.00  0.00     0.142 A 
ATOM     33  C   UNL d   1      19.817 -20.099   1.785  0.00  0.00     0.045 A 
ATOM     34  C   UNL d   1      18.611 -20.825   1.927  0.00  0.00     0.027 A 
ATOM     35  C   UNL d   1      18.222 -21.188   0.659  0.00  0.00     0.143 A 
ATOM     36  O   UNL d   1      19.104 -20.711  -0.254  0.00  0.00    -0.317 OA
ENDBRANCH  29  32
ENDBRANCH  26  28
ENDBRANCH  20  22
ENDBRANCH   1  20
TORSDOF 12
ENDMDL
MODEL 3
REMARK VINA RESULT:    -9.955      3.953      6.302
REMARK INTER + INTRA:         -16.539
REMARK INTER:                 -13.535
REMARK INTRA:                  -3.004
REMARK CONF_INDEPENDENT:        3.580
REMARK UNBOUND:                -3.004
REMARK  12 active torsions:
REMARK  status: ('A' for Active; 'I' for Inactive)
REMARK    1  A    between atoms: C_2  and  C_3 
REMARK       I    between atoms: C_2  and  N_16 
REMARK    2  A    between atoms: C_3  and  C_4 
REMARK    3  A    between atoms: C_4  and  C_5 
REMARK    4  A    between atoms: C_5  and  O_7 
REMARK    5  A    between atoms: O_7  and  C_8 
REMARK    6  A    between atoms: C_8  and  C_9 
REMARK    7  A    between atoms: C_9  and  C_10 
REMARK    8  A    between atoms: N_16  and  C_17 
REMARK    9  A    between atoms: C_17  and  N_19 
REMARK   10  A    between atoms: N_19  and  C_20 
REMARK   11  A    between atoms: C_24  and  N_25 
REMARK       I    between atoms: N_25  and  C_26 
REMARK   12  A    between atoms: C_26  and  C_28 
ROOT
ATOM      1  C   UNL d   1      25.591 -13.594  -2.807  0.00  0.00     0.178 C 
ATOM      2  S   UNL d   1      26.481 -13.243  -1.406  0.00  0.00    -0.040 SA
ENDROOT
BRANCH   1   3
ATOM      3  N   UNL d   1      25.333 -12.664  -3.846  0.00  0.00    -0.304 N 
ATOM      4  C   UNL d   1      26.110 -12.244  -4.947  0.00  0.00     0.224 C 
ATOM      5  O   UNL d   1      25.620 -11.535  -5.825  0.00  0.00    -0.273 OA
ATOM      6  H   UNL d   1      24.404 -12.261  -3.894  0.00  0.00     0.171 HD
BRANCH   4   7
ATOM      7  C   UNL d   1      27.548 -12.710  -4.993  0.00  0.00     0.113 C 
BRANCH   7   8
ATOM      8  C   UNL d   1      27.979 -13.718  -6.034  0.00  0.00     0.120 C 
BRANCH   8   9
ATOM      9  C   UNL d   1      27.476 -15.087  -5.613  0.00  0.00     0.259 C 
ATOM     10  O   UNL d   1      26.300 -15.390  -5.450  0.00  0.00    -0.265 OA
BRANCH   9  11
ATOM     11  O   UNL d   1      28.520 -15.951  -5.439  0.00  0.00    -0.321 OA
BRANCH  11  12
ATOM     12  C   UNL d   1      29.156 -15.777  -4.165  0.00  0.00     0.183 C 
BRANCH  12  13
ATOM     13  C   UNL d   1      30.207 -16.861  -3.927  0.00  0.00     0.065 C 
BRANCH  13  14
ATOM     14  C   UNL d   1      30.582 -17.642  -5.170  0.00  0.00    -0.056 A 
ATOM     15  C   UNL d   1      31.023 -17.009  -6.344  0.00  0.00     0.007 A 
ATOM     16  C   UNL d   1      31.213 -17.729  -7.521  0.00  0.00     0.001 A 
ATOM     17  C   UNL d   1      31.052 -19.108  -7.523  0.00  0.00     0.000 A 
ATOM     18  C   UNL d   1      30.652 -19.761  -6.358  0.00  0.00     0.001 A 
ATOM     19  C   UNL d   1      30.405 -19.032  -5.192  0.00  0.00     0.007 A 
ENDBRANCH  13  14
ENDBRANCH  12  13
ENDBRANCH  11  12
ENDBRANCH   9  11
ENDBRANCH   8   9
ENDBRANCH   7   8
ENDBRANCH   4   7
ENDBRANCH   1   3
BRANCH   1  20
ATOM     20  N   UNL d   1      25.082 -14.893  -3.055  0.00  0.00    -0.333 N 
ATOM     21  H   UNL d   1      24.761 -15.157  -3.977  0.00  0.00     0.168 HD
BRANCH  20  22
ATOM     22  C   UNL d   1      25.262 -15.953  -2.107  0.00  0.00     0.036 A 
ATOM     23  C   UNL d   1      26.488 -16.365  -1.614  0.00  0.00     0.029 A 
ATOM     24  C   UNL d   1      26.517 -17.372  -0.627  0.00  0.00     0.004 A 
ATOM     25  C   UNL d   1      25.326 -17.923  -0.094  0.00  0.00     0.029 A 
ATOM     26  C   UNL d   1      24.092 -17.524  -0.604  0.00  0.00     0.037 A 
ATOM     27  C   UNL d   1      24.115 -16.587  -1.628  0.00  0.00     0.059 A 
BRANCH  26  28
ATOM     28  N   UNL d   1      22.854 -18.040  -0.127  0.00  0.00    -0.321 N 
ATOM     29  C   UNL d   1      21.978 -18.861  -0.857  0.00  0.00     0.279 C 
ATOM     30  O   UNL d   1      22.175 -19.274  -2.008  0.00  0.00    -0.265 OA
ATOM     31  H   UNL d   1      22.608 -17.834   0.833  0.00  0.00     0.169 HD
BRANCH  29  32
ATOM     32  C   UNL d   1      20.760 -19.244  -0.194  0.00  0.00     0.142 A 
ATOM     33  C   UNL d   1      19.554 -19.716  -0.670  0.00  0.00     0.045 A 
ATOM     34  C   UNL d   1      18.787 -20.082   0.462  0.00  0.00     0.027 A 
ATOM     35  C   UNL d   1      19.555 -19.790   1.565  0.00  0.00     0.143 A 
ATOM     36  O   UNL d   1      20.752 -19.286   1.179  0.00  0.00    -0.317 OA
ENDBRANCH  29  32
ENDBRANCH  26  28
ENDBRANCH  20  22
ENDBRANCH   1  20
TORSDOF 12
ENDMDL
MODEL 4
REMARK VINA RESULT:    -9.401      3.610      5.184
REMARK INTER + INTRA:         -16.020
REMARK INTER:                 -12.981
REMARK INTRA:                  -3.039
REMARK CONF_INDEPENDENT:        3.580
REMARK UNBOUND:                -3.039
REMARK  12 active torsions:
REMARK  status: ('A' for Active; 'I' for Inactive)
REMARK    1  A    between atoms: C_2  and  C_3 
REMARK       I    between atoms: C_2  and  N_16 
REMARK    2  A    between atoms: C_3  and  C_4 
REMARK    3  A    between atoms: C_4  and  C_5 
REMARK    4  A    between atoms: C_5  and  O_7 
REMARK    5  A    between atoms: O_7  and  C_8 
REMARK    6  A    between atoms: C_8  and  C_9 
REMARK    7  A    between atoms: C_9  and  C_10 
REMARK    8  A    between atoms: N_16  and  C_17 
REMARK    9  A    between atoms: C_17  and  N_19 
REMARK   10  A    between atoms: N_19  and  C_20 
REMARK   11  A    between atoms: C_24  and  N_25 
REMARK       I    between atoms: N_25  and  C_26 
REMARK   12  A    between atoms: C_26  and  C_28 
ROOT
ATOM      1  C   UNL d   1      27.894 -17.020   0.284  0.00  0.00     0.178 C 
ATOM      2  S   UNL d   1      27.780 -15.643   1.268  0.00  0.00    -0.040 SA
ENDROOT
BRANCH   1   3
ATOM      3  N   UNL d   1      29.066 -17.413  -0.412  0.00  0.00    -0.304 N 
ATOM      4  C   UNL d   1      29.552 -17.086  -1.696  0.00  0.00     0.224 C 
ATOM      5  O   UNL d   1      30.685 -17.417  -2.041  0.00  0.00    -0.273 OA
ATOM      6  H   UNL d   1      29.749 -17.965   0.094  0.00  0.00     0.171 HD
BRANCH   4   7
ATOM      7  C   UNL d   1      28.625 -16.310  -2.606  0.00  0.00     0.113 C 
BRANCH   7   8
ATOM      8  C   UNL d   1      29.173 -15.639  -3.844  0.00  0.00     0.120 C 
BRANCH   8   9
ATOM      9  C   UNL d   1      28.035 -15.451  -4.832  0.00  0.00     0.259 C 
ATOM     10  O   UNL d   1      28.167 -15.207  -6.026  0.00  0.00    -0.265 OA
BRANCH   9  11
ATOM     11  O   UNL d   1      26.828 -15.594  -4.209  0.00  0.00    -0.321 OA
BRANCH  11  12
ATOM     12  C   UNL d   1      25.833 -14.717  -4.755  0.00  0.00     0.183 C 
BRANCH  12  13
ATOM     13  C   UNL d   1      25.067 -14.001  -3.644  0.00  0.00     0.065 C 
BRANCH  13  14
ATOM     14  C   UNL d   1      25.907 -13.032  -2.838  0.00  0.00    -0.056 A 
ATOM     15  C   UNL d   1      26.348 -11.808  -3.368  0.00  0.00     0.007 A 
ATOM     16  C   UNL d   1      27.245 -11.004  -2.670  0.00  0.00     0.001 A 
ATOM     17  C   UNL d   1      27.650 -11.364  -1.391  0.00  0.00     0.000 A 
ATOM     18  C   UNL d   1      27.193 -12.556  -0.831  0.00  0.00     0.001 A 
ATOM     19  C   UNL d   1      26.338 -13.393  -1.554  0.00  0.00     0.007 A 
ENDBRANCH  13  14
ENDBRANCH  12  13
ENDBRANCH  11  12
ENDBRANCH   9  11
ENDBRANCH   8   9
ENDBRANCH   7   8
ENDBRANCH   4   7
ENDBRANCH   1   3
BRANCH   1  20
ATOM     20  N   UNL d   1      26.807 -17.916   0.134  0.00  0.00    -0.333 N 
ATOM     21  H   UNL d   1      26.851 -18.853   0.513  0.00  0.00     0.168 HD
BRANCH  20  22
ATOM     22  C   UNL d   1      25.520 -17.454  -0.295  0.00  0.00     0.036 A 
ATOM     23  C   UNL d   1      25.317 -16.480  -1.257  0.00  0.00     0.029 A 
ATOM     24  C   UNL d   1      23.994 -16.173  -1.640  0.00  0.00     0.004 A 
ATOM     25  C   UNL d   1      22.886 -16.874  -1.108  0.00  0.00     0.029 A 
ATOM     26  C   UNL d   1      23.088 -17.840  -0.124  0.00  0.00     0.037 A 
ATOM     27  C   UNL d   1      24.399 -18.056   0.277  0.00  0.00     0.059 A 
BRANCH  26  28
ATOM     28  N   UNL d   1      22.023 -18.579   0.465  0.00  0.00    -0.321 N 
ATOM     29  C   UNL d   1      21.012 -19.253  -0.240  0.00  0.00     0.279 C 
ATOM     30  O   UNL d   1      20.921 -19.322  -1.474  0.00  0.00    -0.265 OA
ATOM     31  H   UNL d   1      22.021 -18.663   1.474  0.00  0.00     0.169 HD
BRANCH  29  32
ATOM     32  C   UNL d   1      20.009 -19.913   0.554  0.00  0.00     0.142 A 
ATOM     33  C   UNL d   1      18.973 -20.762   0.222  0.00  0.00     0.045 A 
ATOM     34  C   UNL d   1      18.425 -21.227   1.441  0.00  0.00     0.027 A 
ATOM     35  C   UNL d   1      19.137 -20.618   2.447  0.00  0.00     0.143 A 
ATOM     36  O   UNL d   1      20.100 -19.823   1.921  0.00  0.00    -0.317 OA
ENDBRANCH  29  32
ENDBRANCH  26  28
ENDBRANCH  20  22
ENDBRANCH   1  20
TORSDOF 12
ENDMDL
MODEL 5
REMARK VINA RESULT:    -9.044      3.659      5.145
REMARK INTER + INTRA:         -16.160
REMARK INTER:                 -12.623
REMARK INTRA:                  -3.536
REMARK CONF_INDEPENDENT:        3.580
REMARK UNBOUND:                -3.536
REMARK  12 active torsions:
REMARK  status: ('A' for Active; 'I' for Inactive)
REMARK    1  A    between atoms: C_2  and  C_3 
REMARK       I    between atoms: C_2  and  N_16 
REMARK    2  A    between atoms: C_3  and  C_4 
REMARK    3  A    between atoms: C_4  and  C_5 
REMARK    4  A    between atoms: C_5  and  O_7 
REMARK    5  A    between atoms: O_7  and  C_8 
REMARK    6  A    between atoms: C_8  and  C_9 
REMARK    7  A    between atoms: C_9  and  C_10 
REMARK    8  A    between atoms: N_16  and  C_17 
REMARK    9  A    between atoms: C_17  and  N_19 
REMARK   10  A    between atoms: N_19  and  C_20 
REMARK   11  A    between atoms: C_24  and  N_25 
REMARK       I    between atoms: N_25  and  C_26 
REMARK   12  A    between atoms: C_26  and  C_28 
ROOT
ATOM      1  C   UNL d   1      26.638 -14.016  -1.699  0.00  0.00     0.178 C 
ATOM      2  S   UNL d   1      28.013 -13.901  -0.711  0.00  0.00    -0.040 SA
ENDROOT
BRANCH   1   3
ATOM      3  N   UNL d   1      25.901 -12.903  -2.178  0.00  0.00    -0.304 N 
ATOM      4  C   UNL d   1      26.017 -12.135  -3.357  0.00  0.00     0.224 C 
ATOM      5  O   UNL d   1      25.159 -11.303  -3.650  0.00  0.00    -0.273 OA
ATOM      6  H   UNL d   1      25.084 -12.619  -1.651  0.00  0.00     0.171 HD
BRANCH   4   7
ATOM      7  C   UNL d   1      27.224 -12.393  -4.232  0.00  0.00     0.113 C 
BRANCH   7   8
ATOM      8  C   UNL d   1      27.088 -13.254  -5.466  0.00  0.00     0.120 C 
BRANCH   8   9
ATOM      9  C   UNL d   1      26.297 -14.498  -5.100  0.00  0.00     0.259 C 
ATOM     10  O   UNL d   1      25.095 -14.528  -4.865  0.00  0.00    -0.265 OA
BRANCH   9  11
ATOM     11  O   UNL d   1      27.111 -15.594  -5.067  0.00  0.00    -0.321 OA
BRANCH  11  12
ATOM     12  C   UNL d   1      28.479 -15.258  -5.336  0.00  0.00     0.183 C 
BRANCH  12  13
ATOM     13  C   UNL d   1      29.285 -15.168  -4.041  0.00  0.00     0.065 C 
BRANCH  13  14
ATOM     14  C   UNL d   1      30.010 -16.446  -3.674  0.00  0.00    -0.056 A 
ATOM     15  C   UNL d   1      30.259 -17.459  -4.615  0.00  0.00     0.007 A 
ATOM     16  C   UNL d   1      30.787 -18.688  -4.227  0.00  0.00     0.001 A 
ATOM     17  C   UNL d   1      31.158 -18.896  -2.905  0.00  0.00     0.000 A 
ATOM     18  C   UNL d   1      30.955 -17.890  -1.962  0.00  0.00     0.001 A 
ATOM     19  C   UNL d   1      30.372 -16.677  -2.340  0.00  0.00     0.007 A 
ENDBRANCH  13  14
ENDBRANCH  12  13
ENDBRANCH  11  12
ENDBRANCH   9  11
ENDBRANCH   8   9
ENDBRANCH   7   8
ENDBRANCH   4   7
ENDBRANCH   1   3
BRANCH   1  20
ATOM     20  N   UNL d   1      26.160 -15.267  -2.161  0.00  0.00    -0.333 N 
ATOM     21  H   UNL d   1      25.995 -15.427  -3.146  0.00  0.00     0.168 HD
BRANCH  20  22
ATOM     22  C   UNL d   1      26.164 -16.421  -1.311  0.00  0.00     0.036 A 
ATOM     23  C   UNL d   1      27.296 -16.962  -0.729  0.00  0.00     0.029 A 
ATOM     24  C   UNL d   1      27.148 -18.057   0.148  0.00  0.00     0.004 A 
ATOM     25  C   UNL d   1      25.873 -18.571   0.486  0.00  0.00     0.029 A 
ATOM     26  C   UNL d   1      24.734 -18.040  -0.116  0.00  0.00     0.037 A 
ATOM     27  C   UNL d   1      24.933 -17.015  -1.030  0.00  0.00     0.059 A 
BRANCH  26  28
ATOM     28  N   UNL d   1      23.420 -18.510   0.165  0.00  0.00    -0.321 N 
ATOM     29  C   UNL d   1      22.478 -18.917  -0.795  0.00  0.00     0.279 C 
ATOM     30  O   UNL d   1      22.669 -18.950  -2.019  0.00  0.00    -0.265 OA
ATOM     31  H   UNL d   1      23.160 -18.601   1.139  0.00  0.00     0.169 HD
BRANCH  29  32
ATOM     32  C   UNL d   1      21.192 -19.327  -0.295  0.00  0.00     0.142 A 
ATOM     33  C   UNL d   1      20.645 -19.321   0.972  0.00  0.00     0.045 A 
ATOM     34  C   UNL d   1      19.285 -19.684   0.827  0.00  0.00     0.027 A 
ATOM     35  C   UNL d   1      19.084 -19.917  -0.513  0.00  0.00     0.143 A 
ATOM     36  O   UNL d   1      20.231 -19.700  -1.201  0.00  0.00    -0.317 OA
ENDBRANCH  29  32
ENDBRANCH  26  28
ENDBRANCH  20  22
ENDBRANCH   1  20
TORSDOF 12
ENDMDL
MODEL 6
REMARK VINA RESULT:    -8.812      2.746      3.659
REMARK INTER + INTRA:         -15.551
REMARK INTER:                 -12.391
REMARK INTRA:                  -3.159
REMARK CONF_INDEPENDENT:        3.580
REMARK UNBOUND:                -3.159
REMARK  12 active torsions:
REMARK  status: ('A' for Active; 'I' for Inactive)
REMARK    1  A    between atoms: C_2  and  C_3 
REMARK       I    between atoms: C_2  and  N_16 
REMARK    2  A    between atoms: C_3  and  C_4 
REMARK    3  A    between atoms: C_4  and  C_5 
REMARK    4  A    between atoms: C_5  and  O_7 
REMARK    5  A    between atoms: O_7  and  C_8 
REMARK    6  A    between atoms: C_8  and  C_9 
REMARK    7  A    between atoms: C_9  and  C_10 
REMARK    8  A    between atoms: N_16  and  C_17 
REMARK    9  A    between atoms: C_17  and  N_19 
REMARK   10  A    between atoms: N_19  and  C_20 
REMARK   11  A    between atoms: C_24  and  N_25 
REMARK       I    between atoms: N_25  and  C_26 
REMARK   12  A    between atoms: C_26  and  C_28 
ROOT
ATOM      1  C   UNL d   1      25.168 -14.204  -3.012  0.00  0.00     0.178 C 
ATOM      2  S   UNL d   1      25.949 -12.976  -2.142  0.00  0.00    -0.040 SA
ENDROOT
BRANCH   1   3
ATOM      3  N   UNL d   1      25.499 -14.582  -4.339  0.00  0.00    -0.304 N 
ATOM      4  C   UNL d   1      26.654 -15.183  -4.885  0.00  0.00     0.224 C 
ATOM      5  O   UNL d   1      26.665 -15.574  -6.051  0.00  0.00    -0.273 OA
ATOM      6  H   UNL d   1      24.778 -14.497  -5.045  0.00  0.00     0.171 HD
BRANCH   4   7
ATOM      7  C   UNL d   1      27.852 -15.329  -3.972  0.00  0.00     0.113 C 
BRANCH   7   8
ATOM      8  C   UNL d   1      29.231 -15.506  -4.563  0.00  0.00     0.120 C 
BRANCH   8   9
ATOM      9  C   UNL d   1      29.931 -16.632  -3.821  0.00  0.00     0.259 C 
ATOM     10  O   UNL d   1      29.907 -17.814  -4.143  0.00  0.00    -0.265 OA
BRANCH   9  11
ATOM     11  O   UNL d   1      30.600 -16.148  -2.733  0.00  0.00    -0.321 OA
BRANCH  11  12
ATOM     12  C   UNL d   1      30.473 -17.011  -1.595  0.00  0.00     0.183 C 
BRANCH  12  13
ATOM     13  C   UNL d   1      29.050 -16.976  -1.039  0.00  0.00     0.065 C 
BRANCH  13  14
ATOM     14  C   UNL d   1      28.702 -15.694  -0.312  0.00  0.00    -0.056 A 
ATOM     15  C   UNL d   1      27.827 -15.674   0.787  0.00  0.00     0.007 A 
ATOM     16  C   UNL d   1      27.398 -14.471   1.343  0.00  0.00     0.001 A 
ATOM     17  C   UNL d   1      27.905 -13.268   0.868  0.00  0.00     0.000 A 
ATOM     18  C   UNL d   1      28.805 -13.268  -0.197  0.00  0.00     0.001 A 
ATOM     19  C   UNL d   1      29.191 -14.472  -0.794  0.00  0.00     0.007 A 
ENDBRANCH  13  14
ENDBRANCH  12  13
ENDBRANCH  11  12
ENDBRANCH   9  11
ENDBRANCH   8   9
ENDBRANCH   7   8
ENDBRANCH   4   7
ENDBRANCH   1   3
BRANCH   1  20
ATOM     20  N   UNL d   1      24.139 -14.986  -2.430  0.00  0.00    -0.333 N 
ATOM     21  H   UNL d   1      23.171 -14.840  -2.683  0.00  0.00     0.168 HD
BRANCH  20  22
ATOM     22  C   UNL d   1      24.441 -16.178  -1.694  0.00  0.00     0.036 A 
ATOM     23  C   UNL d   1      25.720 -16.639  -1.438  0.00  0.00     0.029 A 
ATOM     24  C   UNL d   1      25.877 -17.789  -0.636  0.00  0.00     0.004 A 
ATOM     25  C   UNL d   1      24.766 -18.439  -0.046  0.00  0.00     0.029 A 
ATOM     26  C   UNL d   1      23.477 -17.988  -0.320  0.00  0.00     0.037 A 
ATOM     27  C   UNL d   1      23.366 -16.901  -1.175  0.00  0.00     0.059 A 
BRANCH  26  28
ATOM     28  N   UNL d   1      22.312 -18.596   0.228  0.00  0.00    -0.321 N 
ATOM     29  C   UNL d   1      21.285 -19.204  -0.513  0.00  0.00     0.279 C 
ATOM     30  O   UNL d   1      21.264 -19.321  -1.747  0.00  0.00    -0.265 OA
ATOM     31  H   UNL d   1      22.241 -18.632   1.238  0.00  0.00     0.169 HD
BRANCH  29  32
ATOM     32  C   UNL d   1      20.177 -19.729   0.240  0.00  0.00     0.142 A 
ATOM     33  C   UNL d   1      19.011 -20.358  -0.143  0.00  0.00     0.045 A 
ATOM     34  C   UNL d   1      18.381 -20.801   1.045  0.00  0.00     0.027 A 
ATOM     35  C   UNL d   1      19.182 -20.396   2.086  0.00  0.00     0.143 A 
ATOM     36  O   UNL d   1      20.274 -19.750   1.610  0.00  0.00    -0.317 OA
ENDBRANCH  29  32
ENDBRANCH  26  28
ENDBRANCH  20  22
ENDBRANCH   1  20
TORSDOF 12
ENDMDL
MODEL 7
REMARK VINA RESULT:    -8.579      3.938      6.378
REMARK INTER + INTRA:         -15.774
REMARK INTER:                 -12.159
REMARK INTRA:                  -3.616
REMARK CONF_INDEPENDENT:        3.580
REMARK UNBOUND:                -3.616
REMARK  12 active torsions:
REMARK  status: ('A' for Active; 'I' for Inactive)
REMARK    1  A    between atoms: C_2  and  C_3 
REMARK       I    between atoms: C_2  and  N_16 
REMARK    2  A    between atoms: C_3  and  C_4 
REMARK    3  A    between atoms: C_4  and  C_5 
REMARK    4  A    between atoms: C_5  and  O_7 
REMARK    5  A    between atoms: O_7  and  C_8 
REMARK    6  A    between atoms: C_8  and  C_9 
REMARK    7  A    between atoms: C_9  and  C_10 
REMARK    8  A    between atoms: N_16  and  C_17 
REMARK    9  A    between atoms: C_17  and  N_19 
REMARK   10  A    between atoms: N_19  and  C_20 
REMARK   11  A    between atoms: C_24  and  N_25 
REMARK       I    between atoms: N_25  and  C_26 
REMARK   12  A    between atoms: C_26  and  C_28 
ROOT
ATOM      1  C   UNL d   1      25.734 -13.909  -2.699  0.00  0.00     0.178 C 
ATOM      2  S   UNL d   1      26.296 -13.328  -1.207  0.00  0.00    -0.040 SA
ENDROOT
BRANCH   1   3
ATOM      3  N   UNL d   1      25.335 -13.083  -3.781  0.00  0.00    -0.304 N 
ATOM      4  C   UNL d   1      26.067 -12.494  -4.834  0.00  0.00     0.224 C 
ATOM      5  O   UNL d   1      25.488 -11.938  -5.767  0.00  0.00    -0.273 OA
ATOM      6  H   UNL d   1      24.342 -12.924  -3.909  0.00  0.00     0.171 HD
BRANCH   4   7
ATOM      7  C   UNL d   1      27.576 -12.588  -4.762  0.00  0.00     0.113 C 
BRANCH   7   8
ATOM      8  C   UNL d   1      28.296 -13.700  -5.489  0.00  0.00     0.120 C 
BRANCH   8   9
ATOM      9  C   UNL d   1      27.610 -15.014  -5.156  0.00  0.00     0.259 C 
ATOM     10  O   UNL d   1      26.775 -15.575  -5.856  0.00  0.00    -0.265 OA
BRANCH   9  11
ATOM     11  O   UNL d   1      28.053 -15.498  -3.957  0.00  0.00    -0.321 OA
BRANCH  11  12
ATOM     12  C   UNL d   1      29.425 -15.911  -4.017  0.00  0.00     0.183 C 
BRANCH  12  13
ATOM     13  C   UNL d   1      29.663 -16.843  -5.205  0.00  0.00     0.065 C 
BRANCH  13  14
ATOM     14  C   UNL d   1      30.739 -16.366  -6.158  0.00  0.00    -0.056 A 
ATOM     15  C   UNL d   1      31.230 -15.050  -6.132  0.00  0.00     0.007 A 
ATOM     16  C   UNL d   1      32.104 -14.589  -7.113  0.00  0.00     0.001 A 
ATOM     17  C   UNL d   1      32.574 -15.459  -8.088  0.00  0.00     0.000 A 
ATOM     18  C   UNL d   1      32.129 -16.781  -8.109  0.00  0.00     0.001 A 
ATOM     19  C   UNL d   1      31.207 -17.229  -7.159  0.00  0.00     0.007 A 
ENDBRANCH  13  14
ENDBRANCH  12  13
ENDBRANCH  11  12
ENDBRANCH   9  11
ENDBRANCH   8   9
ENDBRANCH   7   8
ENDBRANCH   4   7
ENDBRANCH   1   3
BRANCH   1  20
ATOM     20  N   UNL d   1      25.676 -15.296  -2.980  0.00  0.00    -0.333 N 
ATOM     21  H   UNL d   1      25.746 -15.636  -3.930  0.00  0.00     0.168 HD
BRANCH  20  22
ATOM     22  C   UNL d   1      25.804 -16.269  -1.936  0.00  0.00     0.036 A 
ATOM     23  C   UNL d   1      26.998 -16.613  -1.326  0.00  0.00     0.029 A 
ATOM     24  C   UNL d   1      26.972 -17.534  -0.258  0.00  0.00     0.004 A 
ATOM     25  C   UNL d   1      25.754 -18.063   0.236  0.00  0.00     0.029 A 
ATOM     26  C   UNL d   1      24.554 -17.733  -0.390  0.00  0.00     0.037 A 
ATOM     27  C   UNL d   1      24.635 -16.884  -1.485  0.00  0.00     0.059 A 
BRANCH  26  28
ATOM     28  N   UNL d   1      23.293 -18.233   0.042  0.00  0.00    -0.321 N 
ATOM     29  C   UNL d   1      22.309 -18.789  -0.791  0.00  0.00     0.279 C 
ATOM     30  O   UNL d   1      22.412 -18.950  -2.015  0.00  0.00    -0.265 OA
ATOM     31  H   UNL d   1      23.111 -18.227   1.038  0.00  0.00     0.169 HD
BRANCH  29  32
ATOM     32  C   UNL d   1      21.088 -19.204  -0.150  0.00  0.00     0.142 A 
ATOM     33  C   UNL d   1      19.934 -19.781  -0.639  0.00  0.00     0.045 A 
ATOM     34  C   UNL d   1      19.143 -20.118   0.486  0.00  0.00     0.027 A 
ATOM     35  C   UNL d   1      19.844 -19.705   1.594  0.00  0.00     0.143 A 
ATOM     36  O   UNL d   1      21.025 -19.154   1.221  0.00  0.00    -0.317 OA
ENDBRANCH  29  32
ENDBRANCH  26  28
ENDBRANCH  20  22
ENDBRANCH   1  20
TORSDOF 12
ENDMDL
MODEL 8
REMARK VINA RESULT:    -8.328      3.478      5.381
REMARK INTER + INTRA:         -15.962
REMARK INTER:                 -11.908
REMARK INTRA:                  -4.054
REMARK CONF_INDEPENDENT:        3.580
REMARK UNBOUND:                -4.054
REMARK  12 active torsions:
REMARK  status: ('A' for Active; 'I' for Inactive)
REMARK    1  A    between atoms: C_2  and  C_3 
REMARK       I    between atoms: C_2  and  N_16 
REMARK    2  A    between atoms: C_3  and  C_4 
REMARK    3  A    between atoms: C_4  and  C_5 
REMARK    4  A    between atoms: C_5  and  O_7 
REMARK    5  A    between atoms: O_7  and  C_8 
REMARK    6  A    between atoms: C_8  and  C_9 
REMARK    7  A    between atoms: C_9  and  C_10 
REMARK    8  A    between atoms: N_16  and  C_17 
REMARK    9  A    between atoms: C_17  and  N_19 
REMARK   10  A    between atoms: N_19  and  C_20 
REMARK   11  A    between atoms: C_24  and  N_25 
REMARK       I    between atoms: N_25  and  C_26 
REMARK   12  A    between atoms: C_26  and  C_28 
ROOT
ATOM      1  C   UNL d   1      26.847 -13.646  -0.953  0.00  0.00     0.178 C 
ATOM      2  S   UNL d   1      26.937 -12.939   0.587  0.00  0.00    -0.040 SA
ENDROOT
BRANCH   1   3
ATOM      3  N   UNL d   1      27.750 -13.376  -2.013  0.00  0.00    -0.304 N 
ATOM      4  C   UNL d   1      27.619 -12.600  -3.185  0.00  0.00     0.224 C 
ATOM      5  O   UNL d   1      28.596 -12.371  -3.897  0.00  0.00    -0.273 OA
ATOM      6  H   UNL d   1      28.700 -13.715  -1.917  0.00  0.00     0.171 HD
BRANCH   4   7
ATOM      7  C   UNL d   1      26.241 -12.066  -3.508  0.00  0.00     0.113 C 
BRANCH   7   8
ATOM      8  C   UNL d   1      25.405 -12.735  -4.574  0.00  0.00     0.120 C 
BRANCH   8   9
ATOM      9  C   UNL d   1      24.790 -13.991  -3.984  0.00  0.00     0.259 C 
ATOM     10  O   UNL d   1      23.657 -14.075  -3.523  0.00  0.00    -0.265 OA
BRANCH   9  11
ATOM     11  O   UNL d   1      25.674 -15.031  -4.035  0.00  0.00    -0.321 OA
BRANCH  11  12
ATOM     12  C   UNL d   1      26.082 -15.324  -5.379  0.00  0.00     0.183 C 
BRANCH  12  13
ATOM     13  C   UNL d   1      27.498 -14.812  -5.643  0.00  0.00     0.065 C 
BRANCH  13  14
ATOM     14  C   UNL d   1      28.585 -15.626  -4.973  0.00  0.00    -0.056 A 
ATOM     15  C   UNL d   1      28.540 -15.949  -3.606  0.00  0.00     0.007 A 
ATOM     16  C   UNL d   1      29.620 -16.562  -2.976  0.00  0.00     0.001 A 
ATOM     17  C   UNL d   1      30.730 -16.943  -3.718  0.00  0.00     0.000 A 
ATOM     18  C   UNL d   1      30.779 -16.667  -5.083  0.00  0.00     0.001 A 
ATOM     19  C   UNL d   1      29.720 -15.999  -5.706  0.00  0.00     0.007 A 
ENDBRANCH  13  14
ENDBRANCH  12  13
ENDBRANCH  11  12
ENDBRANCH   9  11
ENDBRANCH   8   9
ENDBRANCH   7   8
ENDBRANCH   4   7
ENDBRANCH   1   3
BRANCH   1  20
ATOM     20  N   UNL d   1      25.864 -14.617  -1.265  0.00  0.00    -0.333 N 
ATOM     21  H   UNL d   1      25.167 -14.439  -1.976  0.00  0.00     0.168 HD
BRANCH  20  22
ATOM     22  C   UNL d   1      25.986 -15.969  -0.806  0.00  0.00     0.036 A 
ATOM     23  C   UNL d   1      27.181 -16.575  -0.461  0.00  0.00     0.029 A 
ATOM     24  C   UNL d   1      27.151 -17.891   0.048  0.00  0.00     0.004 A 
ATOM     25  C   UNL d   1      25.929 -18.574   0.265  0.00  0.00     0.029 A 
ATOM     26  C   UNL d   1      24.727 -17.973  -0.102  0.00  0.00     0.037 A 
ATOM     27  C   UNL d   1      24.811 -16.709  -0.669  0.00  0.00     0.059 A 
BRANCH  26  28
ATOM     28  N   UNL d   1      23.462 -18.601   0.076  0.00  0.00    -0.321 N 
ATOM     29  C   UNL d   1      22.247 -18.153  -0.468  0.00  0.00     0.279 C 
ATOM     30  O   UNL d   1      22.111 -17.164  -1.203  0.00  0.00    -0.265 OA
ATOM     31  H   UNL d   1      23.446 -19.467   0.601  0.00  0.00     0.169 HD
BRANCH  29  32
ATOM     32  C   UNL d   1      21.076 -18.921  -0.135  0.00  0.00     0.142 A 
ATOM     33  C   UNL d   1      20.042 -19.415  -0.904  0.00  0.00     0.045 A 
ATOM     34  C   UNL d   1      19.264 -20.237  -0.054  0.00  0.00     0.027 A 
ATOM     35  C   UNL d   1      19.848 -20.177   1.189  0.00  0.00     0.143 A 
ATOM     36  O   UNL d   1      20.948 -19.386   1.150  0.00  0.00    -0.317 OA
ENDBRANCH  29  32
ENDBRANCH  26  28
ENDBRANCH  20  22
ENDBRANCH   1  20
TORSDOF 12
ENDMDL
MODEL 9
REMARK VINA RESULT:    -8.133      3.436      5.692
REMARK INTER + INTRA:         -15.571
REMARK INTER:                 -11.713
REMARK INTRA:                  -3.858
REMARK CONF_INDEPENDENT:        3.580
REMARK UNBOUND:                -3.858
REMARK  12 active torsions:
REMARK  status: ('A' for Active; 'I' for Inactive)
REMARK    1  A    between atoms: C_2  and  C_3 
REMARK       I    between atoms: C_2  and  N_16 
REMARK    2  A    between atoms: C_3  and  C_4 
REMARK    3  A    between atoms: C_4  and  C_5 
REMARK    4  A    between atoms: C_5  and  O_7 
REMARK    5  A    between atoms: O_7  and  C_8 
REMARK    6  A    between atoms: C_8  and  C_9 
REMARK    7  A    between atoms: C_9  and  C_10 
REMARK    8  A    between atoms: N_16  and  C_17 
REMARK    9  A    between atoms: C_17  and  N_19 
REMARK   10  A    between atoms: N_19  and  C_20 
REMARK   11  A    between atoms: C_24  and  N_25 
REMARK       I    between atoms: N_25  and  C_26 
REMARK   12  A    between atoms: C_26  and  C_28 
ROOT
ATOM      1  C   UNL d   1      25.666 -14.751  -3.453  0.00  0.00     0.178 C 
ATOM      2  S   UNL d   1      24.122 -14.049  -3.499  0.00  0.00    -0.040 SA
ENDROOT
BRANCH   1   3
ATOM      3  N   UNL d   1      26.349 -15.260  -4.587  0.00  0.00    -0.304 N 
ATOM      4  C   UNL d   1      27.285 -14.671  -5.464  0.00  0.00     0.224 C 
ATOM      5  O   UNL d   1      27.879 -15.353  -6.298  0.00  0.00    -0.273 OA
ATOM      6  H   UNL d   1      26.238 -16.245  -4.799  0.00  0.00     0.171 HD
BRANCH   4   7
ATOM      7  C   UNL d   1      27.523 -13.184  -5.320  0.00  0.00     0.113 C 
BRANCH   7   8
ATOM      8  C   UNL d   1      28.656 -12.683  -4.454  0.00  0.00     0.120 C 
BRANCH   8   9
ATOM      9  C   UNL d   1      28.184 -12.660  -3.011  0.00  0.00     0.259 C 
ATOM     10  O   UNL d   1      27.301 -11.935  -2.567  0.00  0.00    -0.265 OA
BRANCH   9  11
ATOM     11  O   UNL d   1      28.879 -13.566  -2.262  0.00  0.00    -0.321 OA
BRANCH  11  12
ATOM     12  C   UNL d   1      29.990 -14.119  -2.981  0.00  0.00     0.183 C 
BRANCH  12  13
ATOM     13  C   UNL d   1      29.866 -15.639  -3.091  0.00  0.00     0.065 C 
BRANCH  13  14
ATOM     14  C   UNL d   1      30.267 -16.195  -4.441  0.00  0.00    -0.056 A 
ATOM     15  C   UNL d   1      30.701 -15.368  -5.490  0.00  0.00     0.007 A 
ATOM     16  C   UNL d   1      30.915 -15.879  -6.768  0.00  0.00     0.001 A 
ATOM     17  C   UNL d   1      30.785 -17.242  -7.000  0.00  0.00     0.000 A 
ATOM     18  C   UNL d   1      30.392 -18.087  -5.963  0.00  0.00     0.001 A 
ATOM     19  C   UNL d   1      30.121 -17.567  -4.695  0.00  0.00     0.007 A 
ENDBRANCH  13  14
ENDBRANCH  12  13
ENDBRANCH  11  12
ENDBRANCH   9  11
ENDBRANCH   8   9
ENDBRANCH   7   8
ENDBRANCH   4   7
ENDBRANCH   1   3
BRANCH   1  20
ATOM     20  N   UNL d   1      26.410 -14.827  -2.249  0.00  0.00    -0.333 N 
ATOM     21  H   UNL d   1      26.793 -13.993  -1.823  0.00  0.00     0.168 HD
BRANCH  20  22
ATOM     22  C   UNL d   1      26.406 -16.015  -1.449  0.00  0.00     0.036 A 
ATOM     23  C   UNL d   1      27.481 -16.461  -0.700  0.00  0.00     0.029 A 
ATOM     24  C   UNL d   1      27.317 -17.609   0.102  0.00  0.00     0.004 A 
ATOM     25  C   UNL d   1      26.071 -18.274   0.201  0.00  0.00     0.029 A 
ATOM     26  C   UNL d   1      24.994 -17.839  -0.568  0.00  0.00     0.037 A 
ATOM     27  C   UNL d   1      25.222 -16.753  -1.401  0.00  0.00     0.059 A 
BRANCH  26  28
ATOM     28  N   UNL d   1      23.714 -18.462  -0.530  0.00  0.00    -0.321 N 
ATOM     29  C   UNL d   1      22.482 -17.800  -0.657  0.00  0.00     0.279 C 
ATOM     30  O   UNL d   1      22.337 -16.584  -0.848  0.00  0.00    -0.265 OA
ATOM     31  H   UNL d   1      23.694 -19.472  -0.450  0.00  0.00     0.169 HD
BRANCH  29  32
ATOM     32  C   UNL d   1      21.303 -18.619  -0.556  0.00  0.00     0.142 A 
ATOM     33  C   UNL d   1      21.009 -19.731   0.206  0.00  0.00     0.045 A 
ATOM     34  C   UNL d   1      19.635 -20.006   0.007  0.00  0.00     0.027 A 
ATOM     35  C   UNL d   1      19.173 -19.066  -0.883  0.00  0.00     0.143 A 
ATOM     36  O   UNL d   1      20.174 -18.219  -1.228  0.00  0.00    -0.317 OA
ENDBRANCH  29  32
ENDBRANCH  26  28
ENDBRANCH  20  22
ENDBRANCH   1  20
TORSDOF 12
ENDMDL
