MODEL 1
REMARK VINA RESULT:    -8.846      0.000      0.000
REMARK INTER + INTRA:         -11.886
REMARK INTER:                 -10.635
REMARK INTRA:                  -1.250
REMARK CONF_INDEPENDENT:        1.790
REMARK UNBOUND:                -1.250
REMARK  6 active torsions:
REMARK  status: ('A' for Active; 'I' for Inactive)
REMARK       I    between atoms: C_2  and  N_3 
REMARK    1  A    between atoms: C_2  and  C_25 
REMARK    2  A    between atoms: N_3  and  C_4 
REMARK    3  A    between atoms: C_9  and  C_10 
REMARK    4  A    between atoms: C_13  and  C_14 
REMARK    5  A    between atoms: C_28  and  C_29 
REMARK    6  A    between atoms: C_33  and  N_34 
ROOT
ATOM      1  C   UNL d   1      28.540 -14.527  -4.156  0.00  0.00     0.037 A 
ATOM      2  C   UNL d   1      29.260 -14.950  -3.022  0.00  0.00     0.032 A 
ATOM      3  C   UNL d   1      28.663 -15.647  -1.952  0.00  0.00     0.042 A 
ATOM      4  C   UNL d   1      27.314 -15.938  -2.096  0.00  0.00     0.106 A 
ATOM      5  O   UNL d   1      26.489 -16.596  -1.217  0.00  0.00    -0.289 OA
ATOM      6  C   UNL d   1      25.284 -16.636  -1.875  0.00  0.00     0.180 A 
ATOM      7  N   UNL d   1      25.287 -16.061  -3.066  0.00  0.00    -0.221 NA
ATOM      8  C   UNL d   1      26.565 -15.581  -3.204  0.00  0.00     0.095 A 
ATOM      9  C   UNL d   1      27.168 -14.832  -4.242  0.00  0.00     0.064 A 
ENDROOT
BRANCH   1  10
ATOM     10  N   UNL d   1      29.183 -13.776  -5.195  0.00  0.00    -0.321 N 
ATOM     11  C   UNL d   1      29.036 -14.089  -6.550  0.00  0.00     0.280 C 
ATOM     12  O   UNL d   1      28.298 -15.014  -6.922  0.00  0.00    -0.265 OA
ATOM     13  H   UNL d   1      29.526 -12.849  -4.971  0.00  0.00     0.169 HD
BRANCH  11  14
ATOM     14  C   UNL d   1      29.632 -13.206  -7.554  0.00  0.00     0.144 A 
ATOM     15  C   UNL d   1      28.980 -12.575  -8.602  0.00  0.00     0.046 A 
ATOM     16  C   UNL d   1      29.958 -11.981  -9.421  0.00  0.00     0.041 A 
ATOM     17  C   UNL d   1      31.178 -12.290  -8.862  0.00  0.00     0.086 A 
ATOM     18  O   UNL d   1      30.998 -13.020  -7.701  0.00  0.00    -0.304 OA
BRANCH  17  19
ATOM     19  C   UNL d   1      32.531 -11.934  -9.283  0.00  0.00     0.000 A 
ATOM     20  C   UNL d   1      33.393 -12.862  -9.880  0.00  0.00     0.014 A 
ATOM     21  C   UNL d   1      34.689 -12.491 -10.270  0.00  0.00     0.003 A 
ATOM     22  C   UNL d   1      35.118 -11.171 -10.130  0.00  0.00     0.036 A 
ATOM     23  C   UNL d   1      34.248 -10.227  -9.576  0.00  0.00     0.103 A 
ATOM     24  C   UNL d   1      32.957 -10.600  -9.167  0.00  0.00     0.050 A 
BRANCH  23  25
ATOM     25  N   UNL d   1      34.704  -8.845  -9.374  0.00  0.00    -0.116 N 
ATOM     26  O   UNL d   1      35.423  -8.611  -8.393  0.00  0.00    -0.532 OA
ATOM     27  O   UNL d   1      34.330  -7.990 -10.191  0.00  0.00    -0.532 OA
ENDBRANCH  23  25
ENDBRANCH  17  19
ENDBRANCH  11  14
ENDBRANCH   1  10
BRANCH   6  28
ATOM     28  C   UNL d   1      24.145 -17.229  -1.180  0.00  0.00     0.017 A 
ATOM     29  C   UNL d   1      24.190 -18.575  -0.794  0.00  0.00     0.017 A 
ATOM     30  C   UNL d   1      23.033 -19.230  -0.358  0.00  0.00     0.013 A 
ATOM     31  C   UNL d   1      21.818 -18.542  -0.221  0.00  0.00    -0.026 A 
ATOM     32  C   UNL d   1      21.780 -17.191  -0.591  0.00  0.00     0.013 A 
ATOM     33  C   UNL d   1      22.932 -16.538  -1.057  0.00  0.00     0.017 A 
BRANCH  31  34
ATOM     34  C   UNL d   1      20.630 -19.238   0.295  0.00  0.00    -0.026 A 
ATOM     35  C   UNL d   1      20.490 -19.485   1.673  0.00  0.00     0.012 A 
ATOM     36  C   UNL d   1      19.432 -20.253   2.161  0.00  0.00     0.001 A 
ATOM     37  C   UNL d   1      18.455 -20.723   1.288  0.00  0.00     0.000 A 
ATOM     38  C   UNL d   1      18.553 -20.450  -0.075  0.00  0.00     0.001 A 
ATOM     39  C   UNL d   1      19.635 -19.718  -0.568  0.00  0.00     0.012 A 
ENDBRANCH  31  34
ENDBRANCH   6  28
TORSDOF 6
ENDMDL
MODEL 2
REMARK VINA RESULT:    -8.271      2.034      2.575
REMARK INTER + INTRA:         -11.554
REMARK INTER:                 -10.061
REMARK INTRA:                  -1.493
REMARK CONF_INDEPENDENT:        1.790
REMARK UNBOUND:                -1.493
REMARK  6 active torsions:
REMARK  status: ('A' for Active; 'I' for Inactive)
REMARK       I    between atoms: C_2  and  N_3 
REMARK    1  A    between atoms: C_2  and  C_25 
REMARK    2  A    between atoms: N_3  and  C_4 
REMARK    3  A    between atoms: C_9  and  C_10 
REMARK    4  A    between atoms: C_13  and  C_14 
REMARK    5  A    between atoms: C_28  and  C_29 
REMARK    6  A    between atoms: C_33  and  N_34 
ROOT
ATOM      1  C   UNL d   1      28.362 -14.040  -4.492  0.00  0.00     0.037 A 
ATOM      2  C   UNL d   1      28.549 -13.399  -3.252  0.00  0.00     0.032 A 
ATOM      3  C   UNL d   1      27.763 -13.684  -2.117  0.00  0.00     0.042 A 
ATOM      4  C   UNL d   1      26.807 -14.678  -2.275  0.00  0.00     0.106 A 
ATOM      5  O   UNL d   1      25.912 -15.150  -1.348  0.00  0.00    -0.289 OA
ATOM      6  C   UNL d   1      25.243 -16.143  -2.022  0.00  0.00     0.180 A 
ATOM      7  N   UNL d   1      25.634 -16.319  -3.273  0.00  0.00    -0.221 NA
ATOM      8  C   UNL d   1      26.606 -15.368  -3.459  0.00  0.00     0.095 A 
ATOM      9  C   UNL d   1      27.365 -15.028  -4.603  0.00  0.00     0.064 A 
ENDROOT
BRANCH   1  10
ATOM     10  N   UNL d   1      29.155 -13.678  -5.631  0.00  0.00    -0.321 N 
ATOM     11  C   UNL d   1      28.621 -13.008  -6.737  0.00  0.00     0.280 C 
ATOM     12  O   UNL d   1      27.433 -12.654  -6.764  0.00  0.00    -0.265 OA
ATOM     13  H   UNL d   1      30.163 -13.660  -5.525  0.00  0.00     0.169 HD
BRANCH  11  14
ATOM     14  C   UNL d   1      29.519 -12.574  -7.808  0.00  0.00     0.144 A 
ATOM     15  C   UNL d   1      29.162 -11.942  -8.989  0.00  0.00     0.046 A 
ATOM     16  C   UNL d   1      30.306 -11.876  -9.805  0.00  0.00     0.041 A 
ATOM     17  C   UNL d   1      31.321 -12.492  -9.106  0.00  0.00     0.086 A 
ATOM     18  O   UNL d   1      30.863 -12.905  -7.868  0.00  0.00    -0.304 OA
BRANCH  17  19
ATOM     19  C   UNL d   1      32.721 -12.708  -9.462  0.00  0.00     0.000 A 
ATOM     20  C   UNL d   1      33.538 -11.673  -9.932  0.00  0.00     0.014 A 
ATOM     21  C   UNL d   1      34.879 -11.912 -10.269  0.00  0.00     0.003 A 
ATOM     22  C   UNL d   1      35.440 -13.175 -10.078  0.00  0.00     0.036 A 
ATOM     23  C   UNL d   1      34.644 -14.205  -9.568  0.00  0.00     0.103 A 
ATOM     24  C   UNL d   1      33.296 -13.972  -9.247  0.00  0.00     0.050 A 
BRANCH  23  25
ATOM     25  N   UNL d   1      35.207 -15.553  -9.412  0.00  0.00    -0.116 N 
ATOM     26  O   UNL d   1      34.600 -16.352  -8.685  0.00  0.00    -0.532 OA
ATOM     27  O   UNL d   1      36.265 -15.808 -10.006  0.00  0.00    -0.532 OA
ENDBRANCH  23  25
ENDBRANCH  17  19
ENDBRANCH  11  14
ENDBRANCH   1  10
BRANCH   6  28
ATOM     28  C   UNL d   1      24.156 -16.828  -1.328  0.00  0.00     0.017 A 
ATOM     29  C   UNL d   1      24.337 -18.142  -0.879  0.00  0.00     0.017 A 
ATOM     30  C   UNL d   1      23.246 -18.902  -0.441  0.00  0.00     0.013 A 
ATOM     31  C   UNL d   1      21.960 -18.348  -0.366  0.00  0.00    -0.026 A 
ATOM     32  C   UNL d   1      21.785 -17.026  -0.800  0.00  0.00     0.013 A 
ATOM     33  C   UNL d   1      22.872 -16.271  -1.267  0.00  0.00     0.017 A 
BRANCH  31  34
ATOM     34  C   UNL d   1      20.841 -19.148   0.153  0.00  0.00    -0.026 A 
ATOM     35  C   UNL d   1      19.898 -19.711  -0.727  0.00  0.00     0.012 A 
ATOM     36  C   UNL d   1      18.765 -20.365  -0.243  0.00  0.00     0.001 A 
ATOM     37  C   UNL d   1      18.594 -20.534   1.129  0.00  0.00     0.000 A 
ATOM     38  C   UNL d   1      19.541 -20.023   2.014  0.00  0.00     0.001 A 
ATOM     39  C   UNL d   1      20.653 -19.330   1.530  0.00  0.00     0.012 A 
ENDBRANCH  31  34
ENDBRANCH   6  28
TORSDOF 6
ENDMDL
MODEL 3
REMARK VINA RESULT:    -8.217      1.636      2.380
REMARK INTER + INTRA:         -11.367
REMARK INTER:                 -10.007
REMARK INTRA:                  -1.360
REMARK CONF_INDEPENDENT:        1.790
REMARK UNBOUND:                -1.360
REMARK  6 active torsions:
REMARK  status: ('A' for Active; 'I' for Inactive)
REMARK       I    between atoms: C_2  and  N_3 
REMARK    1  A    between atoms: C_2  and  C_25 
REMARK    2  A    between atoms: N_3  and  C_4 
REMARK    3  A    between atoms: C_9  and  C_10 
REMARK    4  A    between atoms: C_13  and  C_14 
REMARK    5  A    between atoms: C_28  and  C_29 
REMARK    6  A    between atoms: C_33  and  N_34 
ROOT
ATOM      1  C   UNL d   1      28.766 -14.475  -4.168  0.00  0.00     0.037 A 
ATOM      2  C   UNL d   1      29.506 -14.977  -3.080  0.00  0.00     0.032 A 
ATOM      3  C   UNL d   1      28.918 -15.711  -2.029  0.00  0.00     0.042 A 
ATOM      4  C   UNL d   1      27.557 -15.955  -2.146  0.00  0.00     0.106 A 
ATOM      5  O   UNL d   1      26.738 -16.632  -1.277  0.00  0.00    -0.289 OA
ATOM      6  C   UNL d   1      25.514 -16.603  -1.899  0.00  0.00     0.180 A 
ATOM      7  N   UNL d   1      25.500 -15.967  -3.059  0.00  0.00    -0.221 NA
ATOM      8  C   UNL d   1      26.788 -15.518  -3.212  0.00  0.00     0.095 A 
ATOM      9  C   UNL d   1      27.384 -14.734  -4.228  0.00  0.00     0.064 A 
ENDROOT
BRANCH   1  10
ATOM     10  N   UNL d   1      29.402 -13.690  -5.187  0.00  0.00    -0.321 N 
ATOM     11  C   UNL d   1      29.570 -14.152  -6.496  0.00  0.00     0.280 C 
ATOM     12  O   UNL d   1      29.132 -15.256  -6.852  0.00  0.00    -0.265 OA
ATOM     13  H   UNL d   1      29.487 -12.692  -5.037  0.00  0.00     0.169 HD
BRANCH  11  14
ATOM     14  C   UNL d   1      30.126 -13.248  -7.504  0.00  0.00     0.144 A 
ATOM     15  C   UNL d   1      31.332 -13.387  -8.174  0.00  0.00     0.046 A 
ATOM     16  C   UNL d   1      31.555 -12.207  -8.907  0.00  0.00     0.041 A 
ATOM     17  C   UNL d   1      30.491 -11.374  -8.643  0.00  0.00     0.086 A 
ATOM     18  O   UNL d   1      29.591 -12.005  -7.803  0.00  0.00    -0.304 OA
BRANCH  17  19
ATOM     19  C   UNL d   1      30.194 -10.031  -9.134  0.00  0.00     0.000 A 
ATOM     20  C   UNL d   1      28.924  -9.673  -9.602  0.00  0.00     0.014 A 
ATOM     21  C   UNL d   1      28.670  -8.375 -10.071  0.00  0.00     0.003 A 
ATOM     22  C   UNL d   1      29.664  -7.398 -10.016  0.00  0.00     0.036 A 
ATOM     23  C   UNL d   1      30.922  -7.734  -9.509  0.00  0.00     0.103 A 
ATOM     24  C   UNL d   1      31.185  -9.038  -9.056  0.00  0.00     0.050 A 
BRANCH  23  25
ATOM     25  N   UNL d   1      31.995  -6.730  -9.495  0.00  0.00    -0.116 N 
ATOM     26  O   UNL d   1      31.676  -5.540  -9.628  0.00  0.00    -0.532 OA
ATOM     27  O   UNL d   1      33.160  -7.133  -9.363  0.00  0.00    -0.532 OA
ENDBRANCH  23  25
ENDBRANCH  17  19
ENDBRANCH  11  14
ENDBRANCH   1  10
BRANCH   6  28
ATOM     28  C   UNL d   1      24.378 -17.198  -1.201  0.00  0.00     0.017 A 
ATOM     29  C   UNL d   1      24.386 -18.565  -0.898  0.00  0.00     0.017 A 
ATOM     30  C   UNL d   1      23.221 -19.205  -0.461  0.00  0.00     0.013 A 
ATOM     31  C   UNL d   1      22.037 -18.485  -0.240  0.00  0.00    -0.026 A 
ATOM     32  C   UNL d   1      22.037 -17.113  -0.527  0.00  0.00     0.013 A 
ATOM     33  C   UNL d   1      23.196 -16.474  -0.994  0.00  0.00     0.017 A 
BRANCH  31  34
ATOM     34  C   UNL d   1      20.843 -19.170   0.275  0.00  0.00    -0.026 A 
ATOM     35  C   UNL d   1      20.650 -19.325   1.660  0.00  0.00     0.012 A 
ATOM     36  C   UNL d   1      19.588 -20.080   2.158  0.00  0.00     0.001 A 
ATOM     37  C   UNL d   1      18.657 -20.630   1.281  0.00  0.00     0.000 A 
ATOM     38  C   UNL d   1      18.805 -20.449  -0.093  0.00  0.00     0.001 A 
ATOM     39  C   UNL d   1      19.893 -19.729  -0.592  0.00  0.00     0.012 A 
ENDBRANCH  31  34
ENDBRANCH   6  28
TORSDOF 6
ENDMDL
MODEL 4
REMARK VINA RESULT:    -8.031      6.634     12.484
REMARK INTER + INTRA:         -11.006
REMARK INTER:                  -9.821
REMARK INTRA:                  -1.185
REMARK CONF_INDEPENDENT:        1.790
REMARK UNBOUND:                -1.185
REMARK  6 active torsions:
REMARK  status: ('A' for Active; 'I' for Inactive)
REMARK       I    between atoms: C_2  and  N_3 
REMARK    1  A    between atoms: C_2  and  C_25 
REMARK    2  A    between atoms: N_3  and  C_4 
REMARK    3  A    between atoms: C_9  and  C_10 
REMARK    4  A    between atoms: C_13  and  C_14 
REMARK    5  A    between atoms: C_28  and  C_29 
REMARK    6  A    between atoms: C_33  and  N_34 
ROOT
ATOM      1  C   UNL d   1      29.059 -16.608  -0.749  0.00  0.00     0.037 A 
ATOM      2  C   UNL d   1      27.692 -16.830  -0.489  0.00  0.00     0.032 A 
ATOM      3  C   UNL d   1      26.676 -15.969  -0.951  0.00  0.00     0.042 A 
ATOM      4  C   UNL d   1      27.094 -14.897  -1.726  0.00  0.00     0.106 A 
ATOM      5  O   UNL d   1      26.327 -13.912  -2.297  0.00  0.00    -0.289 OA
ATOM      6  C   UNL d   1      27.242 -13.143  -2.974  0.00  0.00     0.180 A 
ATOM      7  N   UNL d   1      28.495 -13.555  -2.868  0.00  0.00    -0.221 NA
ATOM      8  C   UNL d   1      28.419 -14.652  -2.046  0.00  0.00     0.095 A 
ATOM      9  C   UNL d   1      29.430 -15.493  -1.525  0.00  0.00     0.064 A 
ENDROOT
BRANCH   1  10
ATOM     10  N   UNL d   1      30.059 -17.485  -0.214  0.00  0.00    -0.321 N 
ATOM     11  C   UNL d   1      31.349 -17.049   0.104  0.00  0.00     0.280 C 
ATOM     12  O   UNL d   1      31.678 -15.860  -0.022  0.00  0.00    -0.265 OA
ATOM     13  H   UNL d   1      29.756 -18.361   0.195  0.00  0.00     0.169 HD
BRANCH  11  14
ATOM     14  C   UNL d   1      32.276 -17.979   0.752  0.00  0.00     0.144 A 
ATOM     15  C   UNL d   1      33.308 -18.682   0.150  0.00  0.00     0.046 A 
ATOM     16  C   UNL d   1      33.818 -19.591   1.095  0.00  0.00     0.041 A 
ATOM     17  C   UNL d   1      33.065 -19.432   2.237  0.00  0.00     0.086 A 
ATOM     18  O   UNL d   1      32.130 -18.430   2.054  0.00  0.00    -0.304 OA
BRANCH  17  19
ATOM     19  C   UNL d   1      33.152 -20.105   3.531  0.00  0.00     0.000 A 
ATOM     20  C   UNL d   1      34.377 -20.349   4.162  0.00  0.00     0.014 A 
ATOM     21  C   UNL d   1      34.429 -21.002   5.403  0.00  0.00     0.003 A 
ATOM     22  C   UNL d   1      33.252 -21.360   6.062  0.00  0.00     0.036 A 
ATOM     23  C   UNL d   1      32.022 -21.080   5.459  0.00  0.00     0.103 A 
ATOM     24  C   UNL d   1      31.968 -20.444   4.208  0.00  0.00     0.050 A 
BRANCH  23  25
ATOM     25  N   UNL d   1      30.776 -21.499   6.116  0.00  0.00    -0.116 N 
ATOM     26  O   UNL d   1      29.796 -21.738   5.398  0.00  0.00    -0.532 OA
ATOM     27  O   UNL d   1      30.775 -21.575   7.354  0.00  0.00    -0.532 OA
ENDBRANCH  23  25
ENDBRANCH  17  19
ENDBRANCH  11  14
ENDBRANCH   1  10
BRANCH   6  28
ATOM     28  C   UNL d   1      26.757 -11.949  -3.661  0.00  0.00     0.017 A 
ATOM     29  C   UNL d   1      26.283 -10.863  -2.915  0.00  0.00     0.017 A 
ATOM     30  C   UNL d   1      25.587  -9.820  -3.538  0.00  0.00     0.013 A 
ATOM     31  C   UNL d   1      25.413  -9.794  -4.930  0.00  0.00    -0.026 A 
ATOM     32  C   UNL d   1      25.905 -10.875  -5.675  0.00  0.00     0.013 A 
ATOM     33  C   UNL d   1      26.577 -11.936  -5.050  0.00  0.00     0.017 A 
BRANCH  31  34
ATOM     34  C   UNL d   1      24.730  -8.659  -5.566  0.00  0.00    -0.026 A 
ATOM     35  C   UNL d   1      25.270  -8.056  -6.717  0.00  0.00     0.012 A 
ATOM     36  C   UNL d   1      24.701  -6.902  -7.257  0.00  0.00     0.001 A 
ATOM     37  C   UNL d   1      23.538  -6.376  -6.701  0.00  0.00     0.000 A 
ATOM     38  C   UNL d   1      22.963  -6.986  -5.588  0.00  0.00     0.001 A 
ATOM     39  C   UNL d   1      23.558  -8.116  -5.022  0.00  0.00     0.012 A 
ENDBRANCH  31  34
ENDBRANCH   6  28
TORSDOF 6
ENDMDL
MODEL 5
REMARK VINA RESULT:    -8.002      7.445     11.251
REMARK INTER + INTRA:         -11.033
REMARK INTER:                  -9.792
REMARK INTRA:                  -1.242
REMARK CONF_INDEPENDENT:        1.790
REMARK UNBOUND:                -1.242
REMARK  6 active torsions:
REMARK  status: ('A' for Active; 'I' for Inactive)
REMARK       I    between atoms: C_2  and  N_3 
REMARK    1  A    between atoms: C_2  and  C_25 
REMARK    2  A    between atoms: N_3  and  C_4 
REMARK    3  A    between atoms: C_9  and  C_10 
REMARK    4  A    between atoms: C_13  and  C_14 
REMARK    5  A    between atoms: C_28  and  C_29 
REMARK    6  A    between atoms: C_33  and  N_34 
ROOT
ATOM      1  C   UNL d   1      26.023 -11.877  -4.957  0.00  0.00     0.037 A 
ATOM      2  C   UNL d   1      25.224 -12.955  -4.529  0.00  0.00     0.032 A 
ATOM      3  C   UNL d   1      25.658 -14.296  -4.577  0.00  0.00     0.042 A 
ATOM      4  C   UNL d   1      26.952 -14.498  -5.036  0.00  0.00     0.106 A 
ATOM      5  O   UNL d   1      27.623 -15.686  -5.188  0.00  0.00    -0.289 OA
ATOM      6  C   UNL d   1      28.864 -15.301  -5.633  0.00  0.00     0.180 A 
ATOM      7  N   UNL d   1      29.017 -13.995  -5.776  0.00  0.00    -0.221 NA
ATOM      8  C   UNL d   1      27.795 -13.473  -5.432  0.00  0.00     0.095 A 
ATOM      9  C   UNL d   1      27.321 -12.140  -5.431  0.00  0.00     0.064 A 
ENDROOT
BRANCH   1  10
ATOM     10  N   UNL d   1      25.516 -10.535  -4.935  0.00  0.00    -0.321 N 
ATOM     11  C   UNL d   1      25.711  -9.640  -5.991  0.00  0.00     0.280 C 
ATOM     12  O   UNL d   1      26.300  -9.984  -7.027  0.00  0.00    -0.265 OA
ATOM     13  H   UNL d   1      24.780 -10.314  -4.274  0.00  0.00     0.169 HD
BRANCH  11  14
ATOM     14  C   UNL d   1      25.066  -8.328  -5.941  0.00  0.00     0.144 A 
ATOM     15  C   UNL d   1      25.635  -7.135  -5.523  0.00  0.00     0.046 A 
ATOM     16  C   UNL d   1      24.614  -6.169  -5.461  0.00  0.00     0.041 A 
ATOM     17  C   UNL d   1      23.448  -6.809  -5.819  0.00  0.00     0.086 A 
ATOM     18  O   UNL d   1      23.709  -8.128  -6.142  0.00  0.00    -0.304 OA
BRANCH  17  19
ATOM     19  C   UNL d   1      22.084  -6.298  -5.935  0.00  0.00     0.000 A 
ATOM     20  C   UNL d   1      21.515  -5.468  -4.963  0.00  0.00     0.014 A 
ATOM     21  C   UNL d   1      20.200  -4.996  -5.100  0.00  0.00     0.003 A 
ATOM     22  C   UNL d   1      19.460  -5.294  -6.245  0.00  0.00     0.036 A 
ATOM     23  C   UNL d   1      20.036  -6.086  -7.242  0.00  0.00     0.103 A 
ATOM     24  C   UNL d   1      21.345  -6.575  -7.098  0.00  0.00     0.050 A 
BRANCH  23  25
ATOM     25  N   UNL d   1      19.249  -6.452  -8.428  0.00  0.00    -0.116 N 
ATOM     26  O   UNL d   1      19.852  -6.938  -9.394  0.00  0.00    -0.532 OA
ATOM     27  O   UNL d   1      18.028  -6.240  -8.396  0.00  0.00    -0.532 OA
ENDBRANCH  23  25
ENDBRANCH  17  19
ENDBRANCH  11  14
ENDBRANCH   1  10
BRANCH   6  28
ATOM     28  C   UNL d   1      29.829 -16.347  -5.957  0.00  0.00     0.017 A 
ATOM     29  C   UNL d   1      30.428 -16.373  -7.223  0.00  0.00     0.017 A 
ATOM     30  C   UNL d   1      31.155 -17.492  -7.645  0.00  0.00     0.013 A 
ATOM     31  C   UNL d   1      31.370 -18.582  -6.788  0.00  0.00    -0.026 A 
ATOM     32  C   UNL d   1      30.784 -18.546  -5.515  0.00  0.00     0.013 A 
ATOM     33  C   UNL d   1      30.030 -17.438  -5.100  0.00  0.00     0.017 A 
BRANCH  31  34
ATOM     34  C   UNL d   1      32.186 -19.721  -7.234  0.00  0.00    -0.026 A 
ATOM     35  C   UNL d   1      31.602 -20.779  -7.954  0.00  0.00     0.012 A 
ATOM     36  C   UNL d   1      32.337 -21.922  -8.273  0.00  0.00     0.001 A 
ATOM     37  C   UNL d   1      33.688 -21.993  -7.945  0.00  0.00     0.000 A 
ATOM     38  C   UNL d   1      34.295 -20.935  -7.272  0.00  0.00     0.001 A 
ATOM     39  C   UNL d   1      33.548 -19.809  -6.914  0.00  0.00     0.012 A 
ENDBRANCH  31  34
ENDBRANCH   6  28
TORSDOF 6
ENDMDL
MODEL 6
REMARK VINA RESULT:    -7.969      1.415      1.871
REMARK INTER + INTRA:         -11.173
REMARK INTER:                  -9.759
REMARK INTRA:                  -1.414
REMARK CONF_INDEPENDENT:        1.790
REMARK UNBOUND:                -1.414
REMARK  6 active torsions:
REMARK  status: ('A' for Active; 'I' for Inactive)
REMARK       I    between atoms: C_2  and  N_3 
REMARK    1  A    between atoms: C_2  and  C_25 
REMARK    2  A    between atoms: N_3  and  C_4 
REMARK    3  A    between atoms: C_9  and  C_10 
REMARK    4  A    between atoms: C_13  and  C_14 
REMARK    5  A    between atoms: C_28  and  C_29 
REMARK    6  A    between atoms: C_33  and  N_34 
ROOT
ATOM      1  C   UNL d   1      28.819 -14.592  -3.965  0.00  0.00     0.037 A 
ATOM      2  C   UNL d   1      29.543 -15.237  -2.943  0.00  0.00     0.032 A 
ATOM      3  C   UNL d   1      28.927 -16.020  -1.947  0.00  0.00     0.042 A 
ATOM      4  C   UNL d   1      27.550 -16.163  -2.052  0.00  0.00     0.106 A 
ATOM      5  O   UNL d   1      26.703 -16.859  -1.226  0.00  0.00    -0.289 OA
ATOM      6  C   UNL d   1      25.472 -16.695  -1.813  0.00  0.00     0.180 A 
ATOM      7  N   UNL d   1      25.480 -15.959  -2.912  0.00  0.00    -0.221 NA
ATOM      8  C   UNL d   1      26.793 -15.584  -3.057  0.00  0.00     0.095 A 
ATOM      9  C   UNL d   1      27.422 -14.753  -4.014  0.00  0.00     0.064 A 
ENDROOT
BRANCH   1  10
ATOM     10  N   UNL d   1      29.488 -13.763  -4.926  0.00  0.00    -0.321 N 
ATOM     11  C   UNL d   1      29.104 -13.710  -6.270  0.00  0.00     0.280 C 
ATOM     12  O   UNL d   1      28.127 -14.351  -6.687  0.00  0.00    -0.265 OA
ATOM     13  H   UNL d   1      30.066 -13.006  -4.583  0.00  0.00     0.169 HD
BRANCH  11  14
ATOM     14  C   UNL d   1      29.763 -12.755  -7.162  0.00  0.00     0.144 A 
ATOM     15  C   UNL d   1      29.526 -12.579  -8.516  0.00  0.00     0.046 A 
ATOM     16  C   UNL d   1      30.503 -11.697  -9.014  0.00  0.00     0.041 A 
ATOM     17  C   UNL d   1      31.322 -11.383  -7.952  0.00  0.00     0.086 A 
ATOM     18  O   UNL d   1      30.870 -12.003  -6.802  0.00  0.00    -0.304 OA
BRANCH  17  19
ATOM     19  C   UNL d   1      32.492 -10.510  -7.884  0.00  0.00     0.000 A 
ATOM     20  C   UNL d   1      33.663 -10.777  -8.603  0.00  0.00     0.014 A 
ATOM     21  C   UNL d   1      34.772  -9.921  -8.514  0.00  0.00     0.003 A 
ATOM     22  C   UNL d   1      34.701  -8.751  -7.758  0.00  0.00     0.036 A 
ATOM     23  C   UNL d   1      33.520  -8.453  -7.072  0.00  0.00     0.103 A 
ATOM     24  C   UNL d   1      32.415  -9.317  -7.144  0.00  0.00     0.050 A 
BRANCH  23  25
ATOM     25  N   UNL d   1      33.449  -7.251  -6.229  0.00  0.00    -0.116 N 
ATOM     26  O   UNL d   1      32.721  -6.323  -6.606  0.00  0.00    -0.532 OA
ATOM     27  O   UNL d   1      34.134  -7.232  -5.196  0.00  0.00    -0.532 OA
ENDBRANCH  23  25
ENDBRANCH  17  19
ENDBRANCH  11  14
ENDBRANCH   1  10
BRANCH   6  28
ATOM     28  C   UNL d   1      24.312 -17.273  -1.143  0.00  0.00     0.017 A 
ATOM     29  C   UNL d   1      24.404 -18.547  -0.567  0.00  0.00     0.017 A 
ATOM     30  C   UNL d   1      23.254 -19.223  -0.145  0.00  0.00     0.013 A 
ATOM     31  C   UNL d   1      21.990 -18.617  -0.213  0.00  0.00    -0.026 A 
ATOM     32  C   UNL d   1      21.903 -17.336  -0.773  0.00  0.00     0.013 A 
ATOM     33  C   UNL d   1      23.051 -16.666  -1.225  0.00  0.00     0.017 A 
BRANCH  31  34
ATOM     34  C   UNL d   1      20.805 -19.326   0.291  0.00  0.00    -0.026 A 
ATOM     35  C   UNL d   1      19.872 -19.882  -0.603  0.00  0.00     0.012 A 
ATOM     36  C   UNL d   1      18.682 -20.446  -0.141  0.00  0.00     0.001 A 
ATOM     37  C   UNL d   1      18.440 -20.531   1.228  0.00  0.00     0.000 A 
ATOM     38  C   UNL d   1      19.373 -20.026   2.131  0.00  0.00     0.001 A 
ATOM     39  C   UNL d   1      20.545 -19.423   1.665  0.00  0.00     0.012 A 
ENDBRANCH  31  34
ENDBRANCH   6  28
TORSDOF 6
ENDMDL
MODEL 7
REMARK VINA RESULT:    -7.850      7.384      9.573
REMARK INTER + INTRA:         -11.146
REMARK INTER:                  -9.640
REMARK INTRA:                  -1.506
REMARK CONF_INDEPENDENT:        1.790
REMARK UNBOUND:                -1.506
REMARK  6 active torsions:
REMARK  status: ('A' for Active; 'I' for Inactive)
REMARK       I    between atoms: C_2  and  N_3 
REMARK    1  A    between atoms: C_2  and  C_25 
REMARK    2  A    between atoms: N_3  and  C_4 
REMARK    3  A    between atoms: C_9  and  C_10 
REMARK    4  A    between atoms: C_13  and  C_14 
REMARK    5  A    between atoms: C_28  and  C_29 
REMARK    6  A    between atoms: C_33  and  N_34 
ROOT
ATOM      1  C   UNL d   1      28.282 -14.892  -0.716  0.00  0.00     0.037 A 
ATOM      2  C   UNL d   1      27.042 -14.229  -0.634  0.00  0.00     0.032 A 
ATOM      3  C   UNL d   1      26.522 -13.727   0.576  0.00  0.00     0.042 A 
ATOM      4  C   UNL d   1      27.329 -13.882   1.695  0.00  0.00     0.106 A 
ATOM      5  O   UNL d   1      27.073 -13.495   2.986  0.00  0.00    -0.289 OA
ATOM      6  C   UNL d   1      28.212 -13.857   3.663  0.00  0.00     0.180 A 
ATOM      7  N   UNL d   1      29.137 -14.436   2.915  0.00  0.00    -0.221 NA
ATOM      8  C   UNL d   1      28.572 -14.490   1.665  0.00  0.00     0.095 A 
ATOM      9  C   UNL d   1      29.052 -15.040   0.453  0.00  0.00     0.064 A 
ENDROOT
BRANCH   1  10
ATOM     10  N   UNL d   1      28.744 -15.430  -1.963  0.00  0.00    -0.321 N 
ATOM     11  C   UNL d   1      28.868 -14.652  -3.118  0.00  0.00     0.280 C 
ATOM     12  O   UNL d   1      28.622 -13.436  -3.106  0.00  0.00    -0.265 OA
ATOM     13  H   UNL d   1      29.244 -16.311  -1.946  0.00  0.00     0.169 HD
BRANCH  11  14
ATOM     14  C   UNL d   1      29.453 -15.249  -4.320  0.00  0.00     0.144 A 
ATOM     15  C   UNL d   1      29.615 -14.644  -5.556  0.00  0.00     0.046 A 
ATOM     16  C   UNL d   1      30.043 -15.630  -6.465  0.00  0.00     0.041 A 
ATOM     17  C   UNL d   1      30.104 -16.811  -5.760  0.00  0.00     0.086 A 
ATOM     18  O   UNL d   1      29.770 -16.593  -4.436  0.00  0.00    -0.304 OA
BRANCH  17  19
ATOM     19  C   UNL d   1      30.490 -18.153  -6.191  0.00  0.00     0.000 A 
ATOM     20  C   UNL d   1      30.590 -19.223  -5.294  0.00  0.00     0.014 A 
ATOM     21  C   UNL d   1      30.967 -20.500  -5.737  0.00  0.00     0.003 A 
ATOM     22  C   UNL d   1      31.185 -20.740  -7.094  0.00  0.00     0.036 A 
ATOM     23  C   UNL d   1      31.045 -19.687  -8.003  0.00  0.00     0.103 A 
ATOM     24  C   UNL d   1      30.686 -18.404  -7.559  0.00  0.00     0.050 A 
BRANCH  23  25
ATOM     25  N   UNL d   1      31.324 -19.913  -9.428  0.00  0.00    -0.116 N 
ATOM     26  O   UNL d   1      32.461 -20.288  -9.743  0.00  0.00    -0.532 OA
ATOM     27  O   UNL d   1      30.406 -19.700 -10.235  0.00  0.00    -0.532 OA
ENDBRANCH  23  25
ENDBRANCH  17  19
ENDBRANCH  11  14
ENDBRANCH   1  10
BRANCH   6  28
ATOM     28  C   UNL d   1      28.250 -13.635   5.106  0.00  0.00     0.017 A 
ATOM     29  C   UNL d   1      27.778 -12.427   5.636  0.00  0.00     0.017 A 
ATOM     30  C   UNL d   1      28.030 -12.088   6.970  0.00  0.00     0.013 A 
ATOM     31  C   UNL d   1      28.692 -12.977   7.832  0.00  0.00    -0.026 A 
ATOM     32  C   UNL d   1      29.147 -14.192   7.302  0.00  0.00     0.013 A 
ATOM     33  C   UNL d   1      28.922 -14.522   5.957  0.00  0.00     0.017 A 
BRANCH  31  34
ATOM     34  C   UNL d   1      28.893 -12.622   9.244  0.00  0.00    -0.026 A 
ATOM     35  C   UNL d   1      29.908 -11.721   9.616  0.00  0.00     0.012 A 
ATOM     36  C   UNL d   1      30.191 -11.473  10.959  0.00  0.00     0.001 A 
ATOM     37  C   UNL d   1      29.414 -12.063  11.953  0.00  0.00     0.000 A 
ATOM     38  C   UNL d   1      28.375 -12.922  11.603  0.00  0.00     0.001 A 
ATOM     39  C   UNL d   1      28.120 -13.204  10.258  0.00  0.00     0.012 A 
ENDBRANCH  31  34
ENDBRANCH   6  28
TORSDOF 6
ENDMDL
MODEL 8
REMARK VINA RESULT:    -7.776      9.111     11.487
REMARK INTER + INTRA:         -11.010
REMARK INTER:                  -9.566
REMARK INTRA:                  -1.444
REMARK CONF_INDEPENDENT:        1.790
REMARK UNBOUND:                -1.444
REMARK  6 active torsions:
REMARK  status: ('A' for Active; 'I' for Inactive)
REMARK       I    between atoms: C_2  and  N_3 
REMARK    1  A    between atoms: C_2  and  C_25 
REMARK    2  A    between atoms: N_3  and  C_4 
REMARK    3  A    between atoms: C_9  and  C_10 
REMARK    4  A    between atoms: C_13  and  C_14 
REMARK    5  A    between atoms: C_28  and  C_29 
REMARK    6  A    between atoms: C_33  and  N_34 
ROOT
ATOM      1  C   UNL d   1      31.556 -20.378  -0.481  0.00  0.00     0.037 A 
ATOM      2  C   UNL d   1      30.788 -21.498  -0.107  0.00  0.00     0.032 A 
ATOM      3  C   UNL d   1      30.867 -22.087   1.172  0.00  0.00     0.042 A 
ATOM      4  C   UNL d   1      31.724 -21.470   2.073  0.00  0.00     0.106 A 
ATOM      5  O   UNL d   1      31.994 -21.829   3.369  0.00  0.00    -0.289 OA
ATOM      6  C   UNL d   1      32.871 -20.861   3.796  0.00  0.00     0.180 A 
ATOM      7  N   UNL d   1      33.170 -19.949   2.886  0.00  0.00    -0.221 NA
ATOM      8  C   UNL d   1      32.473 -20.345   1.771  0.00  0.00     0.095 A 
ATOM      9  C   UNL d   1      32.425 -19.803   0.466  0.00  0.00     0.064 A 
ENDROOT
BRANCH   1  10
ATOM     10  N   UNL d   1      31.477 -19.847  -1.811  0.00  0.00    -0.321 N 
ATOM     11  C   UNL d   1      31.403 -20.663  -2.944  0.00  0.00     0.280 C 
ATOM     12  O   UNL d   1      31.358 -21.899  -2.846  0.00  0.00    -0.265 OA
ATOM     13  H   UNL d   1      31.198 -18.879  -1.922  0.00  0.00     0.169 HD
BRANCH  11  14
ATOM     14  C   UNL d   1      31.211 -20.045  -4.256  0.00  0.00     0.144 A 
ATOM     15  C   UNL d   1      31.386 -20.644  -5.494  0.00  0.00     0.046 A 
ATOM     16  C   UNL d   1      31.277 -19.643  -6.477  0.00  0.00     0.041 A 
ATOM     17  C   UNL d   1      31.062 -18.459  -5.807  0.00  0.00     0.086 A 
ATOM     18  O   UNL d   1      30.994 -18.689  -4.444  0.00  0.00    -0.304 OA
BRANCH  17  19
ATOM     19  C   UNL d   1      30.869 -17.104  -6.316  0.00  0.00     0.000 A 
ATOM     20  C   UNL d   1      31.821 -16.468  -7.122  0.00  0.00     0.014 A 
ATOM     21  C   UNL d   1      31.609 -15.164  -7.593  0.00  0.00     0.003 A 
ATOM     22  C   UNL d   1      30.412 -14.501  -7.320  0.00  0.00     0.036 A 
ATOM     23  C   UNL d   1      29.437 -15.144  -6.553  0.00  0.00     0.103 A 
ATOM     24  C   UNL d   1      29.655 -16.443  -6.064  0.00  0.00     0.050 A 
BRANCH  23  25
ATOM     25  N   UNL d   1      28.194 -14.438  -6.212  0.00  0.00    -0.116 N 
ATOM     26  O   UNL d   1      27.225 -15.117  -5.844  0.00  0.00    -0.532 OA
ATOM     27  O   UNL d   1      28.183 -13.203  -6.327  0.00  0.00    -0.532 OA
ENDBRANCH  23  25
ENDBRANCH  17  19
ENDBRANCH  11  14
ENDBRANCH   1  10
BRANCH   6  28
ATOM     28  C   UNL d   1      33.416 -20.979   5.145  0.00  0.00     0.017 A 
ATOM     29  C   UNL d   1      34.710 -20.515   5.415  0.00  0.00     0.017 A 
ATOM     30  C   UNL d   1      35.346 -20.839   6.620  0.00  0.00     0.013 A 
ATOM     31  C   UNL d   1      34.681 -21.567   7.618  0.00  0.00    -0.026 A 
ATOM     32  C   UNL d   1      33.380 -22.014   7.351  0.00  0.00     0.013 A 
ATOM     33  C   UNL d   1      32.750 -21.717   6.133  0.00  0.00     0.017 A 
BRANCH  31  34
ATOM     34  C   UNL d   1      35.349 -21.843   8.898  0.00  0.00    -0.026 A 
ATOM     35  C   UNL d   1      35.655 -23.165   9.272  0.00  0.00     0.012 A 
ATOM     36  C   UNL d   1      36.174 -23.452  10.535  0.00  0.00     0.001 A 
ATOM     37  C   UNL d   1      36.467 -22.415  11.417  0.00  0.00     0.000 A 
ATOM     38  C   UNL d   1      36.213 -21.096  11.047  0.00  0.00     0.001 A 
ATOM     39  C   UNL d   1      35.653 -20.813   9.798  0.00  0.00     0.012 A 
ENDBRANCH  31  34
ENDBRANCH   6  28
TORSDOF 6
ENDMDL
MODEL 9
REMARK VINA RESULT:    -7.626      7.388     13.806
REMARK INTER + INTRA:         -10.912
REMARK INTER:                  -9.416
REMARK INTRA:                  -1.496
REMARK CONF_INDEPENDENT:        1.790
REMARK UNBOUND:                -1.496
REMARK  6 active torsions:
REMARK  status: ('A' for Active; 'I' for Inactive)
REMARK       I    between atoms: C_2  and  N_3 
REMARK    1  A    between atoms: C_2  and  C_25 
REMARK    2  A    between atoms: N_3  and  C_4 
REMARK    3  A    between atoms: C_9  and  C_10 
REMARK    4  A    between atoms: C_13  and  C_14 
REMARK    5  A    between atoms: C_28  and  C_29 
REMARK    6  A    between atoms: C_33  and  N_34 
ROOT
ATOM      1  C   UNL d   1      28.283 -15.044   1.189  0.00  0.00     0.037 A 
ATOM      2  C   UNL d   1      26.990 -15.221   0.659  0.00  0.00     0.032 A 
ATOM      3  C   UNL d   1      26.758 -15.685  -0.652  0.00  0.00     0.042 A 
ATOM      4  C   UNL d   1      27.888 -16.006  -1.391  0.00  0.00     0.106 A 
ATOM      5  O   UNL d   1      27.954 -16.472  -2.681  0.00  0.00    -0.289 OA
ATOM      6  C   UNL d   1      29.300 -16.653  -2.889  0.00  0.00     0.180 A 
ATOM      7  N   UNL d   1      30.065 -16.336  -1.857  0.00  0.00    -0.221 NA
ATOM      8  C   UNL d   1      29.180 -15.889  -0.908  0.00  0.00     0.095 A 
ATOM      9  C   UNL d   1      29.395 -15.367   0.389  0.00  0.00     0.064 A 
ENDROOT
BRANCH   1  10
ATOM     10  N   UNL d   1      28.468 -14.521   2.512  0.00  0.00    -0.321 N 
ATOM     11  C   UNL d   1      27.829 -13.359   2.956  0.00  0.00     0.280 C 
ATOM     12  O   UNL d   1      27.030 -12.745   2.233  0.00  0.00    -0.265 OA
ATOM     13  H   UNL d   1      28.845 -15.138   3.221  0.00  0.00     0.169 HD
BRANCH  11  14
ATOM     14  C   UNL d   1      27.981 -12.953   4.355  0.00  0.00     0.144 A 
ATOM     15  C   UNL d   1      27.789 -11.684   4.880  0.00  0.00     0.046 A 
ATOM     16  C   UNL d   1      28.220 -11.703   6.219  0.00  0.00     0.041 A 
ATOM     17  C   UNL d   1      28.686 -12.976   6.462  0.00  0.00     0.086 A 
ATOM     18  O   UNL d   1      28.524 -13.765   5.337  0.00  0.00    -0.304 OA
BRANCH  17  19
ATOM     19  C   UNL d   1      29.244 -13.565   7.677  0.00  0.00     0.000 A 
ATOM     20  C   UNL d   1      30.508 -14.166   7.700  0.00  0.00     0.014 A 
ATOM     21  C   UNL d   1      31.016 -14.727   8.882  0.00  0.00     0.003 A 
ATOM     22  C   UNL d   1      30.296 -14.636  10.073  0.00  0.00     0.036 A 
ATOM     23  C   UNL d   1      29.051 -13.999  10.069  0.00  0.00     0.103 A 
ATOM     24  C   UNL d   1      28.532 -13.453   8.883  0.00  0.00     0.050 A 
BRANCH  23  25
ATOM     25  N   UNL d   1      28.257 -13.942  11.304  0.00  0.00    -0.116 N 
ATOM     26  O   UNL d   1      27.405 -13.049  11.404  0.00  0.00    -0.532 OA
ATOM     27  O   UNL d   1      28.496 -14.786  12.181  0.00  0.00    -0.532 OA
ENDBRANCH  23  25
ENDBRANCH  17  19
ENDBRANCH  11  14
ENDBRANCH   1  10
BRANCH   6  28
ATOM     28  C   UNL d   1      29.734 -17.096  -4.211  0.00  0.00     0.017 A 
ATOM     29  C   UNL d   1      30.404 -18.318  -4.350  0.00  0.00     0.017 A 
ATOM     30  C   UNL d   1      31.045 -18.647  -5.549  0.00  0.00     0.013 A 
ATOM     31  C   UNL d   1      30.971 -17.801  -6.667  0.00  0.00    -0.026 A 
ATOM     32  C   UNL d   1      30.284 -16.587  -6.530  0.00  0.00     0.013 A 
ATOM     33  C   UNL d   1      29.665 -16.241  -5.319  0.00  0.00     0.017 A 
BRANCH  31  34
ATOM     34  C   UNL d   1      31.604 -18.196  -7.933  0.00  0.00    -0.026 A 
ATOM     35  C   UNL d   1      31.147 -19.324  -8.639  0.00  0.00     0.012 A 
ATOM     36  C   UNL d   1      31.817 -19.782  -9.774  0.00  0.00     0.001 A 
ATOM     37  C   UNL d   1      32.910 -19.074 -10.266  0.00  0.00     0.000 A 
ATOM     38  C   UNL d   1      33.350 -17.929  -9.607  0.00  0.00     0.001 A 
ATOM     39  C   UNL d   1      32.705 -17.496  -8.446  0.00  0.00     0.012 A 
ENDBRANCH  31  34
ENDBRANCH   6  28
TORSDOF 6
ENDMDL
