MODEL 1
REMARK VINA RESULT:    -8.431      0.000      0.000
REMARK INTER + INTRA:         -12.567
REMARK INTER:                 -11.414
REMARK INTRA:                  -1.153
REMARK CONF_INDEPENDENT:        2.983
REMARK UNBOUND:                -1.153
REMARK  10 active torsions:
REMARK  status: ('A' for Active; 'I' for Inactive)
REMARK    1  A    between atoms: C_2  and  O_3 
REMARK    2  A    between atoms: O_3  and  C_4 
REMARK    3  A    between atoms: C_8  and  C_9 
REMARK    4  A    between atoms: N_10  and  N_11 
REMARK       I    between atoms: N_11  and  C_12 
REMARK    5  A    between atoms: C_12  and  C_14 
REMARK    6  A    between atoms: C_16  and  C_17 
REMARK    7  A    between atoms: C_20  and  O_21 
REMARK    8  A    between atoms: O_21  and  C_22 
REMARK    9  A    between atoms: C_22  and  C_23 
REMARK   10  A    between atoms: C_34  and  O_35 
ROOT
ATOM      1  C   UNL d   1      28.943 -14.453   2.068  0.00  0.00     0.121 A 
ATOM      2  C   UNL d   1      27.787 -15.209   2.046  0.00  0.00     0.071 A 
ATOM      3  C   UNL d   1      27.618 -15.645   0.705  0.00  0.00     0.089 A 
ATOM      4  N   UNL d   1      28.645 -15.242  -0.054  0.00  0.00    -0.174 NA
ATOM      5  N   UNL d   1      29.398 -14.488   0.773  0.00  0.00    -0.272 N 
ATOM      6  H   UNL d   1      30.224 -14.034   0.390  0.00  0.00     0.189 HD
ENDROOT
BRANCH   1   7
ATOM      7  C   UNL d   1      29.549 -13.676   3.121  0.00  0.00     0.289 C 
ATOM      8  N   UNL d   1      29.573 -14.275   4.385  0.00  0.00    -0.242 N 
ATOM      9  H   UNL d   1      29.273 -15.235   4.507  0.00  0.00     0.192 HD
ATOM     10  O   UNL d   1      30.017 -12.552   2.897  0.00  0.00    -0.264 OA
BRANCH   8  11
ATOM     11  N   UNL d   1      30.053 -13.572   5.457  0.00  0.00    -0.183 NA
ATOM     12  C   UNL d   1      29.524 -13.735   6.633  0.00  0.00     0.153 C 
BRANCH  12  13
ATOM     13  C   UNL d   1      30.028 -12.940   7.797  0.00  0.00     0.019 A 
ATOM     14  C   UNL d   1      30.425 -11.606   7.625  0.00  0.00     0.016 A 
ATOM     15  C   UNL d   1      30.883 -10.859   8.720  0.00  0.00     0.004 A 
ATOM     16  C   UNL d   1      30.947 -11.439   9.987  0.00  0.00     0.040 A 
ATOM     17  C   UNL d   1      30.569 -12.774  10.176  0.00  0.00     0.102 A 
ATOM     18  C   UNL d   1      30.118 -13.522   9.071  0.00  0.00     0.110 A 
BRANCH  17  19
ATOM     19  O   UNL d   1      30.683 -13.192  11.479  0.00  0.00    -0.349 OA
BRANCH  19  20
ATOM     20  C   UNL d   1      29.482 -13.386  12.227  0.00  0.00     0.171 C 
ATOM     21  C   UNL d   1      28.263 -12.924  11.435  0.00  0.00     0.034 C 
ENDBRANCH  19  20
ENDBRANCH  17  19
BRANCH  18  22
ATOM     22  O   UNL d   1      29.766 -14.837   9.241  0.00  0.00    -0.357 OA
ATOM     23  H   UNL d   1      29.184 -15.138   8.511  0.00  0.00     0.217 HD
ENDBRANCH  18  22
ENDBRANCH  12  13
ENDBRANCH   8  11
ENDBRANCH   1   7
BRANCH   3  24
ATOM     24  C   UNL d   1      26.507 -16.427   0.171  0.00  0.00    -0.005 A 
ATOM     25  C   UNL d   1      26.492 -17.824   0.288  0.00  0.00     0.016 A 
ATOM     26  C   UNL d   1      25.427 -18.574  -0.227  0.00  0.00     0.037 A 
ATOM     27  C   UNL d   1      24.370 -17.934  -0.871  0.00  0.00     0.069 A 
ATOM     28  C   UNL d   1      24.395 -16.543  -1.012  0.00  0.00     0.037 A 
ATOM     29  C   UNL d   1      25.451 -15.793  -0.489  0.00  0.00     0.016 A 
BRANCH  27  30
ATOM     30  O   UNL d   1      23.270 -18.544  -1.398  0.00  0.00    -0.347 OA
BRANCH  30  31
ATOM     31  C   UNL d   1      22.014 -17.875  -1.269  0.00  0.00     0.214 C 
BRANCH  31  32
ATOM     32  C   UNL d   1      21.044 -18.804  -0.574  0.00  0.00    -0.034 A 
ATOM     33  C   UNL d   1      19.943 -19.321  -1.270  0.00  0.00     0.011 A 
ATOM     34  C   UNL d   1      18.980 -20.079  -0.598  0.00  0.00     0.024 A 
ATOM     35  C   UNL d   1      19.164 -20.402   0.745  0.00  0.00     0.034 A 
ATOM     36 CL   UNL d   1      18.023 -21.411   1.544  0.00  0.00    -0.084 Cl
ATOM     37  C   UNL d   1      20.282 -19.942   1.435  0.00  0.00     0.024 A 
ATOM     38  C   UNL d   1      21.221 -19.150   0.776  0.00  0.00     0.011 A 
ENDBRANCH  31  32
ENDBRANCH  30  31
ENDBRANCH  27  30
ENDBRANCH   3  24
TORSDOF 10
ENDMDL
MODEL 2
REMARK VINA RESULT:    -8.154      8.907     12.750
REMARK INTER + INTRA:         -13.224
REMARK INTER:                 -11.137
REMARK INTRA:                  -2.087
REMARK CONF_INDEPENDENT:        2.983
REMARK UNBOUND:                -2.087
REMARK  10 active torsions:
REMARK  status: ('A' for Active; 'I' for Inactive)
REMARK    1  A    between atoms: C_2  and  O_3 
REMARK    2  A    between atoms: O_3  and  C_4 
REMARK    3  A    between atoms: C_8  and  C_9 
REMARK    4  A    between atoms: N_10  and  N_11 
REMARK       I    between atoms: N_11  and  C_12 
REMARK    5  A    between atoms: C_12  and  C_14 
REMARK    6  A    between atoms: C_16  and  C_17 
REMARK    7  A    between atoms: C_20  and  O_21 
REMARK    8  A    between atoms: O_21  and  C_22 
REMARK    9  A    between atoms: C_22  and  C_23 
REMARK   10  A    between atoms: C_34  and  O_35 
ROOT
ATOM      1  C   UNL d   1      26.361 -12.353  -5.386  0.00  0.00     0.121 A 
ATOM      2  C   UNL d   1      25.531 -11.264  -5.570  0.00  0.00     0.071 A 
ATOM      3  C   UNL d   1      26.319 -10.261  -6.194  0.00  0.00     0.089 A 
ATOM      4  N   UNL d   1      27.552 -10.720  -6.447  0.00  0.00    -0.174 NA
ATOM      5  N   UNL d   1      27.567 -11.956  -5.909  0.00  0.00    -0.272 N 
ATOM      6  H   UNL d   1      28.435 -12.484  -5.945  0.00  0.00     0.189 HD
ENDROOT
BRANCH   1   7
ATOM      7  C   UNL d   1      26.143 -13.610  -4.711  0.00  0.00     0.289 C 
ATOM      8  N   UNL d   1      24.981 -13.693  -3.936  0.00  0.00    -0.242 N 
ATOM      9  H   UNL d   1      24.300 -12.943  -3.947  0.00  0.00     0.192 HD
ATOM     10  O   UNL d   1      26.945 -14.545  -4.829  0.00  0.00    -0.264 OA
BRANCH   8  11
ATOM     11  N   UNL d   1      24.741 -14.819  -3.196  0.00  0.00    -0.183 NA
ATOM     12  C   UNL d   1      25.354 -14.997  -2.064  0.00  0.00     0.153 C 
BRANCH  12  13
ATOM     13  C   UNL d   1      25.116 -16.246  -1.273  0.00  0.00     0.019 A 
ATOM     14  C   UNL d   1      26.191 -17.073  -0.914  0.00  0.00     0.016 A 
ATOM     15  C   UNL d   1      25.966 -18.234  -0.161  0.00  0.00     0.004 A 
ATOM     16  C   UNL d   1      24.672 -18.575   0.234  0.00  0.00     0.040 A 
ATOM     17  C   UNL d   1      23.585 -17.770  -0.128  0.00  0.00     0.102 A 
ATOM     18  C   UNL d   1      23.815 -16.609  -0.891  0.00  0.00     0.110 A 
BRANCH  17  19
ATOM     19  O   UNL d   1      22.382 -18.237   0.342  0.00  0.00    -0.349 OA
BRANCH  19  20
ATOM     20  C   UNL d   1      21.431 -18.714  -0.610  0.00  0.00     0.171 C 
ATOM     21  C   UNL d   1      20.443 -19.679   0.038  0.00  0.00     0.034 C 
ENDBRANCH  19  20
ENDBRANCH  17  19
BRANCH  18  22
ATOM     22  O   UNL d   1      22.754 -15.826  -1.270  0.00  0.00    -0.357 OA
ATOM     23  H   UNL d   1      22.956 -15.349  -2.103  0.00  0.00     0.217 HD
ENDBRANCH  18  22
ENDBRANCH  12  13
ENDBRANCH   8  11
ENDBRANCH   1   7
BRANCH   3  24
ATOM     24  C   UNL d   1      25.900  -8.906  -6.540  0.00  0.00    -0.005 A 
ATOM     25  C   UNL d   1      26.559  -8.188  -7.549  0.00  0.00     0.016 A 
ATOM     26  C   UNL d   1      26.157  -6.887  -7.878  0.00  0.00     0.037 A 
ATOM     27  C   UNL d   1      25.098  -6.289  -7.198  0.00  0.00     0.069 A 
ATOM     28  C   UNL d   1      24.457  -6.993  -6.175  0.00  0.00     0.037 A 
ATOM     29  C   UNL d   1      24.848  -8.296  -5.852  0.00  0.00     0.016 A 
BRANCH  27  30
ATOM     30  O   UNL d   1      24.601  -5.041  -7.434  0.00  0.00    -0.347 OA
BRANCH  30  31
ATOM     31  C   UNL d   1      23.862  -4.839  -8.640  0.00  0.00     0.214 C 
BRANCH  31  32
ATOM     32  C   UNL d   1      22.472  -5.402  -8.451  0.00  0.00    -0.034 A 
ATOM     33  C   UNL d   1      21.859  -5.360  -7.191  0.00  0.00     0.011 A 
ATOM     34  C   UNL d   1      20.627  -5.988  -6.987  0.00  0.00     0.024 A 
ATOM     35  C   UNL d   1      19.962  -6.576  -8.060  0.00  0.00     0.034 A 
ATOM     36 CL   UNL d   1      18.405  -7.268  -7.823  0.00  0.00    -0.084 Cl
ATOM     37  C   UNL d   1      20.532  -6.577  -9.330  0.00  0.00     0.024 A 
ATOM     38  C   UNL d   1      21.781  -5.988  -9.525  0.00  0.00     0.011 A 
ENDBRANCH  31  32
ENDBRANCH  30  31
ENDBRANCH  27  30
ENDBRANCH   3  24
TORSDOF 10
ENDMDL
MODEL 3
REMARK VINA RESULT:    -8.108      1.347      2.013
REMARK INTER + INTRA:         -12.852
REMARK INTER:                 -11.091
REMARK INTRA:                  -1.761
REMARK CONF_INDEPENDENT:        2.983
REMARK UNBOUND:                -1.761
REMARK  10 active torsions:
REMARK  status: ('A' for Active; 'I' for Inactive)
REMARK    1  A    between atoms: C_2  and  O_3 
REMARK    2  A    between atoms: O_3  and  C_4 
REMARK    3  A    between atoms: C_8  and  C_9 
REMARK    4  A    between atoms: N_10  and  N_11 
REMARK       I    between atoms: N_11  and  C_12 
REMARK    5  A    between atoms: C_12  and  C_14 
REMARK    6  A    between atoms: C_16  and  C_17 
REMARK    7  A    between atoms: C_20  and  O_21 
REMARK    8  A    between atoms: O_21  and  C_22 
REMARK    9  A    between atoms: C_22  and  C_23 
REMARK   10  A    between atoms: C_34  and  O_35 
ROOT
ATOM      1  C   UNL d   1      28.931 -14.467   2.051  0.00  0.00     0.121 A 
ATOM      2  C   UNL d   1      27.821 -15.289   2.042  0.00  0.00     0.071 A 
ATOM      3  C   UNL d   1      27.546 -15.577   0.680  0.00  0.00     0.089 A 
ATOM      4  N   UNL d   1      28.470 -15.021  -0.115  0.00  0.00    -0.174 NA
ATOM      5  N   UNL d   1      29.258 -14.321   0.726  0.00  0.00    -0.272 N 
ATOM      6  H   UNL d   1      30.017 -13.772   0.328  0.00  0.00     0.189 HD
ENDROOT
BRANCH   1   7
ATOM      7  C   UNL d   1      29.595 -13.779   3.133  0.00  0.00     0.289 C 
ATOM      8  N   UNL d   1      29.822 -14.534   4.288  0.00  0.00    -0.242 N 
ATOM      9  H   UNL d   1      29.620 -15.527   4.303  0.00  0.00     0.192 HD
ATOM     10  O   UNL d   1      29.936 -12.595   3.021  0.00  0.00    -0.264 OA
BRANCH   8  11
ATOM     11  N   UNL d   1      30.369 -13.935   5.390  0.00  0.00    -0.183 NA
ATOM     12  C   UNL d   1      29.608 -13.570   6.378  0.00  0.00     0.153 C 
BRANCH  12  13
ATOM     13  C   UNL d   1      30.204 -12.883   7.568  0.00  0.00     0.019 A 
ATOM     14  C   UNL d   1      29.617 -13.022   8.834  0.00  0.00     0.016 A 
ATOM     15  C   UNL d   1      30.187 -12.389   9.948  0.00  0.00     0.004 A 
ATOM     16  C   UNL d   1      31.340 -11.618   9.804  0.00  0.00     0.040 A 
ATOM     17  C   UNL d   1      31.932 -11.456   8.546  0.00  0.00     0.102 A 
ATOM     18  C   UNL d   1      31.351 -12.087   7.429  0.00  0.00     0.110 A 
BRANCH  17  19
ATOM     19  O   UNL d   1      33.061 -10.675   8.572  0.00  0.00    -0.349 OA
BRANCH  19  20
ATOM     20  C   UNL d   1      34.310 -11.314   8.837  0.00  0.00     0.171 C 
ATOM     21  C   UNL d   1      34.104 -12.638   9.567  0.00  0.00     0.034 C 
ENDBRANCH  19  20
ENDBRANCH  17  19
BRANCH  18  22
ATOM     22  O   UNL d   1      31.911 -11.916   6.187  0.00  0.00    -0.357 OA
ATOM     23  H   UNL d   1      31.943 -12.768   5.701  0.00  0.00     0.217 HD
ENDBRANCH  18  22
ENDBRANCH  12  13
ENDBRANCH   8  11
ENDBRANCH   1   7
BRANCH   3  24
ATOM     24  C   UNL d   1      26.432 -16.362   0.156  0.00  0.00    -0.005 A 
ATOM     25  C   UNL d   1      26.415 -17.758   0.290  0.00  0.00     0.016 A 
ATOM     26  C   UNL d   1      25.347 -18.511  -0.214  0.00  0.00     0.037 A 
ATOM     27  C   UNL d   1      24.290 -17.877  -0.863  0.00  0.00     0.069 A 
ATOM     28  C   UNL d   1      24.318 -16.488  -1.021  0.00  0.00     0.037 A 
ATOM     29  C   UNL d   1      25.377 -15.733  -0.508  0.00  0.00     0.016 A 
BRANCH  27  30
ATOM     30  O   UNL d   1      23.188 -18.491  -1.381  0.00  0.00    -0.347 OA
BRANCH  30  31
ATOM     31  C   UNL d   1      21.926 -17.844  -1.209  0.00  0.00     0.214 C 
BRANCH  31  32
ATOM     32  C   UNL d   1      20.970 -18.819  -0.560  0.00  0.00    -0.034 A 
ATOM     33  C   UNL d   1      19.851 -19.285  -1.265  0.00  0.00     0.011 A 
ATOM     34  C   UNL d   1      18.903 -20.088  -0.627  0.00  0.00     0.024 A 
ATOM     35  C   UNL d   1      19.117 -20.505   0.685  0.00  0.00     0.034 A 
ATOM     36 CL   UNL d   1      17.991 -21.568   1.437  0.00  0.00    -0.084 Cl
ATOM     37  C   UNL d   1      20.251 -20.096   1.380  0.00  0.00     0.024 A 
ATOM     38  C   UNL d   1      21.176 -19.259   0.757  0.00  0.00     0.011 A 
ENDBRANCH  31  32
ENDBRANCH  30  31
ENDBRANCH  27  30
ENDBRANCH   3  24
TORSDOF 10
ENDMDL
MODEL 4
REMARK VINA RESULT:    -7.572      8.454     12.538
REMARK INTER + INTRA:         -12.297
REMARK INTER:                 -10.555
REMARK INTRA:                  -1.742
REMARK CONF_INDEPENDENT:        2.983
REMARK UNBOUND:                -1.742
REMARK  10 active torsions:
REMARK  status: ('A' for Active; 'I' for Inactive)
REMARK    1  A    between atoms: C_2  and  O_3 
REMARK    2  A    between atoms: O_3  and  C_4 
REMARK    3  A    between atoms: C_8  and  C_9 
REMARK    4  A    between atoms: N_10  and  N_11 
REMARK       I    between atoms: N_11  and  C_12 
REMARK    5  A    between atoms: C_12  and  C_14 
REMARK    6  A    between atoms: C_16  and  C_17 
REMARK    7  A    between atoms: C_20  and  O_21 
REMARK    8  A    between atoms: O_21  and  C_22 
REMARK    9  A    between atoms: C_22  and  C_23 
REMARK   10  A    between atoms: C_34  and  O_35 
ROOT
ATOM      1  C   UNL d   1      27.037 -11.841  -6.439  0.00  0.00     0.121 A 
ATOM      2  C   UNL d   1      26.703 -12.415  -5.228  0.00  0.00     0.071 A 
ATOM      3  C   UNL d   1      27.431 -13.632  -5.147  0.00  0.00     0.089 A 
ATOM      4  N   UNL d   1      28.225 -13.777  -6.216  0.00  0.00    -0.174 NA
ATOM      5  N   UNL d   1      27.934 -12.718  -6.997  0.00  0.00    -0.272 N 
ATOM      6  H   UNL d   1      28.397 -12.646  -7.901  0.00  0.00     0.189 HD
ENDROOT
BRANCH   1   7
ATOM      7  C   UNL d   1      26.533 -10.662  -7.103  0.00  0.00     0.289 C 
ATOM      8  N   UNL d   1      25.814  -9.771  -6.299  0.00  0.00    -0.242 N 
ATOM      9  H   UNL d   1      25.754  -9.912  -5.298  0.00  0.00     0.192 HD
ATOM     10  O   UNL d   1      26.739 -10.471  -8.308  0.00  0.00    -0.264 OA
BRANCH   8  11
ATOM     11  N   UNL d   1      25.229  -8.671  -6.867  0.00  0.00    -0.183 NA
ATOM     12  C   UNL d   1      24.237  -8.080  -6.270  0.00  0.00     0.153 C 
BRANCH  12  13
ATOM     13  C   UNL d   1      23.576  -6.899  -6.910  0.00  0.00     0.019 A 
ATOM     14  C   UNL d   1      24.154  -6.284  -8.030  0.00  0.00     0.016 A 
ATOM     15  C   UNL d   1      23.524  -5.187  -8.635  0.00  0.00     0.004 A 
ATOM     16  C   UNL d   1      22.320  -4.700  -8.126  0.00  0.00     0.040 A 
ATOM     17  C   UNL d   1      21.736  -5.291  -7.000  0.00  0.00     0.102 A 
ATOM     18  C   UNL d   1      22.376  -6.388  -6.391  0.00  0.00     0.110 A 
BRANCH  17  19
ATOM     19  O   UNL d   1      20.552  -4.702  -6.629  0.00  0.00    -0.349 OA
BRANCH  19  20
ATOM     20  C   UNL d   1      19.438  -4.823  -7.513  0.00  0.00     0.171 C 
ATOM     21  C   UNL d   1      19.021  -6.282  -7.672  0.00  0.00     0.034 C 
ENDBRANCH  19  20
ENDBRANCH  17  19
BRANCH  18  22
ATOM     22  O   UNL d   1      21.823  -6.960  -5.274  0.00  0.00    -0.357 OA
ATOM     23  H   UNL d   1      20.985  -6.510  -5.031  0.00  0.00     0.217 HD
ENDBRANCH  18  22
ENDBRANCH  12  13
ENDBRANCH   8  11
ENDBRANCH   1   7
BRANCH   3  24
ATOM     24  C   UNL d   1      27.367 -14.622  -4.077  0.00  0.00    -0.005 A 
ATOM     25  C   UNL d   1      28.540 -15.161  -3.529  0.00  0.00     0.016 A 
ATOM     26  C   UNL d   1      28.478 -16.113  -2.503  0.00  0.00     0.037 A 
ATOM     27  C   UNL d   1      27.243 -16.540  -2.020  0.00  0.00     0.069 A 
ATOM     28  C   UNL d   1      26.072 -16.024  -2.583  0.00  0.00     0.037 A 
ATOM     29  C   UNL d   1      26.132 -15.066  -3.599  0.00  0.00     0.016 A 
BRANCH  27  30
ATOM     30  O   UNL d   1      27.048 -17.444  -1.017  0.00  0.00    -0.347 OA
BRANCH  30  31
ATOM     31  C   UNL d   1      26.261 -17.032   0.102  0.00  0.00     0.214 C 
BRANCH  31  32
ATOM     32  C   UNL d   1      24.842 -17.509  -0.107  0.00  0.00    -0.034 A 
ATOM     33  C   UNL d   1      24.554 -18.881  -0.118  0.00  0.00     0.011 A 
ATOM     34  C   UNL d   1      23.267 -19.327  -0.432  0.00  0.00     0.024 A 
ATOM     35  C   UNL d   1      22.245 -18.404  -0.641  0.00  0.00     0.034 A 
ATOM     36 CL   UNL d   1      20.643 -18.957  -0.937  0.00  0.00    -0.084 Cl
ATOM     37  C   UNL d   1      22.503 -17.037  -0.578  0.00  0.00     0.024 A 
ATOM     38  C   UNL d   1      23.797 -16.593  -0.307  0.00  0.00     0.011 A 
ENDBRANCH  31  32
ENDBRANCH  30  31
ENDBRANCH  27  30
ENDBRANCH   3  24
TORSDOF 10
ENDMDL
MODEL 5
REMARK VINA RESULT:    -7.425      5.402     13.226
REMARK INTER + INTRA:         -12.372
REMARK INTER:                 -10.408
REMARK INTRA:                  -1.964
REMARK CONF_INDEPENDENT:        2.983
REMARK UNBOUND:                -1.964
REMARK  10 active torsions:
REMARK  status: ('A' for Active; 'I' for Inactive)
REMARK    1  A    between atoms: C_2  and  O_3 
REMARK    2  A    between atoms: O_3  and  C_4 
REMARK    3  A    between atoms: C_8  and  C_9 
REMARK    4  A    between atoms: N_10  and  N_11 
REMARK       I    between atoms: N_11  and  C_12 
REMARK    5  A    between atoms: C_12  and  C_14 
REMARK    6  A    between atoms: C_16  and  C_17 
REMARK    7  A    between atoms: C_20  and  O_21 
REMARK    8  A    between atoms: O_21  and  C_22 
REMARK    9  A    between atoms: C_22  and  C_23 
REMARK   10  A    between atoms: C_34  and  O_35 
ROOT
ATOM      1  C   UNL d   1      28.083 -14.154   3.731  0.00  0.00     0.121 A 
ATOM      2  C   UNL d   1      28.395 -13.241   4.720  0.00  0.00     0.071 A 
ATOM      3  C   UNL d   1      28.627 -13.993   5.902  0.00  0.00     0.089 A 
ATOM      4  N   UNL d   1      28.531 -15.306   5.651  0.00  0.00    -0.174 NA
ATOM      5  N   UNL d   1      28.155 -15.374   4.358  0.00  0.00    -0.272 N 
ATOM      6  H   UNL d   1      27.977 -16.292   3.957  0.00  0.00     0.189 HD
ENDROOT
BRANCH   1   7
ATOM      7  C   UNL d   1      27.655 -13.967   2.366  0.00  0.00     0.289 C 
ATOM      8  N   UNL d   1      28.240 -14.817   1.421  0.00  0.00    -0.242 N 
ATOM      9  H   UNL d   1      28.842 -15.577   1.714  0.00  0.00     0.192 HD
ATOM     10  O   UNL d   1      26.819 -13.103   2.072  0.00  0.00    -0.264 OA
BRANCH   8  11
ATOM     11  N   UNL d   1      27.954 -14.650   0.093  0.00  0.00    -0.183 NA
ATOM     12  C   UNL d   1      26.808 -15.039  -0.380  0.00  0.00     0.153 C 
BRANCH  12  13
ATOM     13  C   UNL d   1      26.511 -14.887  -1.840  0.00  0.00     0.019 A 
ATOM     14  C   UNL d   1      25.320 -14.278  -2.262  0.00  0.00     0.016 A 
ATOM     15  C   UNL d   1      25.052 -14.124  -3.629  0.00  0.00     0.004 A 
ATOM     16  C   UNL d   1      25.968 -14.578  -4.579  0.00  0.00     0.040 A 
ATOM     17  C   UNL d   1      27.155 -15.201  -4.178  0.00  0.00     0.102 A 
ATOM     18  C   UNL d   1      27.416 -15.360  -2.803  0.00  0.00     0.110 A 
BRANCH  17  19
ATOM     19  O   UNL d   1      27.951 -15.583  -5.230  0.00  0.00    -0.349 OA
BRANCH  19  20
ATOM     20  C   UNL d   1      28.971 -14.680  -5.659  0.00  0.00     0.171 C 
ATOM     21  C   UNL d   1      28.530 -13.902  -6.894  0.00  0.00     0.034 C 
ENDBRANCH  19  20
ENDBRANCH  17  19
BRANCH  18  22
ATOM     22  O   UNL d   1      28.566 -15.991  -2.400  0.00  0.00    -0.357 OA
ATOM     23  H   UNL d   1      28.929 -15.567  -1.593  0.00  0.00     0.217 HD
ENDBRANCH  18  22
ENDBRANCH  12  13
ENDBRANCH   8  11
ENDBRANCH   1   7
BRANCH   3  24
ATOM     24  C   UNL d   1      28.933 -13.469   7.229  0.00  0.00    -0.005 A 
ATOM     25  C   UNL d   1      29.911 -14.075   8.031  0.00  0.00     0.016 A 
ATOM     26  C   UNL d   1      30.203 -13.572   9.305  0.00  0.00     0.037 A 
ATOM     27  C   UNL d   1      29.514 -12.463   9.793  0.00  0.00     0.069 A 
ATOM     28  C   UNL d   1      28.521 -11.874   9.006  0.00  0.00     0.037 A 
ATOM     29  C   UNL d   1      28.236 -12.367   7.730  0.00  0.00     0.016 A 
BRANCH  27  30
ATOM     30  O   UNL d   1      29.716 -11.869  11.004  0.00  0.00    -0.347 OA
BRANCH  30  31
ATOM     31  C   UNL d   1      30.910 -11.104  11.177  0.00  0.00     0.214 C 
BRANCH  31  32
ATOM     32  C   UNL d   1      30.592  -9.650  10.914  0.00  0.00    -0.034 A 
ATOM     33  C   UNL d   1      30.462  -8.752  11.983  0.00  0.00     0.011 A 
ATOM     34  C   UNL d   1      30.049  -7.438  11.751  0.00  0.00     0.024 A 
ATOM     35  C   UNL d   1      29.857  -6.991  10.445  0.00  0.00     0.034 A 
ATOM     36 CL   UNL d   1      29.435  -5.348  10.159  0.00  0.00    -0.084 Cl
ATOM     37  C   UNL d   1      30.036  -7.856   9.370  0.00  0.00     0.024 A 
ATOM     38  C   UNL d   1      30.407  -9.180   9.604  0.00  0.00     0.011 A 
ENDBRANCH  31  32
ENDBRANCH  30  31
ENDBRANCH  27  30
ENDBRANCH   3  24
TORSDOF 10
ENDMDL
MODEL 6
REMARK VINA RESULT:    -7.346      5.490     13.105
REMARK INTER + INTRA:         -12.302
REMARK INTER:                 -10.329
REMARK INTRA:                  -1.974
REMARK CONF_INDEPENDENT:        2.983
REMARK UNBOUND:                -1.974
REMARK  10 active torsions:
REMARK  status: ('A' for Active; 'I' for Inactive)
REMARK    1  A    between atoms: C_2  and  O_3 
REMARK    2  A    between atoms: O_3  and  C_4 
REMARK    3  A    between atoms: C_8  and  C_9 
REMARK    4  A    between atoms: N_10  and  N_11 
REMARK       I    between atoms: N_11  and  C_12 
REMARK    5  A    between atoms: C_12  and  C_14 
REMARK    6  A    between atoms: C_16  and  C_17 
REMARK    7  A    between atoms: C_20  and  O_21 
REMARK    8  A    between atoms: O_21  and  C_22 
REMARK    9  A    between atoms: C_22  and  C_23 
REMARK   10  A    between atoms: C_34  and  O_35 
ROOT
ATOM      1  C   UNL d   1      28.220 -14.124   3.940  0.00  0.00     0.121 A 
ATOM      2  C   UNL d   1      28.443 -13.174   4.918  0.00  0.00     0.071 A 
ATOM      3  C   UNL d   1      28.806 -13.885   6.092  0.00  0.00     0.089 A 
ATOM      4  N   UNL d   1      28.870 -15.200   5.845  0.00  0.00    -0.174 NA
ATOM      5  N   UNL d   1      28.466 -15.321   4.565  0.00  0.00    -0.272 N 
ATOM      6  H   UNL d   1      28.394 -16.257   4.171  0.00  0.00     0.189 HD
ENDROOT
BRANCH   1   7
ATOM      7  C   UNL d   1      27.729 -13.999   2.589  0.00  0.00     0.289 C 
ATOM      8  N   UNL d   1      28.289 -14.875   1.653  0.00  0.00    -0.242 N 
ATOM      9  H   UNL d   1      28.919 -15.611   1.948  0.00  0.00     0.192 HD
ATOM     10  O   UNL d   1      26.863 -13.163   2.299  0.00  0.00    -0.264 OA
BRANCH   8  11
ATOM     11  N   UNL d   1      27.942 -14.766   0.333  0.00  0.00    -0.183 NA
ATOM     12  C   UNL d   1      28.344 -15.659  -0.521  0.00  0.00     0.153 C 
BRANCH  12  13
ATOM     13  C   UNL d   1      27.992 -15.519  -1.970  0.00  0.00     0.019 A 
ATOM     14  C   UNL d   1      28.974 -15.691  -2.957  0.00  0.00     0.016 A 
ATOM     15  C   UNL d   1      28.638 -15.574  -4.314  0.00  0.00     0.004 A 
ATOM     16  C   UNL d   1      27.326 -15.284  -4.689  0.00  0.00     0.040 A 
ATOM     17  C   UNL d   1      26.336 -15.094  -3.718  0.00  0.00     0.102 A 
ATOM     18  C   UNL d   1      26.680 -15.206  -2.357  0.00  0.00     0.110 A 
BRANCH  17  19
ATOM     19  O   UNL d   1      25.098 -14.824  -4.248  0.00  0.00    -0.349 OA
BRANCH  19  20
ATOM     20  C   UNL d   1      24.494 -13.569  -3.932  0.00  0.00     0.171 C 
ATOM     21  C   UNL d   1      25.531 -12.450  -3.920  0.00  0.00     0.034 C 
ENDBRANCH  19  20
ENDBRANCH  17  19
BRANCH  18  22
ATOM     22  O   UNL d   1      25.722 -14.999  -1.396  0.00  0.00    -0.357 OA
ATOM     23  H   UNL d   1      26.041 -15.299  -0.518  0.00  0.00     0.217 HD
ENDBRANCH  18  22
ENDBRANCH  12  13
ENDBRANCH   8  11
ENDBRANCH   1   7
BRANCH   3  24
ATOM     24  C   UNL d   1      29.084 -13.319   7.409  0.00  0.00    -0.005 A 
ATOM     25  C   UNL d   1      30.260 -13.650   8.097  0.00  0.00     0.016 A 
ATOM     26  C   UNL d   1      30.525 -13.109   9.361  0.00  0.00     0.037 A 
ATOM     27  C   UNL d   1      29.613 -12.236   9.952  0.00  0.00     0.069 A 
ATOM     28  C   UNL d   1      28.428 -11.926   9.280  0.00  0.00     0.037 A 
ATOM     29  C   UNL d   1      28.167 -12.456   8.014  0.00  0.00     0.016 A 
BRANCH  27  30
ATOM     30  O   UNL d   1      29.761 -11.630  11.165  0.00  0.00    -0.347 OA
BRANCH  30  31
ATOM     31  C   UNL d   1      30.920 -10.819  11.364  0.00  0.00     0.214 C 
BRANCH  31  32
ATOM     32  C   UNL d   1      30.600  -9.408  10.926  0.00  0.00    -0.034 A 
ATOM     33  C   UNL d   1      30.444  -8.392  11.879  0.00  0.00     0.011 A 
ATOM     34  C   UNL d   1      30.029  -7.117  11.486  0.00  0.00     0.024 A 
ATOM     35  C   UNL d   1      29.862  -6.828  10.133  0.00  0.00     0.034 A 
ATOM     36 CL   UNL d   1      29.439  -5.233   9.647  0.00  0.00    -0.084 Cl
ATOM     37  C   UNL d   1      30.068  -7.812   9.170  0.00  0.00     0.024 A 
ATOM     38  C   UNL d   1      30.440  -9.096   9.566  0.00  0.00     0.011 A 
ENDBRANCH  31  32
ENDBRANCH  30  31
ENDBRANCH  27  30
ENDBRANCH   3  24
TORSDOF 10
ENDMDL
MODEL 7
REMARK VINA RESULT:    -7.334      8.011     11.403
REMARK INTER + INTRA:         -12.311
REMARK INTER:                 -10.317
REMARK INTRA:                  -1.993
REMARK CONF_INDEPENDENT:        2.983
REMARK UNBOUND:                -1.993
REMARK  10 active torsions:
REMARK  status: ('A' for Active; 'I' for Inactive)
REMARK    1  A    between atoms: C_2  and  O_3 
REMARK    2  A    between atoms: O_3  and  C_4 
REMARK    3  A    between atoms: C_8  and  C_9 
REMARK    4  A    between atoms: N_10  and  N_11 
REMARK       I    between atoms: N_11  and  C_12 
REMARK    5  A    between atoms: C_12  and  C_14 
REMARK    6  A    between atoms: C_16  and  C_17 
REMARK    7  A    between atoms: C_20  and  O_21 
REMARK    8  A    between atoms: O_21  and  C_22 
REMARK    9  A    between atoms: C_22  and  C_23 
REMARK   10  A    between atoms: C_34  and  O_35 
ROOT
ATOM      1  C   UNL d   1      24.950 -16.187  -1.119  0.00  0.00     0.121 A 
ATOM      2  C   UNL d   1      25.573 -16.331  -2.343  0.00  0.00     0.071 A 
ATOM      3  C   UNL d   1      26.638 -15.392  -2.364  0.00  0.00     0.089 A 
ATOM      4  N   UNL d   1      26.717 -14.745  -1.194  0.00  0.00    -0.174 NA
ATOM      5  N   UNL d   1      25.666 -15.202  -0.485  0.00  0.00    -0.272 N 
ATOM      6  H   UNL d   1      25.501 -14.808   0.438  0.00  0.00     0.189 HD
ENDROOT
BRANCH   1   7
ATOM      7  C   UNL d   1      23.756 -16.796  -0.583  0.00  0.00     0.289 C 
ATOM      8  N   UNL d   1      23.817 -18.178  -0.373  0.00  0.00    -0.242 N 
ATOM      9  H   UNL d   1      24.688 -18.680  -0.496  0.00  0.00     0.192 HD
ATOM     10  O   UNL d   1      22.753 -16.117  -0.331  0.00  0.00    -0.264 OA
BRANCH   8  11
ATOM     11  N   UNL d   1      22.701 -18.847   0.052  0.00  0.00    -0.183 NA
ATOM     12  C   UNL d   1      21.545 -18.587  -0.480  0.00  0.00     0.153 C 
BRANCH  12  13
ATOM     13  C   UNL d   1      20.320 -19.295   0.011  0.00  0.00     0.019 A 
ATOM     14  C   UNL d   1      19.364 -19.771  -0.898  0.00  0.00     0.016 A 
ATOM     15  C   UNL d   1      18.226 -20.447  -0.436  0.00  0.00     0.004 A 
ATOM     16  C   UNL d   1      18.037 -20.648   0.931  0.00  0.00     0.040 A 
ATOM     17  C   UNL d   1      18.972 -20.168   1.855  0.00  0.00     0.102 A 
ATOM     18  C   UNL d   1      20.110 -19.483   1.386  0.00  0.00     0.110 A 
BRANCH  17  19
ATOM     19  O   UNL d   1      18.645 -20.453   3.158  0.00  0.00    -0.349 OA
BRANCH  19  20
ATOM     20  C   UNL d   1      19.699 -20.830   4.045  0.00  0.00     0.171 C 
ATOM     21  C   UNL d   1      19.229 -20.808   5.496  0.00  0.00     0.034 C 
ENDBRANCH  19  20
ENDBRANCH  17  19
BRANCH  18  22
ATOM     22  O   UNL d   1      21.021 -18.989   2.284  0.00  0.00    -0.357 OA
ATOM     23  H   UNL d   1      21.936 -19.088   1.942  0.00  0.00     0.217 HD
ENDBRANCH  18  22
ENDBRANCH  12  13
ENDBRANCH   8  11
ENDBRANCH   1   7
BRANCH   3  24
ATOM     24  C   UNL d   1      27.551 -15.126  -3.471  0.00  0.00    -0.005 A 
ATOM     25  C   UNL d   1      27.095 -15.143  -4.797  0.00  0.00     0.016 A 
ATOM     26  C   UNL d   1      27.973 -14.889  -5.859  0.00  0.00     0.037 A 
ATOM     27  C   UNL d   1      29.317 -14.624  -5.605  0.00  0.00     0.069 A 
ATOM     28  C   UNL d   1      29.779 -14.633  -4.286  0.00  0.00     0.037 A 
ATOM     29  C   UNL d   1      28.903 -14.874  -3.225  0.00  0.00     0.016 A 
BRANCH  27  30
ATOM     30  O   UNL d   1      30.265 -14.346  -6.545  0.00  0.00    -0.347 OA
BRANCH  30  31
ATOM     31  C   UNL d   1      31.563 -14.917  -6.366  0.00  0.00     0.214 C 
BRANCH  31  32
ATOM     32  C   UNL d   1      31.406 -16.400  -6.123  0.00  0.00    -0.034 A 
ATOM     33  C   UNL d   1      30.652 -17.184  -7.008  0.00  0.00     0.011 A 
ATOM     34  C   UNL d   1      30.405 -18.528  -6.720  0.00  0.00     0.024 A 
ATOM     35  C   UNL d   1      30.987 -19.117  -5.600  0.00  0.00     0.034 A 
ATOM     36 CL   UNL d   1      30.753 -20.795  -5.298  0.00  0.00    -0.084 Cl
ATOM     37  C   UNL d   1      31.784 -18.365  -4.741  0.00  0.00     0.024 A 
ATOM     38  C   UNL d   1      31.996 -17.013  -5.005  0.00  0.00     0.011 A 
ENDBRANCH  31  32
ENDBRANCH  30  31
ENDBRANCH  27  30
ENDBRANCH   3  24
TORSDOF 10
ENDMDL
MODEL 8
REMARK VINA RESULT:    -7.188      5.479     12.806
REMARK INTER + INTRA:         -12.262
REMARK INTER:                 -10.171
REMARK INTRA:                  -2.091
REMARK CONF_INDEPENDENT:        2.983
REMARK UNBOUND:                -2.091
REMARK  10 active torsions:
REMARK  status: ('A' for Active; 'I' for Inactive)
REMARK    1  A    between atoms: C_2  and  O_3 
REMARK    2  A    between atoms: O_3  and  C_4 
REMARK    3  A    between atoms: C_8  and  C_9 
REMARK    4  A    between atoms: N_10  and  N_11 
REMARK       I    between atoms: N_11  and  C_12 
REMARK    5  A    between atoms: C_12  and  C_14 
REMARK    6  A    between atoms: C_16  and  C_17 
REMARK    7  A    between atoms: C_20  and  O_21 
REMARK    8  A    between atoms: O_21  and  C_22 
REMARK    9  A    between atoms: C_22  and  C_23 
REMARK   10  A    between atoms: C_34  and  O_35 
ROOT
ATOM      1  C   UNL d   1      28.179 -14.084   3.554  0.00  0.00     0.121 A 
ATOM      2  C   UNL d   1      27.815 -13.392   4.693  0.00  0.00     0.071 A 
ATOM      3  C   UNL d   1      28.727 -13.785   5.709  0.00  0.00     0.089 A 
ATOM      4  N   UNL d   1      29.648 -14.623   5.215  0.00  0.00    -0.174 NA
ATOM      5  N   UNL d   1      29.269 -14.825   3.937  0.00  0.00    -0.272 N 
ATOM      6  H   UNL d   1      29.810 -15.475   3.373  0.00  0.00     0.189 HD
ENDROOT
BRANCH   1   7
ATOM      7  C   UNL d   1      27.557 -14.166   2.254  0.00  0.00     0.289 C 
ATOM      8  N   UNL d   1      28.119 -15.089   1.366  0.00  0.00    -0.242 N 
ATOM      9  H   UNL d   1      28.847 -15.723   1.674  0.00  0.00     0.192 HD
ATOM     10  O   UNL d   1      26.586 -13.456   1.965  0.00  0.00    -0.264 OA
BRANCH   8  11
ATOM     11  N   UNL d   1      27.644 -15.171   0.085  0.00  0.00    -0.183 NA
ATOM     12  C   UNL d   1      27.386 -14.087  -0.584  0.00  0.00     0.153 C 
BRANCH  12  13
ATOM     13  C   UNL d   1      26.834 -14.179  -1.972  0.00  0.00     0.019 A 
ATOM     14  C   UNL d   1      25.613 -13.567  -2.291  0.00  0.00     0.016 A 
ATOM     15  C   UNL d   1      25.106 -13.643  -3.597  0.00  0.00     0.004 A 
ATOM     16  C   UNL d   1      25.812 -14.328  -4.585  0.00  0.00     0.040 A 
ATOM     17  C   UNL d   1      27.026 -14.957  -4.282  0.00  0.00     0.102 A 
ATOM     18  C   UNL d   1      27.527 -14.885  -2.969  0.00  0.00     0.110 A 
BRANCH  17  19
ATOM     19  O   UNL d   1      27.599 -15.581  -5.363  0.00  0.00    -0.349 OA
BRANCH  19  20
ATOM     20  C   UNL d   1      28.924 -15.196  -5.732  0.00  0.00     0.171 C 
ATOM     21  C   UNL d   1      28.904 -14.209  -6.895  0.00  0.00     0.034 C 
ENDBRANCH  19  20
ENDBRANCH  17  19
BRANCH  18  22
ATOM     22  O   UNL d   1      28.704 -15.517  -2.656  0.00  0.00    -0.357 OA
ATOM     23  H   UNL d   1      28.730 -15.751  -1.703  0.00  0.00     0.217 HD
ENDBRANCH  18  22
ENDBRANCH  12  13
ENDBRANCH   8  11
ENDBRANCH   1   7
BRANCH   3  24
ATOM     24  C   UNL d   1      28.715 -13.367   7.107  0.00  0.00    -0.005 A 
ATOM     25  C   UNL d   1      28.539 -12.019   7.451  0.00  0.00     0.016 A 
ATOM     26  C   UNL d   1      28.530 -11.620   8.794  0.00  0.00     0.037 A 
ATOM     27  C   UNL d   1      28.705 -12.563   9.804  0.00  0.00     0.069 A 
ATOM     28  C   UNL d   1      28.907 -13.903   9.463  0.00  0.00     0.037 A 
ATOM     29  C   UNL d   1      28.905 -14.306   8.125  0.00  0.00     0.016 A 
BRANCH  27  30
ATOM     30  O   UNL d   1      28.699 -12.306  11.144  0.00  0.00    -0.347 OA
BRANCH  30  31
ATOM     31  C   UNL d   1      29.889 -11.765  11.720  0.00  0.00     0.214 C 
BRANCH  31  32
ATOM     32  C   UNL d   1      31.038 -12.700  11.418  0.00  0.00    -0.034 A 
ATOM     33  C   UNL d   1      31.978 -12.366  10.433  0.00  0.00     0.011 A 
ATOM     34  C   UNL d   1      32.968 -13.282  10.067  0.00  0.00     0.024 A 
ATOM     35  C   UNL d   1      33.080 -14.492  10.748  0.00  0.00     0.034 A 
ATOM     36 CL   UNL d   1      34.356 -15.577  10.355  0.00  0.00    -0.084 Cl
ATOM     37  C   UNL d   1      32.188 -14.814  11.767  0.00  0.00     0.024 A 
ATOM     38  C   UNL d   1      31.174 -13.918  12.103  0.00  0.00     0.011 A 
ENDBRANCH  31  32
ENDBRANCH  30  31
ENDBRANCH  27  30
ENDBRANCH   3  24
TORSDOF 10
ENDMDL
MODEL 9
REMARK VINA RESULT:    -7.059      5.346     12.772
REMARK INTER + INTRA:         -12.252
REMARK INTER:                 -10.042
REMARK INTRA:                  -2.210
REMARK CONF_INDEPENDENT:        2.983
REMARK UNBOUND:                -2.210
REMARK  10 active torsions:
REMARK  status: ('A' for Active; 'I' for Inactive)
REMARK    1  A    between atoms: C_2  and  O_3 
REMARK    2  A    between atoms: O_3  and  C_4 
REMARK    3  A    between atoms: C_8  and  C_9 
REMARK    4  A    between atoms: N_10  and  N_11 
REMARK       I    between atoms: N_11  and  C_12 
REMARK    5  A    between atoms: C_12  and  C_14 
REMARK    6  A    between atoms: C_16  and  C_17 
REMARK    7  A    between atoms: C_20  and  O_21 
REMARK    8  A    between atoms: O_21  and  C_22 
REMARK    9  A    between atoms: C_22  and  C_23 
REMARK   10  A    between atoms: C_34  and  O_35 
ROOT
ATOM      1  C   UNL d   1      28.312 -14.049   4.103  0.00  0.00     0.121 A 
ATOM      2  C   UNL d   1      28.047 -13.299   5.233  0.00  0.00     0.071 A 
ATOM      3  C   UNL d   1      28.747 -13.922   6.300  0.00  0.00     0.089 A 
ATOM      4  N   UNL d   1      29.463 -14.961   5.850  0.00  0.00    -0.174 NA
ATOM      5  N   UNL d   1      29.146 -15.047   4.543  0.00  0.00    -0.272 N 
ATOM      6  H   UNL d   1      29.548 -15.808   4.000  0.00  0.00     0.189 HD
ENDROOT
BRANCH   1   7
ATOM      7  C   UNL d   1      27.793 -13.957   2.759  0.00  0.00     0.289 C 
ATOM      8  N   UNL d   1      28.370 -14.822   1.823  0.00  0.00    -0.242 N 
ATOM      9  H   UNL d   1      29.033 -15.530   2.114  0.00  0.00     0.192 HD
ATOM     10  O   UNL d   1      26.892 -13.158   2.477  0.00  0.00    -0.264 OA
BRANCH   8  11
ATOM     11  N   UNL d   1      27.996 -14.741   0.508  0.00  0.00    -0.183 NA
ATOM     12  C   UNL d   1      28.516 -15.547  -0.367  0.00  0.00     0.153 C 
BRANCH  12  13
ATOM     13  C   UNL d   1      28.131 -15.434  -1.810  0.00  0.00     0.019 A 
ATOM     14  C   UNL d   1      29.109 -15.515  -2.813  0.00  0.00     0.016 A 
ATOM     15  C   UNL d   1      28.743 -15.423  -4.163  0.00  0.00     0.004 A 
ATOM     16  C   UNL d   1      27.405 -15.248  -4.517  0.00  0.00     0.040 A 
ATOM     17  C   UNL d   1      26.417 -15.150  -3.531  0.00  0.00     0.102 A 
ATOM     18  C   UNL d   1      26.791 -15.235  -2.176  0.00  0.00     0.110 A 
BRANCH  17  19
ATOM     19  O   UNL d   1      25.153 -14.987  -4.041  0.00  0.00    -0.349 OA
BRANCH  19  20
ATOM     20  C   UNL d   1      24.541 -13.703  -3.916  0.00  0.00     0.171 C 
ATOM     21  C   UNL d   1      25.587 -12.593  -3.935  0.00  0.00     0.034 C 
ENDBRANCH  19  20
ENDBRANCH  17  19
BRANCH  18  22
ATOM     22  O   UNL d   1      25.833 -15.118  -1.200  0.00  0.00    -0.357 OA
ATOM     23  H   UNL d   1      26.230 -14.802  -0.360  0.00  0.00     0.217 HD
ENDBRANCH  18  22
ENDBRANCH  12  13
ENDBRANCH   8  11
ENDBRANCH   1   7
BRANCH   3  24
ATOM     24  C   UNL d   1      28.733 -13.529   7.706  0.00  0.00    -0.005 A 
ATOM     25  C   UNL d   1      28.908 -14.483   8.718  0.00  0.00     0.016 A 
ATOM     26  C   UNL d   1      28.892 -14.105  10.067  0.00  0.00     0.037 A 
ATOM     27  C   UNL d   1      28.693 -12.771  10.416  0.00  0.00     0.069 A 
ATOM     28  C   UNL d   1      28.491 -11.823   9.410  0.00  0.00     0.037 A 
ATOM     29  C   UNL d   1      28.518 -12.195   8.063  0.00  0.00     0.016 A 
BRANCH  27  30
ATOM     30  O   UNL d   1      28.672 -12.274  11.686  0.00  0.00    -0.347 OA
BRANCH  30  31
ATOM     31  C   UNL d   1      29.823 -11.555  12.135  0.00  0.00     0.214 C 
BRANCH  31  32
ATOM     32  C   UNL d   1      31.056 -12.218  11.566  0.00  0.00    -0.034 A 
ATOM     33  C   UNL d   1      31.578 -13.372  12.168  0.00  0.00     0.011 A 
ATOM     34  C   UNL d   1      32.785 -13.914  11.719  0.00  0.00     0.024 A 
ATOM     35  C   UNL d   1      33.423 -13.365  10.610  0.00  0.00     0.034 A 
ATOM     36 CL   UNL d   1      34.861 -14.091  10.005  0.00  0.00    -0.084 Cl
ATOM     37  C   UNL d   1      32.887 -12.253   9.966  0.00  0.00     0.024 A 
ATOM     38  C   UNL d   1      31.706 -11.685  10.441  0.00  0.00     0.011 A 
ENDBRANCH  31  32
ENDBRANCH  30  31
ENDBRANCH  27  30
ENDBRANCH   3  24
TORSDOF 10
ENDMDL
