MODEL 1
REMARK VINA RESULT:    -7.479      0.000      0.000
REMARK INTER + INTRA:         -10.640
REMARK INTER:                  -9.269
REMARK INTRA:                  -1.372
REMARK CONF_INDEPENDENT:        1.790
REMARK UNBOUND:                -1.372
REMARK  6 active torsions:
REMARK  status: ('A' for Active; 'I' for Inactive)
REMARK    1  A    between atoms: C_3  and  C_19 
REMARK    2  A    between atoms: C_4  and  C_5 
REMARK    3  A    between atoms: C_8  and  C_9 
REMARK    4  A    between atoms: C_14  and  N_15 
REMARK       I    between atoms: C_19  and  N_21 
REMARK    5  A    between atoms: N_21  and  C_22 
REMARK    6  A    between atoms: C_24  and  C_25 
ROOT
ATOM      1  N   UNL d   1      28.220 -11.131   3.623  0.00  0.00    -0.096 N 
ATOM      2  C   UNL d   1      28.009 -12.334   3.311  0.00  0.00     0.025 C 
ATOM      3  C   UNL d   1      27.755 -13.785   2.935  0.00  0.00     0.101 C 
ATOM      4  C   UNL d   1      28.210 -14.747   3.772  0.00  0.00     0.064 C 
ENDROOT
BRANCH   3   5
ATOM      5  C   UNL d   1      26.972 -14.051   1.684  0.00  0.00     0.265 C 
ATOM      6  O   UNL d   1      26.097 -13.245   1.366  0.00  0.00    -0.267 OA
ATOM      7  N   UNL d   1      27.197 -15.233   0.984  0.00  0.00    -0.321 N 
ATOM      8  H   UNL d   1      27.673 -16.012   1.419  0.00  0.00     0.169 HD
BRANCH   7   9
ATOM      9  C   UNL d   1      26.700 -15.468  -0.336  0.00  0.00     0.057 A 
ATOM     10  C   UNL d   1      26.671 -14.392  -1.255  0.00  0.00     0.047 A 
ATOM     11  C   UNL d   1      26.032 -14.525  -2.512  0.00  0.00     0.050 A 
ATOM     12  C   UNL d   1      25.522 -15.772  -2.888  0.00  0.00     0.018 A 
ATOM     13  C   UNL d   1      25.551 -16.837  -1.996  0.00  0.00     0.027 A 
ATOM     14  C   UNL d   1      26.108 -16.689  -0.724  0.00  0.00     0.060 A 
ATOM     15 CL   UNL d   1      25.798 -18.009   0.358  0.00  0.00    -0.082 Cl
BRANCH  11  16
ATOM     16  C   UNL d   1      25.773 -13.334  -3.410  0.00  0.00     0.417 C 
ATOM     17  F   UNL d   1      25.944 -12.158  -2.744  0.00  0.00    -0.166 F 
ATOM     18  F   UNL d   1      26.586 -13.280  -4.496  0.00  0.00    -0.166 F 
ATOM     19  F   UNL d   1      24.497 -13.294  -3.893  0.00  0.00    -0.166 F 
ENDBRANCH  11  16
ENDBRANCH   7   9
ENDBRANCH   3   5
BRANCH   4  20
ATOM     20  C   UNL d   1      28.818 -14.363   5.012  0.00  0.00     0.077 C 
ATOM     21  C   UNL d   1      30.145 -13.992   5.196  0.00  0.00     0.040 C 
ATOM     22  C   UNL d   1      30.405 -13.980   6.568  0.00  0.00     0.041 C 
ATOM     23  C   UNL d   1      29.182 -14.072   7.180  0.00  0.00     0.088 C 
ATOM     24  O   UNL d   1      28.203 -14.331   6.255  0.00  0.00    -0.310 OA
BRANCH  23  25
ATOM     25  C   UNL d   1      28.814 -13.782   8.557  0.00  0.00     0.031 A 
ATOM     26  C   UNL d   1      28.906 -14.795   9.534  0.00  0.00     0.017 A 
ATOM     27  C   UNL d   1      28.642 -14.520  10.885  0.00  0.00     0.001 A 
ATOM     28  C   UNL d   1      28.356 -13.221  11.293  0.00  0.00     0.002 A 
ATOM     29  C   UNL d   1      28.285 -12.200  10.350  0.00  0.00     0.037 A 
ATOM     30  C   UNL d   1      28.501 -12.469   8.983  0.00  0.00     0.115 A 
BRANCH  30  31
ATOM     31  N   UNL d   1      28.406 -11.303   8.069  0.00  0.00    -0.115 N 
ATOM     32  O   UNL d   1      27.794 -11.461   7.008  0.00  0.00    -0.532 OA
ATOM     33  O   UNL d   1      28.945 -10.229   8.375  0.00  0.00    -0.532 OA
ENDBRANCH  30  31
ENDBRANCH  23  25
ENDBRANCH   4  20
TORSDOF 6
ENDMDL
MODEL 2
REMARK VINA RESULT:    -7.158      7.153      9.168
REMARK INTER + INTRA:         -10.273
REMARK INTER:                  -8.948
REMARK INTRA:                  -1.326
REMARK CONF_INDEPENDENT:        1.790
REMARK UNBOUND:                -1.326
REMARK  6 active torsions:
REMARK  status: ('A' for Active; 'I' for Inactive)
REMARK    1  A    between atoms: C_3  and  C_19 
REMARK    2  A    between atoms: C_4  and  C_5 
REMARK    3  A    between atoms: C_8  and  C_9 
REMARK    4  A    between atoms: C_14  and  N_15 
REMARK       I    between atoms: C_19  and  N_21 
REMARK    5  A    between atoms: N_21  and  C_22 
REMARK    6  A    between atoms: C_24  and  C_25 
ROOT
ATOM      1  N   UNL d   1      25.629 -11.767  -5.590  0.00  0.00    -0.096 N 
ATOM      2  C   UNL d   1      25.813 -12.240  -4.436  0.00  0.00     0.025 C 
ATOM      3  C   UNL d   1      26.035 -12.812  -3.045  0.00  0.00     0.101 C 
ATOM      4  C   UNL d   1      26.609 -12.012  -2.114  0.00  0.00     0.064 C 
ENDROOT
BRANCH   3   5
ATOM      5  C   UNL d   1      25.557 -14.209  -2.783  0.00  0.00     0.265 C 
ATOM      6  O   UNL d   1      25.152 -14.871  -3.739  0.00  0.00    -0.267 OA
ATOM      7  N   UNL d   1      25.503 -14.670  -1.471  0.00  0.00    -0.321 N 
ATOM      8  H   UNL d   1      25.531 -14.026  -0.692  0.00  0.00     0.169 HD
BRANCH   7   9
ATOM      9  C   UNL d   1      25.310 -16.046  -1.132  0.00  0.00     0.057 A 
ATOM     10  C   UNL d   1      24.040 -16.629  -1.350  0.00  0.00     0.047 A 
ATOM     11  C   UNL d   1      23.744 -17.930  -0.876  0.00  0.00     0.050 A 
ATOM     12  C   UNL d   1      24.762 -18.685  -0.281  0.00  0.00     0.018 A 
ATOM     13  C   UNL d   1      26.014 -18.124  -0.068  0.00  0.00     0.027 A 
ATOM     14  C   UNL d   1      26.288 -16.812  -0.462  0.00  0.00     0.060 A 
ATOM     15 CL   UNL d   1      27.784 -16.174   0.139  0.00  0.00    -0.082 Cl
BRANCH  11  16
ATOM     16  C   UNL d   1      22.336 -18.485  -0.877  0.00  0.00     0.417 C 
ATOM     17  F   UNL d   1      21.406 -17.489  -0.896  0.00  0.00    -0.166 F 
ATOM     18  F   UNL d   1      22.062 -19.282  -1.942  0.00  0.00    -0.166 F 
ATOM     19  F   UNL d   1      22.049 -19.226   0.232  0.00  0.00    -0.166 F 
ENDBRANCH  11  16
ENDBRANCH   7   9
ENDBRANCH   3   5
BRANCH   4  20
ATOM     20  C   UNL d   1      26.889 -10.646  -2.445  0.00  0.00     0.077 C 
ATOM     21  C   UNL d   1      28.030 -10.172  -3.084  0.00  0.00     0.040 C 
ATOM     22  C   UNL d   1      28.052  -8.782  -2.957  0.00  0.00     0.041 C 
ATOM     23  C   UNL d   1      26.810  -8.430  -2.495  0.00  0.00     0.088 C 
ATOM     24  O   UNL d   1      26.092  -9.548  -2.153  0.00  0.00    -0.310 OA
BRANCH  23  25
ATOM     25  C   UNL d   1      26.162  -7.128  -2.489  0.00  0.00     0.031 A 
ATOM     26  C   UNL d   1      25.917  -6.461  -3.707  0.00  0.00     0.017 A 
ATOM     27  C   UNL d   1      25.216  -5.246  -3.735  0.00  0.00     0.001 A 
ATOM     28  C   UNL d   1      24.684  -4.715  -2.565  0.00  0.00     0.002 A 
ATOM     29  C   UNL d   1      24.892  -5.369  -1.354  0.00  0.00     0.037 A 
ATOM     30  C   UNL d   1      25.634  -6.566  -1.302  0.00  0.00     0.115 A 
BRANCH  30  31
ATOM     31  N   UNL d   1      25.785  -7.178   0.043  0.00  0.00    -0.115 N 
ATOM     32  O   UNL d   1      26.933  -7.409   0.436  0.00  0.00    -0.532 OA
ATOM     33  O   UNL d   1      24.781  -7.453   0.717  0.00  0.00    -0.532 OA
ENDBRANCH  30  31
ENDBRANCH  23  25
ENDBRANCH   4  20
TORSDOF 6
ENDMDL
MODEL 3
REMARK VINA RESULT:    -7.121      1.831      2.126
REMARK INTER + INTRA:         -10.370
REMARK INTER:                  -8.911
REMARK INTRA:                  -1.459
REMARK CONF_INDEPENDENT:        1.790
REMARK UNBOUND:                -1.459
REMARK  6 active torsions:
REMARK  status: ('A' for Active; 'I' for Inactive)
REMARK    1  A    between atoms: C_3  and  C_19 
REMARK    2  A    between atoms: C_4  and  C_5 
REMARK    3  A    between atoms: C_8  and  C_9 
REMARK    4  A    between atoms: C_14  and  N_15 
REMARK       I    between atoms: C_19  and  N_21 
REMARK    5  A    between atoms: N_21  and  C_22 
REMARK    6  A    between atoms: C_24  and  C_25 
ROOT
ATOM      1  N   UNL d   1      30.867 -14.104   3.610  0.00  0.00    -0.096 N 
ATOM      2  C   UNL d   1      29.607 -14.052   3.589  0.00  0.00     0.025 C 
ATOM      3  C   UNL d   1      28.088 -13.989   3.565  0.00  0.00     0.101 C 
ATOM      4  C   UNL d   1      27.445 -13.706   4.723  0.00  0.00     0.064 C 
ENDROOT
BRANCH   3   5
ATOM      5  C   UNL d   1      27.406 -14.198   2.246  0.00  0.00     0.265 C 
ATOM      6  O   UNL d   1      26.489 -13.434   1.942  0.00  0.00    -0.267 OA
ATOM      7  N   UNL d   1      27.768 -15.289   1.462  0.00  0.00    -0.321 N 
ATOM      8  H   UNL d   1      28.279 -16.067   1.858  0.00  0.00     0.169 HD
BRANCH   7   9
ATOM      9  C   UNL d   1      27.371 -15.438   0.096  0.00  0.00     0.057 A 
ATOM     10  C   UNL d   1      27.398 -14.303  -0.748  0.00  0.00     0.047 A 
ATOM     11  C   UNL d   1      26.854 -14.355  -2.056  0.00  0.00     0.050 A 
ATOM     12  C   UNL d   1      26.387 -15.578  -2.550  0.00  0.00     0.018 A 
ATOM     13  C   UNL d   1      26.363 -16.699  -1.731  0.00  0.00     0.027 A 
ATOM     14  C   UNL d   1      26.823 -16.634  -0.414  0.00  0.00     0.060 A 
ATOM     15 CL   UNL d   1      26.450 -18.025   0.551  0.00  0.00    -0.082 Cl
BRANCH  11  16
ATOM     16  C   UNL d   1      26.647 -13.109  -2.889  0.00  0.00     0.417 C 
ATOM     17  F   UNL d   1      25.367 -13.019  -3.347  0.00  0.00    -0.166 F 
ATOM     18  F   UNL d   1      26.893 -11.954  -2.219  0.00  0.00    -0.166 F 
ATOM     19  F   UNL d   1      27.433 -13.072  -4.004  0.00  0.00    -0.166 F 
ENDBRANCH  11  16
ENDBRANCH   7   9
ENDBRANCH   3   5
BRANCH   4  20
ATOM     20  C   UNL d   1      28.216 -13.382   5.887  0.00  0.00     0.077 C 
ATOM     21  C   UNL d   1      28.677 -12.119   6.243  0.00  0.00     0.040 C 
ATOM     22  C   UNL d   1      29.616 -12.273   7.264  0.00  0.00     0.041 C 
ATOM     23  C   UNL d   1      29.500 -13.573   7.685  0.00  0.00     0.088 C 
ATOM     24  O   UNL d   1      28.672 -14.275   6.847  0.00  0.00    -0.310 OA
BRANCH  23  25
ATOM     25  C   UNL d   1      29.979 -14.193   8.911  0.00  0.00     0.031 A 
ATOM     26  C   UNL d   1      31.239 -14.825   8.930  0.00  0.00     0.017 A 
ATOM     27  C   UNL d   1      31.763 -15.353  10.120  0.00  0.00     0.001 A 
ATOM     28  C   UNL d   1      31.077 -15.196  11.319  0.00  0.00     0.002 A 
ATOM     29  C   UNL d   1      29.842 -14.553  11.329  0.00  0.00     0.037 A 
ATOM     30  C   UNL d   1      29.280 -14.058  10.135  0.00  0.00     0.115 A 
BRANCH  30  31
ATOM     31  N   UNL d   1      27.963 -13.385  10.266  0.00  0.00    -0.115 N 
ATOM     32  O   UNL d   1      27.030 -14.049  10.730  0.00  0.00    -0.532 OA
ATOM     33  O   UNL d   1      27.828 -12.208   9.902  0.00  0.00    -0.532 OA
ENDBRANCH  30  31
ENDBRANCH  23  25
ENDBRANCH   4  20
TORSDOF 6
ENDMDL
MODEL 4
REMARK VINA RESULT:    -7.076      7.668     11.756
REMARK INTER + INTRA:         -10.043
REMARK INTER:                  -8.866
REMARK INTRA:                  -1.177
REMARK CONF_INDEPENDENT:        1.790
REMARK UNBOUND:                -1.177
REMARK  6 active torsions:
REMARK  status: ('A' for Active; 'I' for Inactive)
REMARK    1  A    between atoms: C_3  and  C_19 
REMARK    2  A    between atoms: C_4  and  C_5 
REMARK    3  A    between atoms: C_8  and  C_9 
REMARK    4  A    between atoms: C_14  and  N_15 
REMARK       I    between atoms: C_19  and  N_21 
REMARK    5  A    between atoms: N_21  and  C_22 
REMARK    6  A    between atoms: C_24  and  C_25 
ROOT
ATOM      1  N   UNL d   1      27.482 -15.185  -6.154  0.00  0.00    -0.096 N 
ATOM      2  C   UNL d   1      26.784 -14.611  -5.275  0.00  0.00     0.025 C 
ATOM      3  C   UNL d   1      25.943 -13.918  -4.215  0.00  0.00     0.101 C 
ATOM      4  C   UNL d   1      25.746 -12.583  -4.334  0.00  0.00     0.064 C 
ENDROOT
BRANCH   3   5
ATOM      5  C   UNL d   1      25.347 -14.770  -3.134  0.00  0.00     0.265 C 
ATOM      6  O   UNL d   1      24.166 -14.588  -2.840  0.00  0.00    -0.267 OA
ATOM      7  N   UNL d   1      26.166 -15.662  -2.448  0.00  0.00    -0.321 N 
ATOM      8  H   UNL d   1      27.173 -15.573  -2.478  0.00  0.00     0.169 HD
BRANCH   7   9
ATOM      9  C   UNL d   1      25.659 -16.688  -1.589  0.00  0.00     0.057 A 
ATOM     10  C   UNL d   1      24.291 -17.036  -1.678  0.00  0.00     0.047 A 
ATOM     11  C   UNL d   1      23.701 -17.917  -0.739  0.00  0.00     0.050 A 
ATOM     12  C   UNL d   1      24.514 -18.532   0.220  0.00  0.00     0.018 A 
ATOM     13  C   UNL d   1      25.860 -18.202   0.312  0.00  0.00     0.027 A 
ATOM     14  C   UNL d   1      26.429 -17.273  -0.561  0.00  0.00     0.060 A 
ATOM     15 CL   UNL d   1      28.026 -16.757  -0.126  0.00  0.00    -0.082 Cl
BRANCH  11  16
ATOM     16  C   UNL d   1      22.203 -18.120  -0.659  0.00  0.00     0.417 C 
ATOM     17  F   UNL d   1      21.768 -19.013  -1.591  0.00  0.00    -0.166 F 
ATOM     18  F   UNL d   1      21.778 -18.587   0.544  0.00  0.00    -0.166 F 
ATOM     19  F   UNL d   1      21.494 -16.978  -0.893  0.00  0.00    -0.166 F 
ENDBRANCH  11  16
ENDBRANCH   7   9
ENDBRANCH   3   5
BRANCH   4  20
ATOM     20  C   UNL d   1      26.246 -11.904  -5.492  0.00  0.00     0.077 C 
ATOM     21  C   UNL d   1      25.636 -10.841  -6.150  0.00  0.00     0.040 C 
ATOM     22  C   UNL d   1      26.280 -10.664  -7.376  0.00  0.00     0.041 C 
ATOM     23  C   UNL d   1      27.418 -11.425  -7.313  0.00  0.00     0.088 C 
ATOM     24  O   UNL d   1      27.408 -12.208  -6.186  0.00  0.00    -0.310 OA
BRANCH  23  25
ATOM     25  C   UNL d   1      28.610 -11.376  -8.145  0.00  0.00     0.031 A 
ATOM     26  C   UNL d   1      28.724 -12.235  -9.257  0.00  0.00     0.017 A 
ATOM     27  C   UNL d   1      29.821 -12.147 -10.127  0.00  0.00     0.001 A 
ATOM     28  C   UNL d   1      30.781 -11.157  -9.948  0.00  0.00     0.002 A 
ATOM     29  C   UNL d   1      30.676 -10.281  -8.871  0.00  0.00     0.037 A 
ATOM     30  C   UNL d   1      29.605 -10.386  -7.962  0.00  0.00     0.115 A 
BRANCH  30  31
ATOM     31  N   UNL d   1      29.592  -9.394  -6.856  0.00  0.00    -0.115 N 
ATOM     32  O   UNL d   1      28.579  -8.700  -6.728  0.00  0.00    -0.532 OA
ATOM     33  O   UNL d   1      30.580  -9.276  -6.116  0.00  0.00    -0.532 OA
ENDBRANCH  30  31
ENDBRANCH  23  25
ENDBRANCH   4  20
TORSDOF 6
ENDMDL
MODEL 5
REMARK VINA RESULT:    -6.789      2.136      2.553
REMARK INTER + INTRA:         -10.023
REMARK INTER:                  -8.579
REMARK INTRA:                  -1.444
REMARK CONF_INDEPENDENT:        1.790
REMARK UNBOUND:                -1.444
REMARK  6 active torsions:
REMARK  status: ('A' for Active; 'I' for Inactive)
REMARK    1  A    between atoms: C_3  and  C_19 
REMARK    2  A    between atoms: C_4  and  C_5 
REMARK    3  A    between atoms: C_8  and  C_9 
REMARK    4  A    between atoms: C_14  and  N_15 
REMARK       I    between atoms: C_19  and  N_21 
REMARK    5  A    between atoms: N_21  and  C_22 
REMARK    6  A    between atoms: C_24  and  C_25 
ROOT
ATOM      1  N   UNL d   1      27.712 -11.039   4.626  0.00  0.00    -0.096 N 
ATOM      2  C   UNL d   1      27.867 -12.228   4.234  0.00  0.00     0.025 C 
ATOM      3  C   UNL d   1      28.054 -13.660   3.761  0.00  0.00     0.101 C 
ATOM      4  C   UNL d   1      28.755 -14.504   4.556  0.00  0.00     0.064 C 
ENDROOT
BRANCH   3   5
ATOM      5  C   UNL d   1      27.405 -14.056   2.468  0.00  0.00     0.265 C 
ATOM      6  O   UNL d   1      26.462 -13.376   2.062  0.00  0.00    -0.267 OA
ATOM      7  N   UNL d   1      27.827 -15.216   1.827  0.00  0.00    -0.321 N 
ATOM      8  H   UNL d   1      28.363 -15.917   2.322  0.00  0.00     0.169 HD
BRANCH   7   9
ATOM      9  C   UNL d   1      27.462 -15.546   0.484  0.00  0.00     0.057 A 
ATOM     10  C   UNL d   1      26.147 -16.001   0.229  0.00  0.00     0.047 A 
ATOM     11  C   UNL d   1      25.785 -16.503  -1.045  0.00  0.00     0.050 A 
ATOM     12  C   UNL d   1      26.715 -16.443  -2.090  0.00  0.00     0.018 A 
ATOM     13  C   UNL d   1      28.007 -15.992  -1.851  0.00  0.00     0.027 A 
ATOM     14  C   UNL d   1      28.393 -15.571  -0.576  0.00  0.00     0.060 A 
ATOM     15 CL   UNL d   1      30.098 -15.326  -0.382  0.00  0.00    -0.082 Cl
BRANCH  11  16
ATOM     16  C   UNL d   1      24.472 -17.216  -1.284  0.00  0.00     0.417 C 
ATOM     17  F   UNL d   1      24.405 -17.734  -2.543  0.00  0.00    -0.166 F 
ATOM     18  F   UNL d   1      24.248 -18.252  -0.434  0.00  0.00    -0.166 F 
ATOM     19  F   UNL d   1      23.387 -16.396  -1.173  0.00  0.00    -0.166 F 
ENDBRANCH  11  16
ENDBRANCH   7   9
ENDBRANCH   3   5
BRANCH   4  20
ATOM     20  C   UNL d   1      29.202 -14.047   5.838  0.00  0.00     0.077 C 
ATOM     21  C   UNL d   1      30.405 -13.404   6.108  0.00  0.00     0.040 C 
ATOM     22  C   UNL d   1      30.588 -13.389   7.492  0.00  0.00     0.041 C 
ATOM     23  C   UNL d   1      29.385 -13.769   8.030  0.00  0.00     0.088 C 
ATOM     24  O   UNL d   1      28.533 -14.197   7.044  0.00  0.00    -0.310 OA
BRANCH  23  25
ATOM     25  C   UNL d   1      28.895 -13.620   9.392  0.00  0.00     0.031 A 
ATOM     26  C   UNL d   1      28.550 -14.764  10.141  0.00  0.00     0.017 A 
ATOM     27  C   UNL d   1      28.159 -14.655  11.484  0.00  0.00     0.001 A 
ATOM     28  C   UNL d   1      28.177 -13.419  12.122  0.00  0.00     0.002 A 
ATOM     29  C   UNL d   1      28.538 -12.279  11.410  0.00  0.00     0.037 A 
ATOM     30  C   UNL d   1      28.888 -12.365  10.047  0.00  0.00     0.115 A 
BRANCH  30  31
ATOM     31  N   UNL d   1      29.262 -11.087   9.391  0.00  0.00    -0.115 N 
ATOM     32  O   UNL d   1      30.198 -10.449   9.882  0.00  0.00    -0.532 OA
ATOM     33  O   UNL d   1      28.631 -10.689   8.400  0.00  0.00    -0.532 OA
ENDBRANCH  30  31
ENDBRANCH  23  25
ENDBRANCH   4  20
TORSDOF 6
ENDMDL
MODEL 6
REMARK VINA RESULT:    -6.786      5.071     10.640
REMARK INTER + INTRA:          -9.942
REMARK INTER:                  -8.575
REMARK INTRA:                  -1.367
REMARK CONF_INDEPENDENT:        1.790
REMARK UNBOUND:                -1.367
REMARK  6 active torsions:
REMARK  status: ('A' for Active; 'I' for Inactive)
REMARK    1  A    between atoms: C_3  and  C_19 
REMARK    2  A    between atoms: C_4  and  C_5 
REMARK    3  A    between atoms: C_8  and  C_9 
REMARK    4  A    between atoms: C_14  and  N_15 
REMARK       I    between atoms: C_19  and  N_21 
REMARK    5  A    between atoms: N_21  and  C_22 
REMARK    6  A    between atoms: C_24  and  C_25 
ROOT
ATOM      1  N   UNL d   1      26.145 -11.902   1.730  0.00  0.00    -0.096 N 
ATOM      2  C   UNL d   1      26.851 -12.888   2.074  0.00  0.00     0.025 C 
ATOM      3  C   UNL d   1      27.702 -14.078   2.489  0.00  0.00     0.101 C 
ATOM      4  C   UNL d   1      27.790 -15.125   1.634  0.00  0.00     0.064 C 
ENDROOT
BRANCH   3   5
ATOM      5  C   UNL d   1      28.429 -13.989   3.798  0.00  0.00     0.265 C 
ATOM      6  O   UNL d   1      29.414 -14.708   3.962  0.00  0.00    -0.267 OA
ATOM      7  N   UNL d   1      27.915 -13.174   4.803  0.00  0.00    -0.321 N 
ATOM      8  H   UNL d   1      26.958 -12.850   4.770  0.00  0.00     0.169 HD
BRANCH   7   9
ATOM      9  C   UNL d   1      28.650 -12.823   5.978  0.00  0.00     0.057 A 
ATOM     10  C   UNL d   1      28.904 -13.822   6.946  0.00  0.00     0.047 A 
ATOM     11  C   UNL d   1      29.473 -13.493   8.201  0.00  0.00     0.050 A 
ATOM     12  C   UNL d   1      29.888 -12.177   8.436  0.00  0.00     0.018 A 
ATOM     13  C   UNL d   1      29.649 -11.189   7.489  0.00  0.00     0.027 A 
ATOM     14  C   UNL d   1      29.015 -11.494   6.282  0.00  0.00     0.060 A 
ATOM     15 CL   UNL d   1      28.530 -10.113   5.352  0.00  0.00    -0.082 Cl
BRANCH  11  16
ATOM     16  C   UNL d   1      29.534 -14.487   9.341  0.00  0.00     0.417 C 
ATOM     17  F   UNL d   1      28.522 -15.396   9.267  0.00  0.00    -0.166 F 
ATOM     18  F   UNL d   1      30.687 -15.203   9.382  0.00  0.00    -0.166 F 
ATOM     19  F   UNL d   1      29.407 -13.905  10.568  0.00  0.00    -0.166 F 
ENDBRANCH  11  16
ENDBRANCH   7   9
ENDBRANCH   3   5
BRANCH   4  20
ATOM     20  C   UNL d   1      27.167 -15.029   0.347  0.00  0.00     0.077 C 
ATOM     21  C   UNL d   1      26.405 -16.014  -0.272  0.00  0.00     0.040 C 
ATOM     22  C   UNL d   1      26.231 -15.651  -1.609  0.00  0.00     0.041 C 
ATOM     23  C   UNL d   1      26.648 -14.347  -1.698  0.00  0.00     0.088 C 
ATOM     24  O   UNL d   1      27.244 -13.955  -0.527  0.00  0.00    -0.310 OA
BRANCH  23  25
ATOM     25  C   UNL d   1      26.398 -13.368  -2.744  0.00  0.00     0.031 A 
ATOM     26  C   UNL d   1      26.353 -11.995  -2.422  0.00  0.00     0.017 A 
ATOM     27  C   UNL d   1      26.202 -11.025  -3.423  0.00  0.00     0.001 A 
ATOM     28  C   UNL d   1      26.167 -11.397  -4.763  0.00  0.00     0.002 A 
ATOM     29  C   UNL d   1      26.234 -12.745  -5.106  0.00  0.00     0.037 A 
ATOM     30  C   UNL d   1      26.340 -13.735  -4.109  0.00  0.00     0.115 A 
BRANCH  30  31
ATOM     31  N   UNL d   1      26.411 -15.138  -4.593  0.00  0.00    -0.115 N 
ATOM     32  O   UNL d   1      27.360 -15.439  -5.324  0.00  0.00    -0.532 OA
ATOM     33  O   UNL d   1      25.530 -15.950  -4.274  0.00  0.00    -0.532 OA
ENDBRANCH  30  31
ENDBRANCH  23  25
ENDBRANCH   4  20
TORSDOF 6
ENDMDL
MODEL 7
REMARK VINA RESULT:    -6.754      2.458      2.870
REMARK INTER + INTRA:         -10.009
REMARK INTER:                  -8.544
REMARK INTRA:                  -1.465
REMARK CONF_INDEPENDENT:        1.790
REMARK UNBOUND:                -1.465
REMARK  6 active torsions:
REMARK  status: ('A' for Active; 'I' for Inactive)
REMARK    1  A    between atoms: C_3  and  C_19 
REMARK    2  A    between atoms: C_4  and  C_5 
REMARK    3  A    between atoms: C_8  and  C_9 
REMARK    4  A    between atoms: C_14  and  N_15 
REMARK       I    between atoms: C_19  and  N_21 
REMARK    5  A    between atoms: N_21  and  C_22 
REMARK    6  A    between atoms: C_24  and  C_25 
ROOT
ATOM      1  N   UNL d   1      30.934 -13.270   4.017  0.00  0.00    -0.096 N 
ATOM      2  C   UNL d   1      29.714 -13.579   3.932  0.00  0.00     0.025 C 
ATOM      3  C   UNL d   1      28.244 -13.953   3.829  0.00  0.00     0.101 C 
ATOM      4  C   UNL d   1      27.521 -14.007   4.974  0.00  0.00     0.064 C 
ENDROOT
BRANCH   3   5
ATOM      5  C   UNL d   1      27.681 -14.187   2.459  0.00  0.00     0.265 C 
ATOM      6  O   UNL d   1      26.704 -13.522   2.113  0.00  0.00    -0.267 OA
ATOM      7  N   UNL d   1      28.220 -15.200   1.671  0.00  0.00    -0.321 N 
ATOM      8  H   UNL d   1      28.790 -15.929   2.079  0.00  0.00     0.169 HD
BRANCH   7   9
ATOM      9  C   UNL d   1      27.936 -15.342   0.276  0.00  0.00     0.057 A 
ATOM     10  C   UNL d   1      26.587 -15.445  -0.137  0.00  0.00     0.047 A 
ATOM     11  C   UNL d   1      26.258 -15.758  -1.478  0.00  0.00     0.050 A 
ATOM     12  C   UNL d   1      27.284 -15.857  -2.425  0.00  0.00     0.018 A 
ATOM     13  C   UNL d   1      28.612 -15.751  -2.031  0.00  0.00     0.027 A 
ATOM     14  C   UNL d   1      28.945 -15.522  -0.694  0.00  0.00     0.060 A 
ATOM     15 CL   UNL d   1      30.628 -15.713  -0.326  0.00  0.00    -0.082 Cl
BRANCH  11  16
ATOM     16  C   UNL d   1      24.848 -16.113  -1.898  0.00  0.00     0.417 C 
ATOM     17  F   UNL d   1      24.231 -15.065  -2.515  0.00  0.00    -0.166 F 
ATOM     18  F   UNL d   1      24.779 -17.158  -2.762  0.00  0.00    -0.166 F 
ATOM     19  F   UNL d   1      24.040 -16.438  -0.847  0.00  0.00    -0.166 F 
ENDBRANCH  11  16
ENDBRANCH   7   9
ENDBRANCH   3   5
BRANCH   4  20
ATOM     20  C   UNL d   1      28.138 -13.619   6.207  0.00  0.00     0.077 C 
ATOM     21  C   UNL d   1      28.207 -12.328   6.722  0.00  0.00     0.040 C 
ATOM     22  C   UNL d   1      29.126 -12.329   7.772  0.00  0.00     0.041 C 
ATOM     23  C   UNL d   1      29.380 -13.649   8.044  0.00  0.00     0.088 C 
ATOM     24  O   UNL d   1      28.810 -14.452   7.090  0.00  0.00    -0.310 OA
BRANCH  23  25
ATOM     25  C   UNL d   1      29.989 -14.249   9.221  0.00  0.00     0.031 A 
ATOM     26  C   UNL d   1      31.312 -14.733   9.156  0.00  0.00     0.017 A 
ATOM     27  C   UNL d   1      31.953 -15.235  10.298  0.00  0.00     0.001 A 
ATOM     28  C   UNL d   1      31.318 -15.195  11.535  0.00  0.00     0.002 A 
ATOM     29  C   UNL d   1      30.021 -14.699  11.628  0.00  0.00     0.037 A 
ATOM     30  C   UNL d   1      29.345 -14.234  10.481  0.00  0.00     0.115 A 
BRANCH  30  31
ATOM     31  N   UNL d   1      27.969 -13.720  10.702  0.00  0.00    -0.115 N 
ATOM     32  O   UNL d   1      27.031 -14.444  10.356  0.00  0.00    -0.532 OA
ATOM     33  O   UNL d   1      27.798 -12.597  11.200  0.00  0.00    -0.532 OA
ENDBRANCH  30  31
ENDBRANCH  23  25
ENDBRANCH   4  20
TORSDOF 6
ENDMDL
MODEL 8
REMARK VINA RESULT:    -6.709      7.739     11.327
REMARK INTER + INTRA:          -9.750
REMARK INTER:                  -8.499
REMARK INTRA:                  -1.251
REMARK CONF_INDEPENDENT:        1.790
REMARK UNBOUND:                -1.251
REMARK  6 active torsions:
REMARK  status: ('A' for Active; 'I' for Inactive)
REMARK    1  A    between atoms: C_3  and  C_19 
REMARK    2  A    between atoms: C_4  and  C_5 
REMARK    3  A    between atoms: C_8  and  C_9 
REMARK    4  A    between atoms: C_14  and  N_15 
REMARK       I    between atoms: C_19  and  N_21 
REMARK    5  A    between atoms: N_21  and  C_22 
REMARK    6  A    between atoms: C_24  and  C_25 
ROOT
ATOM      1  N   UNL d   1      27.370 -12.665  -6.255  0.00  0.00    -0.096 N 
ATOM      2  C   UNL d   1      26.704 -12.731  -5.186  0.00  0.00     0.025 C 
ATOM      3  C   UNL d   1      25.900 -12.810  -3.899  0.00  0.00     0.101 C 
ATOM      4  C   UNL d   1      25.530 -11.648  -3.309  0.00  0.00     0.064 C 
ENDROOT
BRANCH   3   5
ATOM      5  C   UNL d   1      25.528 -14.172  -3.394  0.00  0.00     0.265 C 
ATOM      6  O   UNL d   1      25.155 -15.011  -4.215  0.00  0.00    -0.267 OA
ATOM      7  N   UNL d   1      25.530 -14.410  -2.023  0.00  0.00    -0.321 N 
ATOM      8  H   UNL d   1      25.526 -13.643  -1.363  0.00  0.00     0.169 HD
BRANCH   7   9
ATOM      9  C   UNL d   1      25.442 -15.719  -1.455  0.00  0.00     0.057 A 
ATOM     10  C   UNL d   1      24.192 -16.381  -1.461  0.00  0.00     0.047 A 
ATOM     11  C   UNL d   1      24.009 -17.599  -0.762  0.00  0.00     0.050 A 
ATOM     12  C   UNL d   1      25.113 -18.205  -0.151  0.00  0.00     0.018 A 
ATOM     13  C   UNL d   1      26.346 -17.567  -0.144  0.00  0.00     0.027 A 
ATOM     14  C   UNL d   1      26.513 -16.326  -0.764  0.00  0.00     0.060 A 
ATOM     15 CL   UNL d   1      28.016 -15.538  -0.410  0.00  0.00    -0.082 Cl
BRANCH  11  16
ATOM     16  C   UNL d   1      22.638 -18.204  -0.547  0.00  0.00     0.417 C 
ATOM     17  F   UNL d   1      22.461 -19.324  -1.304  0.00  0.00    -0.166 F 
ATOM     18  F   UNL d   1      22.397 -18.571   0.738  0.00  0.00    -0.166 F 
ATOM     19  F   UNL d   1      21.620 -17.367  -0.898  0.00  0.00    -0.166 F 
ENDBRANCH  11  16
ENDBRANCH   7   9
ENDBRANCH   3   5
BRANCH   4  20
ATOM     20  C   UNL d   1      25.821 -10.408  -3.966  0.00  0.00     0.077 C 
ATOM     21  C   UNL d   1      27.052  -9.762  -3.994  0.00  0.00     0.040 C 
ATOM     22  C   UNL d   1      26.851  -8.467  -4.474  0.00  0.00     0.041 C 
ATOM     23  C   UNL d   1      25.575  -8.450  -4.977  0.00  0.00     0.088 C 
ATOM     24  O   UNL d   1      24.920  -9.611  -4.657  0.00  0.00    -0.310 OA
BRANCH  23  25
ATOM     25  C   UNL d   1      24.950  -7.493  -5.877  0.00  0.00     0.031 A 
ATOM     26  C   UNL d   1      23.566  -7.574  -6.133  0.00  0.00     0.017 A 
ATOM     27  C   UNL d   1      22.922  -6.612  -6.926  0.00  0.00     0.001 A 
ATOM     28  C   UNL d   1      23.629  -5.518  -7.415  0.00  0.00     0.002 A 
ATOM     29  C   UNL d   1      24.991  -5.405  -7.154  0.00  0.00     0.037 A 
ATOM     30  C   UNL d   1      25.662  -6.387  -6.398  0.00  0.00     0.115 A 
BRANCH  30  31
ATOM     31  N   UNL d   1      27.113  -6.158  -6.177  0.00  0.00    -0.115 N 
ATOM     32  O   UNL d   1      27.882  -6.469  -7.091  0.00  0.00    -0.532 OA
ATOM     33  O   UNL d   1      27.511  -5.687  -5.101  0.00  0.00    -0.532 OA
ENDBRANCH  30  31
ENDBRANCH  23  25
ENDBRANCH   4  20
TORSDOF 6
ENDMDL
MODEL 9
REMARK VINA RESULT:    -6.460      5.031     10.626
REMARK INTER + INTRA:          -9.793
REMARK INTER:                  -8.250
REMARK INTRA:                  -1.543
REMARK CONF_INDEPENDENT:        1.790
REMARK UNBOUND:                -1.543
REMARK  6 active torsions:
REMARK  status: ('A' for Active; 'I' for Inactive)
REMARK    1  A    between atoms: C_3  and  C_19 
REMARK    2  A    between atoms: C_4  and  C_5 
REMARK    3  A    between atoms: C_8  and  C_9 
REMARK    4  A    between atoms: C_14  and  N_15 
REMARK       I    between atoms: C_19  and  N_21 
REMARK    5  A    between atoms: N_21  and  C_22 
REMARK    6  A    between atoms: C_24  and  C_25 
ROOT
ATOM      1  N   UNL d   1      26.881 -12.176   0.590  0.00  0.00    -0.096 N 
ATOM      2  C   UNL d   1      27.411 -13.124   1.231  0.00  0.00     0.025 C 
ATOM      3  C   UNL d   1      28.049 -14.268   2.002  0.00  0.00     0.101 C 
ATOM      4  C   UNL d   1      28.039 -15.499   1.437  0.00  0.00     0.064 C 
ENDROOT
BRANCH   3   5
ATOM      5  C   UNL d   1      28.692 -13.945   3.318  0.00  0.00     0.265 C 
ATOM      6  O   UNL d   1      29.922 -13.957   3.380  0.00  0.00    -0.267 OA
ATOM      7  N   UNL d   1      27.885 -13.733   4.431  0.00  0.00    -0.321 N 
ATOM      8  H   UNL d   1      26.919 -14.035   4.438  0.00  0.00     0.169 HD
BRANCH   7   9
ATOM      9  C   UNL d   1      28.370 -13.177   5.657  0.00  0.00     0.057 A 
ATOM     10  C   UNL d   1      28.691 -14.051   6.721  0.00  0.00     0.047 A 
ATOM     11  C   UNL d   1      29.009 -13.548   8.006  0.00  0.00     0.050 A 
ATOM     12  C   UNL d   1      29.112 -12.165   8.189  0.00  0.00     0.018 A 
ATOM     13  C   UNL d   1      28.805 -11.298   7.149  0.00  0.00     0.027 A 
ATOM     14  C   UNL d   1      28.412 -11.787   5.901  0.00  0.00     0.060 A 
ATOM     15 CL   UNL d   1      27.784 -10.588   4.819  0.00  0.00    -0.082 Cl
BRANCH  11  16
ATOM     16  C   UNL d   1      29.119 -14.450   9.217  0.00  0.00     0.417 C 
ATOM     17  F   UNL d   1      28.980 -13.749  10.378  0.00  0.00    -0.166 F 
ATOM     18  F   UNL d   1      28.185 -15.435   9.253  0.00  0.00    -0.166 F 
ATOM     19  F   UNL d   1      30.329 -15.073   9.315  0.00  0.00    -0.166 F 
ENDBRANCH  11  16
ENDBRANCH   7   9
ENDBRANCH   3   5
BRANCH   4  20
ATOM     20  C   UNL d   1      27.523 -15.653   0.109  0.00  0.00     0.077 C 
ATOM     21  C   UNL d   1      26.310 -16.237  -0.238  0.00  0.00     0.040 C 
ATOM     22  C   UNL d   1      26.313 -16.456  -1.617  0.00  0.00     0.041 C 
ATOM     23  C   UNL d   1      27.391 -15.760  -2.102  0.00  0.00     0.088 C 
ATOM     24  O   UNL d   1      28.157 -15.284  -1.068  0.00  0.00    -0.310 OA
BRANCH  23  25
ATOM     25  C   UNL d   1      27.694 -15.361  -3.467  0.00  0.00     0.031 A 
ATOM     26  C   UNL d   1      28.874 -15.822  -4.086  0.00  0.00     0.017 A 
ATOM     27  C   UNL d   1      29.147 -15.525  -5.430  0.00  0.00     0.001 A 
ATOM     28  C   UNL d   1      28.219 -14.829  -6.197  0.00  0.00     0.002 A 
ATOM     29  C   UNL d   1      27.036 -14.385  -5.614  0.00  0.00     0.037 A 
ATOM     30  C   UNL d   1      26.768 -14.635  -4.253  0.00  0.00     0.115 A 
BRANCH  30  31
ATOM     31  N   UNL d   1      25.472 -14.121  -3.741  0.00  0.00    -0.115 N 
ATOM     32  O   UNL d   1      25.504 -13.393  -2.745  0.00  0.00    -0.532 OA
ATOM     33  O   UNL d   1      24.412 -14.440  -4.301  0.00  0.00    -0.532 OA
ENDBRANCH  30  31
ENDBRANCH  23  25
ENDBRANCH   4  20
TORSDOF 6
ENDMDL
