MODEL 1
REMARK VINA RESULT:    -7.288      0.000      0.000
REMARK INTER + INTRA:         -15.130
REMARK INTER:                 -11.166
REMARK INTRA:                  -3.964
REMARK CONF_INDEPENDENT:        3.878
REMARK UNBOUND:                -3.964
REMARK  13 active torsions:
REMARK  status: ('A' for Active; 'I' for Inactive)
REMARK    1  A    between atoms: C_2  and  C_3 
REMARK    2  A    between atoms: C_3  and  C_4 
REMARK    3  A    between atoms: C_4  and  N_5 
REMARK       I    between atoms: N_5  and  C_6 
REMARK    4  A    between atoms: C_8  and  C_6 
REMARK    5  A    between atoms: C_8  and  N_18 
REMARK    6  A    between atoms: C_8  and  C_9 
REMARK    7  A    between atoms: C_10  and  O_11 
REMARK    8  A    between atoms: C_13  and  O_14 
REMARK    9  A    between atoms: C_16  and  O_17 
REMARK   10  A    between atoms: N_18  and  C_19 
REMARK       I    between atoms: N_18  and  C_25 
REMARK   11  A    between atoms: C_19  and  C_20 
REMARK   12  A    between atoms: C_25  and  C_27 
REMARK   13  A    between atoms: C_28  and  C_29 
ROOT
ATOM      1  C   UNL d   1      25.980 -15.912  -1.511  0.00  0.00     0.219 C 
ENDROOT
BRANCH   1   2
ATOM      2  N   UNL d   1      27.084 -15.002  -0.838  0.00  0.00    -0.318 N 
ATOM      3  C   UNL d   1      27.904 -15.678   0.089  0.00  0.00     0.300 C 
ATOM      4  O   UNL d   1      28.346 -16.815  -0.047  0.00  0.00    -0.258 OA
BRANCH   2   5
ATOM      5  C   UNL d   1      27.612 -13.585  -1.191  0.00  0.00     0.193 C 
BRANCH   5   6
ATOM      6  C   UNL d   1      27.490 -12.585  -0.111  0.00  0.00     0.070 C 
ATOM      7  C   UNL d   1      28.332 -11.572  -0.171  0.00  0.00     0.036 C 
ATOM      8  C   UNL d   1      28.189 -10.680   0.840  0.00  0.00     0.027 C 
ATOM      9  C   UNL d   1      27.011 -11.043   1.379  0.00  0.00     0.142 C 
ATOM     10  O   UNL d   1      26.515 -12.178   0.769  0.00  0.00    -0.325 OA
ENDBRANCH   5   6
ENDBRANCH   2   5
BRANCH   3  11
ATOM     11  C   UNL d   1      28.134 -15.073   1.358  0.00  0.00     0.000 C 
ATOM     12  C   UNL d   1      28.174 -14.598   2.488  0.00  0.00    -0.057 C 
BRANCH  12  13
ATOM     13  C   UNL d   1      28.206 -14.095   3.808  0.00  0.00     0.018 A 
ATOM     14  C   UNL d   1      27.812 -12.778   4.059  0.00  0.00     0.020 A 
ATOM     15  C   UNL d   1      27.788 -12.293   5.366  0.00  0.00     0.001 A 
ATOM     16  C   UNL d   1      28.176 -13.116   6.422  0.00  0.00     0.000 A 
ATOM     17  C   UNL d   1      28.588 -14.426   6.173  0.00  0.00     0.001 A 
ATOM     18  C   UNL d   1      28.604 -14.917   4.866  0.00  0.00     0.020 A 
ENDBRANCH  12  13
ENDBRANCH   3  11
ENDBRANCH   1   2
BRANCH   1  19
ATOM     19  C   UNL d   1      24.652 -16.714  -0.788  0.00  0.00     0.040 C 
ATOM     20  C   UNL d   1      24.927 -18.018  -0.274  0.00  0.00     0.080 C 
ATOM     21  C   UNL d   1      23.894 -18.954  -0.087  0.00  0.00     0.073 C 
ATOM     22  C   UNL d   1      22.548 -18.631  -0.295  0.00  0.00     0.071 C 
ATOM     23  C   UNL d   1      22.128 -17.336  -0.608  0.00  0.00     0.073 C 
ATOM     24  C   UNL d   1      23.118 -16.347  -0.826  0.00  0.00     0.080 C 
BRANCH  20  25
ATOM     25  O   UNL d   1      26.116 -18.565   0.131  0.00  0.00    -0.360 OA
ATOM     26  H   UNL d   1      26.704 -18.008   0.657  0.00  0.00     0.217 HD
ENDBRANCH  20  25
BRANCH  22  27
ATOM     27  O   UNL d   1      21.628 -19.640  -0.438  0.00  0.00    -0.361 OA
ATOM     28  H   UNL d   1      21.831 -20.320   0.226  0.00  0.00     0.217 HD
ENDBRANCH  22  27
BRANCH  24  29
ATOM     29  O   UNL d   1      22.492 -15.301  -1.645  0.00  0.00    -0.360 OA
ATOM     30  H   UNL d   1      23.185 -14.701  -2.066  0.00  0.00     0.217 HD
ENDBRANCH  24  29
ENDBRANCH   1  19
BRANCH   1  31
ATOM     31  C   UNL d   1      25.617 -15.063  -2.813  0.00  0.00     0.245 C 
ATOM     32  N   UNL d   1      26.615 -14.919  -3.776  0.00  0.00    -0.359 N 
ATOM     33  H   UNL d   1      27.559 -14.812  -3.406  0.00  0.00     0.162 HD
ATOM     34  O   UNL d   1      24.488 -14.622  -3.039  0.00  0.00    -0.271 OA
BRANCH  32  35
ATOM     35  C   UNL d   1      26.339 -14.196  -5.014  0.00  0.00     0.122 C 
BRANCH  35  36
ATOM     36  C   UNL d   1      25.715 -12.829  -4.763  0.00  0.00     0.019 C 
BRANCH  36  37
ATOM     37  C   UNL d   1      26.558 -12.012  -3.785  0.00  0.00    -0.003 C 
ATOM     38  C   UNL d   1      25.888 -10.684  -3.483  0.00  0.00     0.005 C 
ENDBRANCH  36  37
ENDBRANCH  35  36
ENDBRANCH  32  35
ENDBRANCH   1  31
TORSDOF 13
ENDMDL
MODEL 2
REMARK VINA RESULT:    -7.005      3.055      7.530
REMARK INTER + INTRA:         -15.292
REMARK INTER:                 -10.883
REMARK INTRA:                  -4.409
REMARK CONF_INDEPENDENT:        3.878
REMARK UNBOUND:                -4.409
REMARK  13 active torsions:
REMARK  status: ('A' for Active; 'I' for Inactive)
REMARK    1  A    between atoms: C_2  and  C_3 
REMARK    2  A    between atoms: C_3  and  C_4 
REMARK    3  A    between atoms: C_4  and  N_5 
REMARK       I    between atoms: N_5  and  C_6 
REMARK    4  A    between atoms: C_8  and  C_6 
REMARK    5  A    between atoms: C_8  and  N_18 
REMARK    6  A    between atoms: C_8  and  C_9 
REMARK    7  A    between atoms: C_10  and  O_11 
REMARK    8  A    between atoms: C_13  and  O_14 
REMARK    9  A    between atoms: C_16  and  O_17 
REMARK   10  A    between atoms: N_18  and  C_19 
REMARK       I    between atoms: N_18  and  C_25 
REMARK   11  A    between atoms: C_19  and  C_20 
REMARK   12  A    between atoms: C_25  and  C_27 
REMARK   13  A    between atoms: C_28  and  C_29 
ROOT
ATOM      1  C   UNL d   1      27.380 -15.127   0.894  0.00  0.00     0.219 C 
ENDROOT
BRANCH   1   2
ATOM      2  N   UNL d   1      27.856 -16.444   0.162  0.00  0.00    -0.318 N 
ATOM      3  C   UNL d   1      29.171 -16.380  -0.347  0.00  0.00     0.300 C 
ATOM      4  O   UNL d   1      30.129 -15.864   0.220  0.00  0.00    -0.258 OA
BRANCH   2   5
ATOM      5  C   UNL d   1      27.264 -17.879   0.124  0.00  0.00     0.193 C 
BRANCH   5   6
ATOM      6  C   UNL d   1      25.886 -17.974  -0.401  0.00  0.00     0.070 C 
ATOM      7  C   UNL d   1      24.947 -18.200   0.497  0.00  0.00     0.036 C 
ATOM      8  C   UNL d   1      23.699 -18.283  -0.027  0.00  0.00     0.027 C 
ATOM      9  C   UNL d   1      23.876 -17.806  -1.272  0.00  0.00     0.142 C 
ATOM     10  O   UNL d   1      25.209 -17.538  -1.515  0.00  0.00    -0.325 OA
ENDBRANCH   5   6
ENDBRANCH   2   5
BRANCH   3  11
ATOM     11  C   UNL d   1      29.402 -16.810  -1.685  0.00  0.00     0.000 C 
ATOM     12  C   UNL d   1      29.665 -17.028  -2.863  0.00  0.00    -0.057 C 
BRANCH  12  13
ATOM     13  C   UNL d   1      30.016 -17.265  -4.211  0.00  0.00     0.018 A 
ATOM     14  C   UNL d   1      30.007 -16.209  -5.126  0.00  0.00     0.020 A 
ATOM     15  C   UNL d   1      30.406 -16.424  -6.445  0.00  0.00     0.001 A 
ATOM     16  C   UNL d   1      30.795 -17.699  -6.856  0.00  0.00     0.000 A 
ATOM     17  C   UNL d   1      30.787 -18.759  -5.949  0.00  0.00     0.001 A 
ATOM     18  C   UNL d   1      30.398 -18.544  -4.626  0.00  0.00     0.020 A 
ENDBRANCH  12  13
ENDBRANCH   3  11
ENDBRANCH   1   2
BRANCH   1  19
ATOM     19  C   UNL d   1      28.210 -14.167   2.043  0.00  0.00     0.040 C 
ATOM     20  C   UNL d   1      29.098 -13.189   1.500  0.00  0.00     0.080 C 
ATOM     21  C   UNL d   1      30.156 -12.668   2.267  0.00  0.00     0.073 C 
ATOM     22  C   UNL d   1      30.334 -13.000   3.615  0.00  0.00     0.071 C 
ATOM     23  C   UNL d   1      29.423 -13.791   4.318  0.00  0.00     0.073 C 
ATOM     24  C   UNL d   1      28.341 -14.361   3.603  0.00  0.00     0.080 C 
BRANCH  20  25
ATOM     25  O   UNL d   1      29.091 -12.591   0.267  0.00  0.00    -0.360 OA
ATOM     26  H   UNL d   1      28.265 -12.187  -0.026  0.00  0.00     0.217 HD
ENDBRANCH  20  25
BRANCH  22  27
ATOM     27  O   UNL d   1      31.544 -12.756   4.213  0.00  0.00    -0.361 OA
ATOM     28  H   UNL d   1      31.883 -13.604   4.548  0.00  0.00     0.217 HD
ENDBRANCH  22  27
BRANCH  24  29
ATOM     29  O   UNL d   1      27.894 -15.525   4.378  0.00  0.00    -0.360 OA
ATOM     30  H   UNL d   1      28.485 -16.325   4.211  0.00  0.00     0.217 HD
ENDBRANCH  24  29
ENDBRANCH   1  19
BRANCH   1  31
ATOM     31  C   UNL d   1      26.729 -14.308  -0.311  0.00  0.00     0.245 C 
ATOM     32  N   UNL d   1      26.135 -15.048  -1.334  0.00  0.00    -0.359 N 
ATOM     33  H   UNL d   1      26.615 -15.915  -1.573  0.00  0.00     0.162 HD
ATOM     34  O   UNL d   1      26.649 -13.078  -0.327  0.00  0.00    -0.271 OA
BRANCH  32  35
ATOM     35  C   UNL d   1      25.480 -14.364  -2.445  0.00  0.00     0.122 C 
BRANCH  35  36
ATOM     36  C   UNL d   1      25.531 -15.170  -3.737  0.00  0.00     0.019 C 
BRANCH  36  37
ATOM     37  C   UNL d   1      26.948 -15.199  -4.309  0.00  0.00    -0.003 C 
ATOM     38  C   UNL d   1      27.155 -14.051  -5.281  0.00  0.00     0.005 C 
ENDBRANCH  36  37
ENDBRANCH  35  36
ENDBRANCH  32  35
ENDBRANCH   1  31
TORSDOF 13
ENDMDL
MODEL 3
REMARK VINA RESULT:    -7.003      2.600      5.155
REMARK INTER + INTRA:         -15.116
REMARK INTER:                 -10.881
REMARK INTRA:                  -4.235
REMARK CONF_INDEPENDENT:        3.878
REMARK UNBOUND:                -4.235
REMARK  13 active torsions:
REMARK  status: ('A' for Active; 'I' for Inactive)
REMARK    1  A    between atoms: C_2  and  C_3 
REMARK    2  A    between atoms: C_3  and  C_4 
REMARK    3  A    between atoms: C_4  and  N_5 
REMARK       I    between atoms: N_5  and  C_6 
REMARK    4  A    between atoms: C_8  and  C_6 
REMARK    5  A    between atoms: C_8  and  N_18 
REMARK    6  A    between atoms: C_8  and  C_9 
REMARK    7  A    between atoms: C_10  and  O_11 
REMARK    8  A    between atoms: C_13  and  O_14 
REMARK    9  A    between atoms: C_16  and  O_17 
REMARK   10  A    between atoms: N_18  and  C_19 
REMARK       I    between atoms: N_18  and  C_25 
REMARK   11  A    between atoms: C_19  and  C_20 
REMARK   12  A    between atoms: C_25  and  C_27 
REMARK   13  A    between atoms: C_28  and  C_29 
ROOT
ATOM      1  C   UNL d   1      28.030 -15.679  -1.801  0.00  0.00     0.219 C 
ENDROOT
BRANCH   1   2
ATOM      2  N   UNL d   1      27.285 -15.792  -0.411  0.00  0.00    -0.318 N 
ATOM      3  C   UNL d   1      27.085 -14.556   0.240  0.00  0.00     0.300 C 
ATOM      4  O   UNL d   1      26.760 -13.508  -0.308  0.00  0.00    -0.258 OA
BRANCH   2   5
ATOM      5  C   UNL d   1      26.500 -16.958   0.249  0.00  0.00     0.193 C 
BRANCH   5   6
ATOM      6  C   UNL d   1      25.126 -17.153  -0.259  0.00  0.00     0.070 C 
ATOM      7  C   UNL d   1      24.612 -18.353  -0.069  0.00  0.00     0.036 C 
ATOM      8  C   UNL d   1      23.353 -18.491  -0.553  0.00  0.00     0.027 C 
ATOM      9  C   UNL d   1      22.998 -17.218  -0.801  0.00  0.00     0.142 C 
ATOM     10  O   UNL d   1      24.049 -16.355  -0.564  0.00  0.00    -0.325 OA
ENDBRANCH   5   6
ENDBRANCH   2   5
BRANCH   3  11
ATOM     11  C   UNL d   1      27.421 -14.456   1.620  0.00  0.00     0.000 C 
ATOM     12  C   UNL d   1      27.778 -14.221   2.770  0.00  0.00    -0.057 C 
BRANCH  12  13
ATOM     13  C   UNL d   1      28.164 -13.906   4.092  0.00  0.00     0.018 A 
ATOM     14  C   UNL d   1      27.780 -12.686   4.655  0.00  0.00     0.020 A 
ATOM     15  C   UNL d   1      28.110 -12.392   5.978  0.00  0.00     0.001 A 
ATOM     16  C   UNL d   1      28.841 -13.308   6.733  0.00  0.00     0.000 A 
ATOM     17  C   UNL d   1      29.242 -14.519   6.167  0.00  0.00     0.001 A 
ATOM     18  C   UNL d   1      28.905 -14.820   4.847  0.00  0.00     0.020 A 
ENDBRANCH  12  13
ENDBRANCH   3  11
ENDBRANCH   1   2
BRANCH   1  19
ATOM     19  C   UNL d   1      29.275 -16.661  -2.445  0.00  0.00     0.040 C 
ATOM     20  C   UNL d   1      30.252 -17.111  -1.504  0.00  0.00     0.080 C 
ATOM     21  C   UNL d   1      31.533 -17.510  -1.926  0.00  0.00     0.073 C 
ATOM     22  C   UNL d   1      31.882 -17.582  -3.279  0.00  0.00     0.071 C 
ATOM     23  C   UNL d   1      30.961 -17.359  -4.305  0.00  0.00     0.073 C 
ATOM     24  C   UNL d   1      29.656 -16.939  -3.950  0.00  0.00     0.080 C 
BRANCH  20  25
ATOM     25  O   UNL d   1      30.151 -17.264  -0.145  0.00  0.00    -0.360 OA
ATOM     26  H   UNL d   1      30.014 -18.159   0.191  0.00  0.00     0.217 HD
ENDBRANCH  20  25
BRANCH  22  27
ATOM     27  O   UNL d   1      33.209 -17.633  -3.629  0.00  0.00    -0.361 OA
ATOM     28  H   UNL d   1      33.265 -17.495  -4.590  0.00  0.00     0.217 HD
ENDBRANCH  22  27
BRANCH  24  29
ATOM     29  O   UNL d   1      29.098 -16.264  -5.129  0.00  0.00    -0.360 OA
ATOM     30  H   UNL d   1      28.100 -16.143  -5.044  0.00  0.00     0.217 HD
ENDBRANCH  24  29
ENDBRANCH   1  19
BRANCH   1  31
ATOM     31  C   UNL d   1      26.810 -15.413  -2.796  0.00  0.00     0.245 C 
ATOM     32  N   UNL d   1      25.704 -14.740  -2.279  0.00  0.00    -0.359 N 
ATOM     33  H   UNL d   1      25.469 -14.974  -1.316  0.00  0.00     0.162 HD
ATOM     34  O   UNL d   1      26.846 -15.689  -3.997  0.00  0.00    -0.271 OA
BRANCH  32  35
ATOM     35  C   UNL d   1      24.572 -14.421  -3.144  0.00  0.00     0.122 C 
BRANCH  35  36
ATOM     36  C   UNL d   1      24.962 -13.514  -4.305  0.00  0.00     0.019 C 
BRANCH  36  37
ATOM     37  C   UNL d   1      25.530 -12.189  -3.799  0.00  0.00    -0.003 C 
ATOM     38  C   UNL d   1      26.696 -11.743  -4.663  0.00  0.00     0.005 C 
ENDBRANCH  36  37
ENDBRANCH  35  36
ENDBRANCH  32  35
ENDBRANCH   1  31
TORSDOF 13
ENDMDL
MODEL 4
REMARK VINA RESULT:    -6.999      1.272      1.880
REMARK INTER + INTRA:         -15.712
REMARK INTER:                 -10.877
REMARK INTRA:                  -4.836
REMARK CONF_INDEPENDENT:        3.878
REMARK UNBOUND:                -4.836
REMARK  13 active torsions:
REMARK  status: ('A' for Active; 'I' for Inactive)
REMARK    1  A    between atoms: C_2  and  C_3 
REMARK    2  A    between atoms: C_3  and  C_4 
REMARK    3  A    between atoms: C_4  and  N_5 
REMARK       I    between atoms: N_5  and  C_6 
REMARK    4  A    between atoms: C_8  and  C_6 
REMARK    5  A    between atoms: C_8  and  N_18 
REMARK    6  A    between atoms: C_8  and  C_9 
REMARK    7  A    between atoms: C_10  and  O_11 
REMARK    8  A    between atoms: C_13  and  O_14 
REMARK    9  A    between atoms: C_16  and  O_17 
REMARK   10  A    between atoms: N_18  and  C_19 
REMARK       I    between atoms: N_18  and  C_25 
REMARK   11  A    between atoms: C_19  and  C_20 
REMARK   12  A    between atoms: C_25  and  C_27 
REMARK   13  A    between atoms: C_28  and  C_29 
ROOT
ATOM      1  C   UNL d   1      26.018 -15.869  -1.411  0.00  0.00     0.219 C 
ENDROOT
BRANCH   1   2
ATOM      2  N   UNL d   1      26.989 -14.836  -0.711  0.00  0.00    -0.318 N 
ATOM      3  C   UNL d   1      27.862 -15.412   0.235  0.00  0.00     0.300 C 
ATOM      4  O   UNL d   1      28.439 -16.488   0.109  0.00  0.00    -0.258 OA
BRANCH   2   5
ATOM      5  C   UNL d   1      27.352 -13.365  -1.051  0.00  0.00     0.193 C 
BRANCH   5   6
ATOM      6  C   UNL d   1      28.414 -13.201  -2.065  0.00  0.00     0.070 C 
ATOM      7  C   UNL d   1      29.037 -12.038  -2.057  0.00  0.00     0.036 C 
ATOM      8  C   UNL d   1      30.000 -11.928  -3.005  0.00  0.00     0.027 C 
ATOM      9  C   UNL d   1      30.143 -13.199  -3.419  0.00  0.00     0.142 C 
ATOM     10  O   UNL d   1      29.224 -14.027  -2.807  0.00  0.00    -0.325 OA
ENDBRANCH   5   6
ENDBRANCH   2   5
BRANCH   3  11
ATOM     11  C   UNL d   1      27.987 -14.789   1.510  0.00  0.00     0.000 C 
ATOM     12  C   UNL d   1      28.063 -14.403   2.671  0.00  0.00    -0.057 C 
BRANCH  12  13
ATOM     13  C   UNL d   1      28.185 -13.995   4.018  0.00  0.00     0.018 A 
ATOM     14  C   UNL d   1      28.739 -14.867   4.960  0.00  0.00     0.020 A 
ATOM     15  C   UNL d   1      28.913 -14.451   6.280  0.00  0.00     0.001 A 
ATOM     16  C   UNL d   1      28.516 -13.171   6.665  0.00  0.00     0.000 A 
ATOM     17  C   UNL d   1      27.946 -12.305   5.731  0.00  0.00     0.001 A 
ATOM     18  C   UNL d   1      27.780 -12.715   4.407  0.00  0.00     0.020 A 
ENDBRANCH  12  13
ENDBRANCH   3  11
ENDBRANCH   1   2
BRANCH   1  19
ATOM     19  C   UNL d   1      24.676 -16.706  -0.757  0.00  0.00     0.040 C 
ATOM     20  C   UNL d   1      24.949 -18.022  -0.270  0.00  0.00     0.080 C 
ATOM     21  C   UNL d   1      23.921 -18.974  -0.145  0.00  0.00     0.073 C 
ATOM     22  C   UNL d   1      22.579 -18.659  -0.389  0.00  0.00     0.071 C 
ATOM     23  C   UNL d   1      22.154 -17.361  -0.679  0.00  0.00     0.073 C 
ATOM     24  C   UNL d   1      23.140 -16.355  -0.836  0.00  0.00     0.080 C 
BRANCH  20  25
ATOM     25  O   UNL d   1      26.131 -18.567   0.159  0.00  0.00    -0.360 OA
ATOM     26  H   UNL d   1      26.889 -17.975   0.238  0.00  0.00     0.217 HD
ENDBRANCH  20  25
BRANCH  22  27
ATOM     27  O   UNL d   1      21.677 -19.673  -0.592  0.00  0.00    -0.361 OA
ATOM     28  H   UNL d   1      21.698 -20.248   0.192  0.00  0.00     0.217 HD
ENDBRANCH  22  27
BRANCH  24  29
ATOM     29  O   UNL d   1      22.529 -15.293  -1.645  0.00  0.00    -0.360 OA
ATOM     30  H   UNL d   1      23.149 -14.990  -2.381  0.00  0.00     0.217 HD
ENDBRANCH  24  29
ENDBRANCH   1  19
BRANCH   1  31
ATOM     31  C   UNL d   1      25.737 -15.149  -2.807  0.00  0.00     0.245 C 
ATOM     32  N   UNL d   1      26.735 -15.232  -3.777  0.00  0.00    -0.359 N 
ATOM     33  H   UNL d   1      27.688 -15.185  -3.419  0.00  0.00     0.162 HD
ATOM     34  O   UNL d   1      24.661 -14.616  -3.088  0.00  0.00    -0.271 OA
BRANCH  32  35
ATOM     35  C   UNL d   1      26.527 -14.637  -5.094  0.00  0.00     0.122 C 
BRANCH  35  36
ATOM     36  C   UNL d   1      27.046 -13.207  -5.175  0.00  0.00     0.019 C 
BRANCH  36  37
ATOM     37  C   UNL d   1      25.906 -12.200  -5.026  0.00  0.00    -0.003 C 
ATOM     38  C   UNL d   1      25.770 -11.758  -3.580  0.00  0.00     0.005 C 
ENDBRANCH  36  37
ENDBRANCH  35  36
ENDBRANCH  32  35
ENDBRANCH   1  31
TORSDOF 13
ENDMDL
MODEL 5
REMARK VINA RESULT:    -6.765      2.799      7.069
REMARK INTER + INTRA:         -15.595
REMARK INTER:                 -10.643
REMARK INTRA:                  -4.952
REMARK CONF_INDEPENDENT:        3.878
REMARK UNBOUND:                -4.952
REMARK  13 active torsions:
REMARK  status: ('A' for Active; 'I' for Inactive)
REMARK    1  A    between atoms: C_2  and  C_3 
REMARK    2  A    between atoms: C_3  and  C_4 
REMARK    3  A    between atoms: C_4  and  N_5 
REMARK       I    between atoms: N_5  and  C_6 
REMARK    4  A    between atoms: C_8  and  C_6 
REMARK    5  A    between atoms: C_8  and  N_18 
REMARK    6  A    between atoms: C_8  and  C_9 
REMARK    7  A    between atoms: C_10  and  O_11 
REMARK    8  A    between atoms: C_13  and  O_14 
REMARK    9  A    between atoms: C_16  and  O_17 
REMARK   10  A    between atoms: N_18  and  C_19 
REMARK       I    between atoms: N_18  and  C_25 
REMARK   11  A    between atoms: C_19  and  C_20 
REMARK   12  A    between atoms: C_25  and  C_27 
REMARK   13  A    between atoms: C_28  and  C_29 
ROOT
ATOM      1  C   UNL d   1      27.084 -14.143   1.123  0.00  0.00     0.219 C 
ENDROOT
BRANCH   1   2
ATOM      2  N   UNL d   1      27.609 -15.550   0.629  0.00  0.00    -0.318 N 
ATOM      3  C   UNL d   1      29.002 -15.603   0.407  0.00  0.00     0.300 C 
ATOM      4  O   UNL d   1      29.855 -15.079   1.117  0.00  0.00    -0.258 OA
BRANCH   2   5
ATOM      5  C   UNL d   1      26.939 -16.950   0.595  0.00  0.00     0.193 C 
BRANCH   5   6
ATOM      6  C   UNL d   1      25.661 -17.015  -0.145  0.00  0.00     0.070 C 
ATOM      7  C   UNL d   1      25.047 -18.181  -0.124  0.00  0.00     0.036 C 
ATOM      8  C   UNL d   1      23.882 -18.198  -0.818  0.00  0.00     0.027 C 
ATOM      9  C   UNL d   1      23.656 -16.890  -1.033  0.00  0.00     0.142 C 
ATOM     10  O   UNL d   1      24.705 -16.122  -0.568  0.00  0.00    -0.325 OA
ENDBRANCH   5   6
ENDBRANCH   2   5
BRANCH   3  11
ATOM     11  C   UNL d   1      29.474 -16.178  -0.807  0.00  0.00     0.000 C 
ATOM     12  C   UNL d   1      29.743 -16.608  -1.924  0.00  0.00    -0.057 C 
BRANCH  12  13
ATOM     13  C   UNL d   1      30.048 -17.056  -3.228  0.00  0.00     0.018 A 
ATOM     14  C   UNL d   1      29.660 -16.292  -4.333  0.00  0.00     0.020 A 
ATOM     15  C   UNL d   1      30.007 -16.700  -5.620  0.00  0.00     0.001 A 
ATOM     16  C   UNL d   1      30.725 -17.881  -5.807  0.00  0.00     0.000 A 
ATOM     17  C   UNL d   1      31.097 -18.655  -4.708  0.00  0.00     0.001 A 
ATOM     18  C   UNL d   1      30.760 -18.244  -3.417  0.00  0.00     0.020 A 
ENDBRANCH  12  13
ENDBRANCH   3  11
ENDBRANCH   1   2
BRANCH   1  19
ATOM     19  C   UNL d   1      27.632 -13.181   2.428  0.00  0.00     0.040 C 
ATOM     20  C   UNL d   1      28.007 -13.898   3.605  0.00  0.00     0.080 C 
ATOM     21  C   UNL d   1      28.026 -13.266   4.862  0.00  0.00     0.073 C 
ATOM     22  C   UNL d   1      27.780 -11.897   5.011  0.00  0.00     0.071 C 
ATOM     23  C   UNL d   1      27.594 -11.045   3.920  0.00  0.00     0.073 C 
ATOM     24  C   UNL d   1      27.548 -11.618   2.625  0.00  0.00     0.080 C 
BRANCH  20  25
ATOM     25  O   UNL d   1      28.414 -15.200   3.744  0.00  0.00    -0.360 OA
ATOM     26  H   UNL d   1      29.007 -15.553   3.068  0.00  0.00     0.217 HD
ENDBRANCH  20  25
BRANCH  22  27
ATOM     27  O   UNL d   1      27.468 -11.401   6.252  0.00  0.00    -0.361 OA
ATOM     28  H   UNL d   1      26.678 -10.843   6.157  0.00  0.00     0.217 HD
ENDBRANCH  22  27
BRANCH  24  29
ATOM     29  O   UNL d   1      26.822 -10.670   1.773  0.00  0.00    -0.360 OA
ATOM     30  H   UNL d   1      26.425 -11.130   0.967  0.00  0.00     0.217 HD
ENDBRANCH  24  29
ENDBRANCH   1  19
BRANCH   1  31
ATOM     31  C   UNL d   1      26.920 -13.360  -0.258  0.00  0.00     0.245 C 
ATOM     32  N   UNL d   1      26.227 -14.010  -1.279  0.00  0.00    -0.359 N 
ATOM     33  H   UNL d   1      26.387 -15.015  -1.336  0.00  0.00     0.162 HD
ATOM     34  O   UNL d   1      27.291 -12.196  -0.423  0.00  0.00    -0.271 OA
BRANCH  32  35
ATOM     35  C   UNL d   1      25.999 -13.335  -2.553  0.00  0.00     0.122 C 
BRANCH  35  36
ATOM     36  C   UNL d   1      25.129 -14.154  -3.498  0.00  0.00     0.019 C 
BRANCH  36  37
ATOM     37  C   UNL d   1      25.905 -15.337  -4.074  0.00  0.00    -0.003 C 
ATOM     38  C   UNL d   1      26.827 -14.878  -5.190  0.00  0.00     0.005 C 
ENDBRANCH  36  37
ENDBRANCH  35  36
ENDBRANCH  32  35
ENDBRANCH   1  31
TORSDOF 13
ENDMDL
MODEL 6
REMARK VINA RESULT:    -6.706      1.892      3.117
REMARK INTER + INTRA:         -15.089
REMARK INTER:                 -10.584
REMARK INTRA:                  -4.505
REMARK CONF_INDEPENDENT:        3.878
REMARK UNBOUND:                -4.505
REMARK  13 active torsions:
REMARK  status: ('A' for Active; 'I' for Inactive)
REMARK    1  A    between atoms: C_2  and  C_3 
REMARK    2  A    between atoms: C_3  and  C_4 
REMARK    3  A    between atoms: C_4  and  N_5 
REMARK       I    between atoms: N_5  and  C_6 
REMARK    4  A    between atoms: C_8  and  C_6 
REMARK    5  A    between atoms: C_8  and  N_18 
REMARK    6  A    between atoms: C_8  and  C_9 
REMARK    7  A    between atoms: C_10  and  O_11 
REMARK    8  A    between atoms: C_13  and  O_14 
REMARK    9  A    between atoms: C_16  and  O_17 
REMARK   10  A    between atoms: N_18  and  C_19 
REMARK       I    between atoms: N_18  and  C_25 
REMARK   11  A    between atoms: C_19  and  C_20 
REMARK   12  A    between atoms: C_25  and  C_27 
REMARK   13  A    between atoms: C_28  and  C_29 
ROOT
ATOM      1  C   UNL d   1      27.387 -15.933  -1.123  0.00  0.00     0.219 C 
ENDROOT
BRANCH   1   2
ATOM      2  N   UNL d   1      27.740 -14.602  -0.346  0.00  0.00    -0.318 N 
ATOM      3  C   UNL d   1      28.945 -14.660   0.384  0.00  0.00     0.300 C 
ATOM      4  O   UNL d   1      29.983 -15.192   0.003  0.00  0.00    -0.258 OA
BRANCH   2   5
ATOM      5  C   UNL d   1      27.160 -13.164  -0.443  0.00  0.00     0.193 C 
BRANCH   5   6
ATOM      6  C   UNL d   1      26.657 -12.781  -1.778  0.00  0.00     0.070 C 
ATOM      7  C   UNL d   1      27.571 -12.386  -2.642  0.00  0.00     0.036 C 
ATOM      8  C   UNL d   1      27.067 -12.040  -3.852  0.00  0.00     0.027 C 
ATOM      9  C   UNL d   1      25.811 -12.519  -3.788  0.00  0.00     0.142 C 
ATOM     10  O   UNL d   1      25.545 -13.047  -2.541  0.00  0.00    -0.325 OA
ENDBRANCH   5   6
ENDBRANCH   2   5
BRANCH   3  11
ATOM     11  C   UNL d   1      28.943 -14.202   1.733  0.00  0.00     0.000 C 
ATOM     12  C   UNL d   1      28.865 -13.952   2.931  0.00  0.00    -0.057 C 
BRANCH  12  13
ATOM     13  C   UNL d   1      28.797 -13.708   4.321  0.00  0.00     0.018 A 
ATOM     14  C   UNL d   1      27.891 -12.766   4.817  0.00  0.00     0.020 A 
ATOM     15  C   UNL d   1      27.780 -12.560   6.191  0.00  0.00     0.001 A 
ATOM     16  C   UNL d   1      28.587 -13.281   7.071  0.00  0.00     0.000 A 
ATOM     17  C   UNL d   1      29.505 -14.208   6.578  0.00  0.00     0.001 A 
ATOM     18  C   UNL d   1      29.612 -14.423   5.203  0.00  0.00     0.020 A 
ENDBRANCH  12  13
ENDBRANCH   3  11
ENDBRANCH   1   2
BRANCH   1  19
ATOM     19  C   UNL d   1      25.976 -16.897  -1.033  0.00  0.00     0.040 C 
ATOM     20  C   UNL d   1      24.810 -16.340  -1.642  0.00  0.00     0.080 C 
ATOM     21  C   UNL d   1      23.524 -16.763  -1.263  0.00  0.00     0.073 C 
ATOM     22  C   UNL d   1      23.320 -17.809  -0.356  0.00  0.00     0.071 C 
ATOM     23  C   UNL d   1      24.373 -18.568   0.162  0.00  0.00     0.073 C 
ATOM     24  C   UNL d   1      25.696 -18.186  -0.167  0.00  0.00     0.080 C 
BRANCH  20  25
ATOM     25  O   UNL d   1      24.707 -15.401  -2.636  0.00  0.00    -0.360 OA
ATOM     26  H   UNL d   1      25.445 -14.789  -2.745  0.00  0.00     0.217 HD
ENDBRANCH  20  25
BRANCH  22  27
ATOM     27  O   UNL d   1      22.092 -17.954   0.239  0.00  0.00    -0.361 OA
ATOM     28  H   UNL d   1      22.055 -17.340   0.992  0.00  0.00     0.217 HD
ENDBRANCH  22  27
BRANCH  24  29
ATOM     29  O   UNL d   1      26.564 -18.736   0.882  0.00  0.00    -0.360 OA
ATOM     30  H   UNL d   1      27.514 -18.413   0.779  0.00  0.00     0.217 HD
ENDBRANCH  24  29
ENDBRANCH   1  19
BRANCH   1  31
ATOM     31  C   UNL d   1      27.852 -15.570  -2.606  0.00  0.00     0.245 C 
ATOM     32  N   UNL d   1      29.221 -15.420  -2.825  0.00  0.00    -0.359 N 
ATOM     33  H   UNL d   1      29.733 -14.979  -2.061  0.00  0.00     0.162 HD
ATOM     34  O   UNL d   1      27.076 -15.511  -3.562  0.00  0.00    -0.271 OA
BRANCH  32  35
ATOM     35  C   UNL d   1      29.721 -15.134  -4.166  0.00  0.00     0.122 C 
BRANCH  35  36
ATOM     36  C   UNL d   1      30.106 -16.396  -4.926  0.00  0.00     0.019 C 
BRANCH  36  37
ATOM     37  C   UNL d   1      30.031 -16.173  -6.436  0.00  0.00    -0.003 C 
ATOM     38  C   UNL d   1      29.359 -14.848  -6.747  0.00  0.00     0.005 C 
ENDBRANCH  36  37
ENDBRANCH  35  36
ENDBRANCH  32  35
ENDBRANCH   1  31
TORSDOF 13
ENDMDL
MODEL 7
REMARK VINA RESULT:    -6.690      1.596      2.732
REMARK INTER + INTRA:         -15.194
REMARK INTER:                 -10.568
REMARK INTRA:                  -4.626
REMARK CONF_INDEPENDENT:        3.878
REMARK UNBOUND:                -4.626
REMARK  13 active torsions:
REMARK  status: ('A' for Active; 'I' for Inactive)
REMARK    1  A    between atoms: C_2  and  C_3 
REMARK    2  A    between atoms: C_3  and  C_4 
REMARK    3  A    between atoms: C_4  and  N_5 
REMARK       I    between atoms: N_5  and  C_6 
REMARK    4  A    between atoms: C_8  and  C_6 
REMARK    5  A    between atoms: C_8  and  N_18 
REMARK    6  A    between atoms: C_8  and  C_9 
REMARK    7  A    between atoms: C_10  and  O_11 
REMARK    8  A    between atoms: C_13  and  O_14 
REMARK    9  A    between atoms: C_16  and  O_17 
REMARK   10  A    between atoms: N_18  and  C_19 
REMARK       I    between atoms: N_18  and  C_25 
REMARK   11  A    between atoms: C_19  and  C_20 
REMARK   12  A    between atoms: C_25  and  C_27 
REMARK   13  A    between atoms: C_28  and  C_29 
ROOT
ATOM      1  C   UNL d   1      26.022 -16.275  -1.580  0.00  0.00     0.219 C 
ENDROOT
BRANCH   1   2
ATOM      2  N   UNL d   1      27.213 -15.474  -0.917  0.00  0.00    -0.318 N 
ATOM      3  C   UNL d   1      27.520 -15.879   0.400  0.00  0.00     0.300 C 
ATOM      4  O   UNL d   1      27.540 -17.038   0.801  0.00  0.00    -0.258 OA
BRANCH   2   5
ATOM      5  C   UNL d   1      28.278 -14.517  -1.519  0.00  0.00     0.193 C 
BRANCH   5   6
ATOM      6  C   UNL d   1      29.157 -15.123  -2.540  0.00  0.00     0.070 C 
ATOM      7  C   UNL d   1      29.626 -16.322  -2.252  0.00  0.00     0.036 C 
ATOM      8  C   UNL d   1      30.431 -16.839  -3.212  0.00  0.00     0.027 C 
ATOM      9  C   UNL d   1      30.206 -16.015  -4.251  0.00  0.00     0.142 C 
ATOM     10  O   UNL d   1      29.367 -14.980  -3.891  0.00  0.00    -0.325 OA
ENDBRANCH   5   6
ENDBRANCH   2   5
BRANCH   3  11
ATOM     11  C   UNL d   1      27.680 -14.875   1.397  0.00  0.00     0.000 C 
ATOM     12  C   UNL d   1      27.723 -14.109   2.354  0.00  0.00    -0.057 C 
BRANCH  12  13
ATOM     13  C   UNL d   1      27.789 -13.264   3.484  0.00  0.00     0.018 A 
ATOM     14  C   UNL d   1      27.896 -13.822   4.762  0.00  0.00     0.020 A 
ATOM     15  C   UNL d   1      28.017 -12.994   5.877  0.00  0.00     0.001 A 
ATOM     16  C   UNL d   1      28.013 -11.608   5.720  0.00  0.00     0.000 A 
ATOM     17  C   UNL d   1      27.887 -11.049   4.448  0.00  0.00     0.001 A 
ATOM     18  C   UNL d   1      27.775 -11.875   3.329  0.00  0.00     0.020 A 
ENDBRANCH  12  13
ENDBRANCH   3  11
ENDBRANCH   1   2
BRANCH   1  19
ATOM     19  C   UNL d   1      24.654 -16.989  -0.841  0.00  0.00     0.040 C 
ATOM     20  C   UNL d   1      24.844 -18.315  -0.343  0.00  0.00     0.080 C 
ATOM     21  C   UNL d   1      23.751 -19.177  -0.145  0.00  0.00     0.073 C 
ATOM     22  C   UNL d   1      22.428 -18.757  -0.326  0.00  0.00     0.071 C 
ATOM     23  C   UNL d   1      22.095 -17.432  -0.620  0.00  0.00     0.073 C 
ATOM     24  C   UNL d   1      23.149 -16.514  -0.848  0.00  0.00     0.080 C 
BRANCH  20  25
ATOM     25  O   UNL d   1      25.999 -18.949   0.035  0.00  0.00    -0.360 OA
ATOM     26  H   UNL d   1      26.738 -18.393   0.314  0.00  0.00     0.217 HD
ENDBRANCH  20  25
BRANCH  22  27
ATOM     27  O   UNL d   1      21.437 -19.696  -0.462  0.00  0.00    -0.361 OA
ATOM     28  H   UNL d   1      21.523 -20.324   0.276  0.00  0.00     0.217 HD
ENDBRANCH  22  27
BRANCH  24  29
ATOM     29  O   UNL d   1      22.585 -15.418  -1.645  0.00  0.00    -0.360 OA
ATOM     30  H   UNL d   1      23.310 -14.888  -2.105  0.00  0.00     0.217 HD
ENDBRANCH  24  29
ENDBRANCH   1  19
BRANCH   1  31
ATOM     31  C   UNL d   1      25.695 -15.367  -2.851  0.00  0.00     0.245 C 
ATOM     32  N   UNL d   1      26.483 -15.554  -3.986  0.00  0.00    -0.359 N 
ATOM     33  H   UNL d   1      27.467 -15.747  -3.800  0.00  0.00     0.162 HD
ATOM     34  O   UNL d   1      24.737 -14.593  -2.899  0.00  0.00    -0.271 OA
BRANCH  32  35
ATOM     35  C   UNL d   1      26.210 -14.791  -5.200  0.00  0.00     0.122 C 
BRANCH  35  36
ATOM     36  C   UNL d   1      27.168 -13.621  -5.381  0.00  0.00     0.019 C 
BRANCH  36  37
ATOM     37  C   UNL d   1      26.478 -12.293  -5.073  0.00  0.00    -0.003 C 
ATOM     38  C   UNL d   1      26.959 -11.737  -3.744  0.00  0.00     0.005 C 
ENDBRANCH  36  37
ENDBRANCH  35  36
ENDBRANCH  32  35
ENDBRANCH   1  31
TORSDOF 13
ENDMDL
MODEL 8
REMARK VINA RESULT:    -6.466      2.648      6.130
REMARK INTER + INTRA:         -15.095
REMARK INTER:                 -10.344
REMARK INTRA:                  -4.750
REMARK CONF_INDEPENDENT:        3.878
REMARK UNBOUND:                -4.750
REMARK  13 active torsions:
REMARK  status: ('A' for Active; 'I' for Inactive)
REMARK    1  A    between atoms: C_2  and  C_3 
REMARK    2  A    between atoms: C_3  and  C_4 
REMARK    3  A    between atoms: C_4  and  N_5 
REMARK       I    between atoms: N_5  and  C_6 
REMARK    4  A    between atoms: C_8  and  C_6 
REMARK    5  A    between atoms: C_8  and  N_18 
REMARK    6  A    between atoms: C_8  and  C_9 
REMARK    7  A    between atoms: C_10  and  O_11 
REMARK    8  A    between atoms: C_13  and  O_14 
REMARK    9  A    between atoms: C_16  and  O_17 
REMARK   10  A    between atoms: N_18  and  C_19 
REMARK       I    between atoms: N_18  and  C_25 
REMARK   11  A    between atoms: C_19  and  C_20 
REMARK   12  A    between atoms: C_25  and  C_27 
REMARK   13  A    between atoms: C_28  and  C_29 
ROOT
ATOM      1  C   UNL d   1      29.033 -16.090  -1.258  0.00  0.00     0.219 C 
ENDROOT
BRANCH   1   2
ATOM      2  N   UNL d   1      28.037 -16.082  -0.031  0.00  0.00    -0.318 N 
ATOM      3  C   UNL d   1      27.774 -14.798   0.493  0.00  0.00     0.300 C 
ATOM      4  O   UNL d   1      27.606 -13.779  -0.170  0.00  0.00    -0.258 OA
BRANCH   2   5
ATOM      5  C   UNL d   1      27.089 -17.172   0.539  0.00  0.00     0.193 C 
BRANCH   5   6
ATOM      6  C   UNL d   1      25.793 -17.301  -0.159  0.00  0.00     0.070 C 
ATOM      7  C   UNL d   1      24.975 -18.218   0.320  0.00  0.00     0.036 C 
ATOM      8  C   UNL d   1      23.800 -18.306  -0.351  0.00  0.00     0.027 C 
ATOM      9  C   UNL d   1      23.811 -17.189  -1.099  0.00  0.00     0.142 C 
ATOM     10  O   UNL d   1      25.001 -16.505  -0.953  0.00  0.00    -0.325 OA
ENDBRANCH   5   6
ENDBRANCH   2   5
BRANCH   3  11
ATOM     11  C   UNL d   1      27.850 -14.613   1.903  0.00  0.00     0.000 C 
ATOM     12  C   UNL d   1      28.005 -14.317   3.084  0.00  0.00    -0.057 C 
BRANCH  12  13
ATOM     13  C   UNL d   1      28.167 -13.930   4.433  0.00  0.00     0.018 A 
ATOM     14  C   UNL d   1      28.693 -14.837   5.356  0.00  0.00     0.020 A 
ATOM     15  C   UNL d   1      28.908 -14.444   6.677  0.00  0.00     0.001 A 
ATOM     16  C   UNL d   1      28.578 -13.151   7.081  0.00  0.00     0.000 A 
ATOM     17  C   UNL d   1      28.034 -12.249   6.166  0.00  0.00     0.001 A 
ATOM     18  C   UNL d   1      27.828 -12.637   4.841  0.00  0.00     0.020 A 
ENDBRANCH  12  13
ENDBRANCH   3  11
ENDBRANCH   1   2
BRANCH   1  19
ATOM     19  C   UNL d   1      28.856 -15.368  -2.800  0.00  0.00     0.040 C 
ATOM     20  C   UNL d   1      27.510 -15.146  -3.224  0.00  0.00     0.080 C 
ATOM     21  C   UNL d   1      27.196 -15.007  -4.588  0.00  0.00     0.073 C 
ATOM     22  C   UNL d   1      28.181 -14.979  -5.581  0.00  0.00     0.071 C 
ATOM     23  C   UNL d   1      29.546 -14.988  -5.284  0.00  0.00     0.073 C 
ATOM     24  C   UNL d   1      29.933 -15.141  -3.930  0.00  0.00     0.080 C 
BRANCH  20  25
ATOM     25  O   UNL d   1      26.370 -15.004  -2.477  0.00  0.00    -0.360 OA
ATOM     26  H   UNL d   1      26.452 -15.103  -1.520  0.00  0.00     0.217 HD
ENDBRANCH  20  25
BRANCH  22  27
ATOM     27  O   UNL d   1      27.824 -15.191  -6.889  0.00  0.00    -0.361 OA
ATOM     28  H   UNL d   1      28.518 -14.803  -7.450  0.00  0.00     0.217 HD
ENDBRANCH  22  27
BRANCH  24  29
ATOM     29  O   UNL d   1      31.305 -15.663  -3.943  0.00  0.00    -0.360 OA
ATOM     30  H   UNL d   1      31.821 -15.361  -3.130  0.00  0.00     0.217 HD
ENDBRANCH  24  29
ENDBRANCH   1  19
BRANCH   1  31
ATOM     31  C   UNL d   1      30.427 -15.793  -0.540  0.00  0.00     0.245 C 
ATOM     32  N   UNL d   1      30.719 -16.529   0.608  0.00  0.00    -0.359 N 
ATOM     33  H   UNL d   1      29.921 -16.719   1.213  0.00  0.00     0.162 HD
ATOM     34  O   UNL d   1      31.275 -15.027  -1.001  0.00  0.00    -0.271 OA
BRANCH  32  35
ATOM     35  C   UNL d   1      31.997 -16.344   1.290  0.00  0.00     0.122 C 
BRANCH  35  36
ATOM     36  C   UNL d   1      31.854 -15.574   2.596  0.00  0.00     0.019 C 
BRANCH  36  37
ATOM     37  C   UNL d   1      31.990 -14.070   2.365  0.00  0.00    -0.003 C 
ATOM     38  C   UNL d   1      33.452 -13.674   2.268  0.00  0.00     0.005 C 
ENDBRANCH  36  37
ENDBRANCH  35  36
ENDBRANCH  32  35
ENDBRANCH   1  31
TORSDOF 13
ENDMDL
MODEL 9
REMARK VINA RESULT:    -6.163      3.015      7.512
REMARK INTER + INTRA:         -15.233
REMARK INTER:                 -10.041
REMARK INTRA:                  -5.192
REMARK CONF_INDEPENDENT:        3.878
REMARK UNBOUND:                -5.192
REMARK  13 active torsions:
REMARK  status: ('A' for Active; 'I' for Inactive)
REMARK    1  A    between atoms: C_2  and  C_3 
REMARK    2  A    between atoms: C_3  and  C_4 
REMARK    3  A    between atoms: C_4  and  N_5 
REMARK       I    between atoms: N_5  and  C_6 
REMARK    4  A    between atoms: C_8  and  C_6 
REMARK    5  A    between atoms: C_8  and  N_18 
REMARK    6  A    between atoms: C_8  and  C_9 
REMARK    7  A    between atoms: C_10  and  O_11 
REMARK    8  A    between atoms: C_13  and  O_14 
REMARK    9  A    between atoms: C_16  and  O_17 
REMARK   10  A    between atoms: N_18  and  C_19 
REMARK       I    between atoms: N_18  and  C_25 
REMARK   11  A    between atoms: C_19  and  C_20 
REMARK   12  A    between atoms: C_25  and  C_27 
REMARK   13  A    between atoms: C_28  and  C_29 
ROOT
ATOM      1  C   UNL d   1      27.387 -11.856  -3.935  0.00  0.00     0.219 C 
ENDROOT
BRANCH   1   2
ATOM      2  N   UNL d   1      26.992 -13.374  -4.132  0.00  0.00    -0.318 N 
ATOM      3  C   UNL d   1      25.628 -13.652  -3.900  0.00  0.00     0.300 C 
ATOM      4  O   UNL d   1      24.689 -12.942  -4.246  0.00  0.00    -0.258 OA
BRANCH   2   5
ATOM      5  C   UNL d   1      27.748 -14.564  -4.784  0.00  0.00     0.193 C 
BRANCH   5   6
ATOM      6  C   UNL d   1      28.371 -15.507  -3.832  0.00  0.00     0.070 C 
ATOM      7  C   UNL d   1      29.356 -16.239  -4.314  0.00  0.00     0.036 C 
ATOM      8  C   UNL d   1      29.896 -17.093  -3.409  0.00  0.00     0.027 C 
ATOM      9  C   UNL d   1      29.384 -16.645  -2.249  0.00  0.00     0.142 C 
ATOM     10  O   UNL d   1      28.488 -15.618  -2.466  0.00  0.00    -0.325 OA
ENDBRANCH   5   6
ENDBRANCH   2   5
BRANCH   3  11
ATOM     11  C   UNL d   1      25.293 -14.763  -3.075  0.00  0.00     0.000 C 
ATOM     12  C   UNL d   1      24.892 -15.619  -2.293  0.00  0.00    -0.057 C 
BRANCH  12  13
ATOM     13  C   UNL d   1      24.383 -16.595  -1.408  0.00  0.00     0.018 A 
ATOM     14  C   UNL d   1      23.056 -16.517  -0.977  0.00  0.00     0.020 A 
ATOM     15  C   UNL d   1      22.531 -17.508  -0.149  0.00  0.00     0.001 A 
ATOM     16  C   UNL d   1      23.336 -18.568   0.267  0.00  0.00     0.000 A 
ATOM     17  C   UNL d   1      24.667 -18.638  -0.147  0.00  0.00     0.001 A 
ATOM     18  C   UNL d   1      25.192 -17.653  -0.984  0.00  0.00     0.020 A 
ENDBRANCH  12  13
ENDBRANCH   3  11
ENDBRANCH   1   2
BRANCH   1  19
ATOM     19  C   UNL d   1      26.696 -10.458  -4.640  0.00  0.00     0.040 C 
ATOM     20  C   UNL d   1      26.867  -9.248  -3.901  0.00  0.00     0.080 C 
ATOM     21  C   UNL d   1      26.000  -8.157  -4.090  0.00  0.00     0.073 C 
ATOM     22  C   UNL d   1      25.001  -8.159  -5.070  0.00  0.00     0.071 C 
ATOM     23  C   UNL d   1      24.855  -9.201  -5.989  0.00  0.00     0.073 C 
ATOM     24  C   UNL d   1      25.686 -10.339  -5.846  0.00  0.00     0.080 C 
BRANCH  20  25
ATOM     25  O   UNL d   1      27.823  -8.916  -2.976  0.00  0.00    -0.360 OA
ATOM     26  H   UNL d   1      27.749  -9.315  -2.100  0.00  0.00     0.217 HD
ENDBRANCH  20  25
BRANCH  22  27
ATOM     27  O   UNL d   1      23.979  -7.247  -4.991  0.00  0.00    -0.361 OA
ATOM     28  H   UNL d   1      23.532  -7.378  -4.138  0.00  0.00     0.217 HD
ENDBRANCH  22  27
BRANCH  24  29
ATOM     29  O   UNL d   1      24.998 -11.447  -6.520  0.00  0.00    -0.360 OA
ATOM     30  H   UNL d   1      24.505 -12.029  -5.858  0.00  0.00     0.217 HD
ENDBRANCH  24  29
ENDBRANCH   1  19
BRANCH   1  31
ATOM     31  C   UNL d   1      27.579 -11.778  -2.352  0.00  0.00     0.245 C 
ATOM     32  N   UNL d   1      28.519 -12.637  -1.783  0.00  0.00    -0.359 N 
ATOM     33  H   UNL d   1      28.569 -13.563  -2.207  0.00  0.00     0.162 HD
ATOM     34  O   UNL d   1      27.011 -10.945  -1.644  0.00  0.00    -0.271 OA
BRANCH  32  35
ATOM     35  C   UNL d   1      28.780 -12.587  -0.348  0.00  0.00     0.122 C 
BRANCH  35  36
ATOM     36  C   UNL d   1      28.859 -13.974   0.279  0.00  0.00     0.019 C 
BRANCH  36  37
ATOM     37  C   UNL d   1      27.476 -14.466   0.700  0.00  0.00    -0.003 C 
ATOM     38  C   UNL d   1      27.405 -15.981   0.635  0.00  0.00     0.005 C 
ENDBRANCH  36  37
ENDBRANCH  35  36
ENDBRANCH  32  35
ENDBRANCH   1  31
TORSDOF 13
ENDMDL
