MODEL 1
REMARK VINA RESULT:    -7.975      0.000      0.000
REMARK INTER + INTRA:          -9.879
REMARK INTER:                  -9.168
REMARK INTRA:                  -0.710
REMARK CONF_INDEPENDENT:        1.193
REMARK UNBOUND:                -0.710
REMARK  4 active torsions:
REMARK  status: ('A' for Active; 'I' for Inactive)
REMARK       I    between atoms: C_2  and  N_3 
REMARK    1  A    between atoms: C_2  and  C_13 
REMARK    2  A    between atoms: N_3  and  N_4 
REMARK    3  A    between atoms: N_4  and  C_5 
REMARK       I    between atoms: C_13  and  N_15 
REMARK    4  A    between atoms: N_15  and  C_16 
ROOT
ATOM      1  O   UNL d   1      26.528 -14.192   0.598  0.00  0.00    -0.261 OA
ATOM      2  C   UNL d   1      27.400 -14.728   1.289  0.00  0.00     0.328 C 
ATOM      3  N   UNL d   1      27.979 -15.943   0.930  0.00  0.00    -0.261 N 
ATOM      4  H   UNL d   1      28.781 -16.355   1.383  0.00  0.00     0.190 HD
ENDROOT
BRANCH   2   5
ATOM      5  C   UNL d   1      27.853 -14.038   2.600  0.00  0.00     0.315 C 
ATOM      6  O   UNL d   1      27.938 -12.809   2.588  0.00  0.00    -0.262 OA
ATOM      7  N   UNL d   1      28.191 -14.825   3.711  0.00  0.00    -0.319 N 
ATOM      8  H   UNL d   1      28.395 -15.804   3.589  0.00  0.00     0.169 HD
BRANCH   7   9
ATOM      9  C   UNL d   1      28.629 -14.213   4.920  0.00  0.00     0.038 A 
ATOM     10  C   UNL d   1      29.654 -14.798   5.677  0.00  0.00     0.029 A 
ATOM     11  C   UNL d   1      30.046 -14.258   6.906  0.00  0.00     0.005 A 
ATOM     12  C   UNL d   1      29.403 -13.129   7.398  0.00  0.00     0.042 A 
ATOM     13  C   UNL d   1      28.409 -12.527   6.633  0.00  0.00     0.118 A 
ATOM     14  F   UNL d   1      27.780 -11.449   7.120  0.00  0.00    -0.206 F 
ATOM     15  C   UNL d   1      28.035 -13.037   5.383  0.00  0.00     0.071 A 
ENDBRANCH   7   9
ENDBRANCH   2   5
BRANCH   3  16
ATOM     16  N   UNL d   1      27.556 -16.497  -0.287  0.00  0.00    -0.296 N 
ATOM     17  H   UNL d   1      28.270 -16.674  -1.004  0.00  0.00     0.187 HD
BRANCH  16  18
ATOM     18  C   UNL d   1      26.266 -17.022  -0.449  0.00  0.00     0.070 A 
ATOM     19  C   UNL d   1      25.808 -18.086   0.339  0.00  0.00     0.034 A 
ATOM     20  C   UNL d   1      24.492 -18.557   0.223  0.00  0.00     0.026 A 
ATOM     21  C   UNL d   1      23.630 -18.002  -0.719  0.00  0.00     0.035 A 
ATOM     22 CL   UNL d   1      22.012 -18.575  -0.837  0.00  0.00    -0.084 Cl
ATOM     23  C   UNL d   1      24.070 -16.982  -1.554  0.00  0.00     0.050 A 
ATOM     24  C   UNL d   1      25.377 -16.499  -1.417  0.00  0.00     0.063 A 
ATOM     25 CL   UNL d   1      25.880 -15.237  -2.491  0.00  0.00    -0.082 Cl
ENDBRANCH  16  18
ENDBRANCH   3  16
TORSDOF 4
ENDMDL
MODEL 2
REMARK VINA RESULT:    -7.837      5.579      9.088
REMARK INTER + INTRA:          -9.969
REMARK INTER:                  -9.030
REMARK INTRA:                  -0.940
REMARK CONF_INDEPENDENT:        1.193
REMARK UNBOUND:                -0.940
REMARK  4 active torsions:
REMARK  status: ('A' for Active; 'I' for Inactive)
REMARK       I    between atoms: C_2  and  N_3 
REMARK    1  A    between atoms: C_2  and  C_13 
REMARK    2  A    between atoms: N_3  and  N_4 
REMARK    3  A    between atoms: N_4  and  C_5 
REMARK       I    between atoms: C_13  and  N_15 
REMARK    4  A    between atoms: N_15  and  C_16 
ROOT
ATOM      1  O   UNL d   1      23.689 -18.572  -2.028  0.00  0.00    -0.261 OA
ATOM      2  C   UNL d   1      23.046 -17.809  -1.301  0.00  0.00     0.328 C 
ATOM      3  N   UNL d   1      23.515 -16.540  -0.970  0.00  0.00    -0.261 N 
ATOM      4  H   UNL d   1      22.975 -15.832  -0.495  0.00  0.00     0.190 HD
ENDROOT
BRANCH   2   5
ATOM      5  C   UNL d   1      21.686 -18.280  -0.729  0.00  0.00     0.315 C 
ATOM      6  O   UNL d   1      20.705 -17.567  -0.952  0.00  0.00    -0.262 OA
ATOM      7  N   UNL d   1      21.632 -19.447   0.047  0.00  0.00    -0.319 N 
ATOM      8  H   UNL d   1      22.477 -19.822   0.448  0.00  0.00     0.169 HD
BRANCH   7   9
ATOM      9  C   UNL d   1      20.396 -19.887   0.600  0.00  0.00     0.038 A 
ATOM     10  C   UNL d   1      20.224 -19.946   1.991  0.00  0.00     0.029 A 
ATOM     11  C   UNL d   1      19.049 -20.449   2.555  0.00  0.00     0.005 A 
ATOM     12  C   UNL d   1      18.032 -20.915   1.730  0.00  0.00     0.042 A 
ATOM     13  C   UNL d   1      18.187 -20.826   0.349  0.00  0.00     0.118 A 
ATOM     14  F   UNL d   1      17.211 -21.292  -0.442  0.00  0.00    -0.206 F 
ATOM     15  C   UNL d   1      19.344 -20.288  -0.227  0.00  0.00     0.071 A 
ENDBRANCH   7   9
ENDBRANCH   2   5
BRANCH   3  16
ATOM     16  N   UNL d   1      24.732 -16.156  -1.551  0.00  0.00    -0.296 N 
ATOM     17  H   UNL d   1      24.761 -16.050  -2.572  0.00  0.00     0.187 HD
BRANCH  16  18
ATOM     18  C   UNL d   1      25.806 -15.694  -0.775  0.00  0.00     0.070 A 
ATOM     19  C   UNL d   1      26.281 -14.382  -0.898  0.00  0.00     0.034 A 
ATOM     20  C   UNL d   1      27.305 -13.904  -0.069  0.00  0.00     0.026 A 
ATOM     21  C   UNL d   1      27.902 -14.747   0.865  0.00  0.00     0.035 A 
ATOM     22 CL   UNL d   1      29.143 -14.142   1.891  0.00  0.00    -0.084 Cl
ATOM     23  C   UNL d   1      27.492 -16.070   0.974  0.00  0.00     0.050 A 
ATOM     24  C   UNL d   1      26.452 -16.536   0.159  0.00  0.00     0.063 A 
ATOM     25 CL   UNL d   1      25.987 -18.196   0.326  0.00  0.00    -0.082 Cl
ENDBRANCH  16  18
ENDBRANCH   3  16
TORSDOF 4
ENDMDL
MODEL 3
REMARK VINA RESULT:    -7.418      6.316      8.399
REMARK INTER + INTRA:          -9.399
REMARK INTER:                  -8.611
REMARK INTRA:                  -0.788
REMARK CONF_INDEPENDENT:        1.193
REMARK UNBOUND:                -0.788
REMARK  4 active torsions:
REMARK  status: ('A' for Active; 'I' for Inactive)
REMARK       I    between atoms: C_2  and  N_3 
REMARK    1  A    between atoms: C_2  and  C_13 
REMARK    2  A    between atoms: N_3  and  N_4 
REMARK    3  A    between atoms: N_4  and  C_5 
REMARK       I    between atoms: C_13  and  N_15 
REMARK    4  A    between atoms: N_15  and  C_16 
ROOT
ATOM      1  O   UNL d   1      25.152 -14.796  -3.530  0.00  0.00    -0.261 OA
ATOM      2  C   UNL d   1      26.254 -15.305  -3.300  0.00  0.00     0.328 C 
ATOM      3  N   UNL d   1      26.645 -15.657  -2.011  0.00  0.00    -0.261 N 
ATOM      4  H   UNL d   1      27.471 -16.192  -1.786  0.00  0.00     0.190 HD
ENDROOT
BRANCH   2   5
ATOM      5  C   UNL d   1      27.234 -15.544  -4.475  0.00  0.00     0.315 C 
ATOM      6  O   UNL d   1      26.788 -15.408  -5.616  0.00  0.00    -0.262 OA
ATOM      7  N   UNL d   1      28.549 -15.949  -4.204  0.00  0.00    -0.319 N 
ATOM      8  H   UNL d   1      28.780 -16.333  -3.301  0.00  0.00     0.169 HD
BRANCH   7   9
ATOM      9  C   UNL d   1      29.461 -16.194  -5.269  0.00  0.00     0.038 A 
ATOM     10  C   UNL d   1      30.032 -17.465  -5.433  0.00  0.00     0.029 A 
ATOM     11  C   UNL d   1      30.989 -17.708  -6.422  0.00  0.00     0.005 A 
ATOM     12  C   UNL d   1      31.397 -16.673  -7.255  0.00  0.00     0.042 A 
ATOM     13  C   UNL d   1      30.808 -15.420  -7.116  0.00  0.00     0.118 A 
ATOM     14  F   UNL d   1      31.217 -14.420  -7.910  0.00  0.00    -0.206 F 
ATOM     15  C   UNL d   1      29.820 -15.175  -6.154  0.00  0.00     0.071 A 
ENDBRANCH   7   9
ENDBRANCH   2   5
BRANCH   3  16
ATOM     16  N   UNL d   1      25.699 -15.452  -0.996  0.00  0.00    -0.296 N 
ATOM     17  H   UNL d   1      25.693 -14.538  -0.528  0.00  0.00     0.187 HD
BRANCH  16  18
ATOM     18  C   UNL d   1      24.642 -16.348  -0.782  0.00  0.00     0.070 A 
ATOM     19  C   UNL d   1      23.314 -15.983  -1.041  0.00  0.00     0.034 A 
ATOM     20  C   UNL d   1      22.270 -16.906  -0.895  0.00  0.00     0.026 A 
ATOM     21  C   UNL d   1      22.533 -18.196  -0.441  0.00  0.00     0.035 A 
ATOM     22 CL   UNL d   1      21.244 -19.326  -0.286  0.00  0.00    -0.084 Cl
ATOM     23  C   UNL d   1      23.832 -18.573  -0.122  0.00  0.00     0.050 A 
ATOM     24  C   UNL d   1      24.875 -17.654  -0.293  0.00  0.00     0.063 A 
ATOM     25 CL   UNL d   1      26.473 -18.170   0.131  0.00  0.00    -0.082 Cl
ENDBRANCH  16  18
ENDBRANCH   3  16
TORSDOF 4
ENDMDL
MODEL 4
REMARK VINA RESULT:    -7.406      6.416      8.702
REMARK INTER + INTRA:          -9.974
REMARK INTER:                  -8.600
REMARK INTRA:                  -1.374
REMARK CONF_INDEPENDENT:        1.193
REMARK UNBOUND:                -1.374
REMARK  4 active torsions:
REMARK  status: ('A' for Active; 'I' for Inactive)
REMARK       I    between atoms: C_2  and  N_3 
REMARK    1  A    between atoms: C_2  and  C_13 
REMARK    2  A    between atoms: N_3  and  N_4 
REMARK    3  A    between atoms: N_4  and  C_5 
REMARK       I    between atoms: C_13  and  N_15 
REMARK    4  A    between atoms: N_15  and  C_16 
ROOT
ATOM      1  O   UNL d   1      24.982 -17.570   0.171  0.00  0.00    -0.261 OA
ATOM      2  C   UNL d   1      24.121 -17.062  -0.553  0.00  0.00     0.328 C 
ATOM      3  N   UNL d   1      24.416 -16.016  -1.423  0.00  0.00    -0.261 N 
ATOM      4  H   UNL d   1      23.788 -15.656  -2.127  0.00  0.00     0.190 HD
ENDROOT
BRANCH   2   5
ATOM      5  C   UNL d   1      22.667 -17.593  -0.483  0.00  0.00     0.315 C 
ATOM      6  O   UNL d   1      21.776 -16.847  -0.894  0.00  0.00    -0.262 OA
ATOM      7  N   UNL d   1      22.420 -18.853   0.081  0.00  0.00    -0.319 N 
ATOM      8  H   UNL d   1      23.118 -19.287   0.664  0.00  0.00     0.169 HD
BRANCH   7   9
ATOM      9  C   UNL d   1      21.090 -19.352   0.174  0.00  0.00     0.038 A 
ATOM     10  C   UNL d   1      20.276 -19.413  -0.967  0.00  0.00     0.029 A 
ATOM     11  C   UNL d   1      18.943 -19.824  -0.885  0.00  0.00     0.005 A 
ATOM     12  C   UNL d   1      18.403 -20.168   0.348  0.00  0.00     0.042 A 
ATOM     13  C   UNL d   1      19.217 -20.141   1.476  0.00  0.00     0.118 A 
ATOM     14  F   UNL d   1      18.687 -20.455   2.666  0.00  0.00    -0.206 F 
ATOM     15  C   UNL d   1      20.565 -19.767   1.399  0.00  0.00     0.071 A 
ENDBRANCH   7   9
ENDBRANCH   2   5
BRANCH   3  16
ATOM     16  N   UNL d   1      25.757 -15.606  -1.470  0.00  0.00    -0.296 N 
ATOM     17  H   UNL d   1      26.289 -15.614  -0.592  0.00  0.00     0.187 HD
BRANCH  16  18
ATOM     18  C   UNL d   1      26.431 -15.427  -2.687  0.00  0.00     0.070 A 
ATOM     19  C   UNL d   1      25.780 -14.897  -3.809  0.00  0.00     0.034 A 
ATOM     20  C   UNL d   1      26.478 -14.651  -4.999  0.00  0.00     0.026 A 
ATOM     21  C   UNL d   1      27.828 -14.977  -5.101  0.00  0.00     0.035 A 
ATOM     22 CL   UNL d   1      28.678 -14.651  -6.561  0.00  0.00    -0.084 Cl
ATOM     23  C   UNL d   1      28.490 -15.556  -4.025  0.00  0.00     0.050 A 
ATOM     24  C   UNL d   1      27.794 -15.777  -2.829  0.00  0.00     0.063 A 
ATOM     25 CL   UNL d   1      28.661 -16.511  -1.523  0.00  0.00    -0.082 Cl
ENDBRANCH  16  18
ENDBRANCH   3  16
TORSDOF 4
ENDMDL
MODEL 5
REMARK VINA RESULT:    -7.398      1.171      1.524
REMARK INTER + INTRA:          -9.324
REMARK INTER:                  -8.592
REMARK INTRA:                  -0.733
REMARK CONF_INDEPENDENT:        1.193
REMARK UNBOUND:                -0.733
REMARK  4 active torsions:
REMARK  status: ('A' for Active; 'I' for Inactive)
REMARK       I    between atoms: C_2  and  N_3 
REMARK    1  A    between atoms: C_2  and  C_13 
REMARK    2  A    between atoms: N_3  and  N_4 
REMARK    3  A    between atoms: N_4  and  C_5 
REMARK       I    between atoms: C_13  and  N_15 
REMARK    4  A    between atoms: N_15  and  C_16 
ROOT
ATOM      1  O   UNL d   1      26.489 -13.734   0.819  0.00  0.00    -0.261 OA
ATOM      2  C   UNL d   1      27.318 -14.393   1.454  0.00  0.00     0.328 C 
ATOM      3  N   UNL d   1      27.771 -15.631   1.006  0.00  0.00    -0.261 N 
ATOM      4  H   UNL d   1      28.538 -16.145   1.412  0.00  0.00     0.190 HD
ENDROOT
BRANCH   2   5
ATOM      5  C   UNL d   1      27.858 -13.835   2.795  0.00  0.00     0.315 C 
ATOM      6  O   UNL d   1      27.998 -12.614   2.880  0.00  0.00    -0.262 OA
ATOM      7  N   UNL d   1      28.209 -14.726   3.820  0.00  0.00    -0.319 N 
ATOM      8  H   UNL d   1      28.363 -15.699   3.608  0.00  0.00     0.169 HD
BRANCH   7   9
ATOM      9  C   UNL d   1      28.726 -14.237   5.053  0.00  0.00     0.038 A 
ATOM     10  C   UNL d   1      29.920 -14.756   5.574  0.00  0.00     0.029 A 
ATOM     11  C   UNL d   1      30.405 -14.347   6.820  0.00  0.00     0.005 A 
ATOM     12  C   UNL d   1      29.690 -13.420   7.567  0.00  0.00     0.042 A 
ATOM     13  C   UNL d   1      28.523 -12.878   7.037  0.00  0.00     0.118 A 
ATOM     14  F   UNL d   1      27.827 -11.997   7.769  0.00  0.00    -0.206 F 
ATOM     15  C   UNL d   1      28.048 -13.251   5.773  0.00  0.00     0.071 A 
ENDBRANCH   7   9
ENDBRANCH   2   5
BRANCH   3  16
ATOM     16  N   UNL d   1      27.275 -16.063  -0.233  0.00  0.00    -0.296 N 
ATOM     17  H   UNL d   1      27.934 -16.112  -1.019  0.00  0.00     0.187 HD
BRANCH  16  18
ATOM     18  C   UNL d   1      26.003 -16.641  -0.357  0.00  0.00     0.070 A 
ATOM     19  C   UNL d   1      24.919 -15.914  -0.867  0.00  0.00     0.034 A 
ATOM     20  C   UNL d   1      23.669 -16.519  -1.057  0.00  0.00     0.026 A 
ATOM     21  C   UNL d   1      23.472 -17.849  -0.695  0.00  0.00     0.035 A 
ATOM     22 CL   UNL d   1      21.938 -18.585  -0.953  0.00  0.00    -0.084 Cl
ATOM     23  C   UNL d   1      24.511 -18.582  -0.135  0.00  0.00     0.050 A 
ATOM     24  C   UNL d   1      25.765 -17.980   0.031  0.00  0.00     0.063 A 
ATOM     25 CL   UNL d   1      27.022 -18.933   0.744  0.00  0.00    -0.082 Cl
ENDBRANCH  16  18
ENDBRANCH   3  16
TORSDOF 4
ENDMDL
MODEL 6
REMARK VINA RESULT:    -6.855      6.326      8.235
REMARK INTER + INTRA:          -8.756
REMARK INTER:                  -8.048
REMARK INTRA:                  -0.708
REMARK CONF_INDEPENDENT:        1.193
REMARK UNBOUND:                -0.708
REMARK  4 active torsions:
REMARK  status: ('A' for Active; 'I' for Inactive)
REMARK       I    between atoms: C_2  and  N_3 
REMARK    1  A    between atoms: C_2  and  C_13 
REMARK    2  A    between atoms: N_3  and  N_4 
REMARK    3  A    between atoms: N_4  and  C_5 
REMARK       I    between atoms: C_13  and  N_15 
REMARK    4  A    between atoms: N_15  and  C_16 
ROOT
ATOM      1  O   UNL d   1      25.284 -16.113  -3.339  0.00  0.00    -0.261 OA
ATOM      2  C   UNL d   1      25.384 -14.956  -2.919  0.00  0.00     0.328 C 
ATOM      3  N   UNL d   1      25.519 -14.677  -1.561  0.00  0.00    -0.261 N 
ATOM      4  H   UNL d   1      25.737 -13.769  -1.179  0.00  0.00     0.190 HD
ENDROOT
BRANCH   2   5
ATOM      5  C   UNL d   1      25.344 -13.781  -3.927  0.00  0.00     0.315 C 
ATOM      6  O   UNL d   1      24.795 -13.988  -5.011  0.00  0.00    -0.262 OA
ATOM      7  N   UNL d   1      25.966 -12.568  -3.597  0.00  0.00    -0.319 N 
ATOM      8  H   UNL d   1      26.645 -12.538  -2.853  0.00  0.00     0.169 HD
BRANCH   7   9
ATOM      9  C   UNL d   1      25.959 -11.481  -4.517  0.00  0.00     0.038 A 
ATOM     10  C   UNL d   1      25.546 -10.206  -4.102  0.00  0.00     0.029 A 
ATOM     11  C   UNL d   1      25.456  -9.144  -5.006  0.00  0.00     0.005 A 
ATOM     12  C   UNL d   1      25.766  -9.350  -6.344  0.00  0.00     0.042 A 
ATOM     13  C   UNL d   1      26.208 -10.605  -6.752  0.00  0.00     0.118 A 
ATOM     14  F   UNL d   1      26.489 -10.804  -8.047  0.00  0.00    -0.206 F 
ATOM     15  C   UNL d   1      26.340 -11.667  -5.847  0.00  0.00     0.071 A 
ENDBRANCH   7   9
ENDBRANCH   2   5
BRANCH   3  16
ATOM     16  N   UNL d   1      25.589 -15.784  -0.703  0.00  0.00    -0.296 N 
ATOM     17  H   UNL d   1      26.364 -15.818  -0.031  0.00  0.00     0.187 HD
BRANCH  16  18
ATOM     18  C   UNL d   1      24.526 -16.690  -0.581  0.00  0.00     0.070 A 
ATOM     19  C   UNL d   1      23.206 -16.304  -0.848  0.00  0.00     0.034 A 
ATOM     20  C   UNL d   1      22.157 -17.234  -0.796  0.00  0.00     0.026 A 
ATOM     21  C   UNL d   1      22.408 -18.553  -0.428  0.00  0.00     0.035 A 
ATOM     22 CL   UNL d   1      21.115 -19.688  -0.388  0.00  0.00    -0.084 Cl
ATOM     23  C   UNL d   1      23.697 -18.955  -0.103  0.00  0.00     0.050 A 
ATOM     24  C   UNL d   1      24.745 -18.029  -0.180  0.00  0.00     0.063 A 
ATOM     25 CL   UNL d   1      26.331 -18.577   0.248  0.00  0.00    -0.082 Cl
ENDBRANCH  16  18
ENDBRANCH   3  16
TORSDOF 4
ENDMDL
MODEL 7
REMARK VINA RESULT:    -6.794      4.305      8.338
REMARK INTER + INTRA:          -8.675
REMARK INTER:                  -7.987
REMARK INTRA:                  -0.688
REMARK CONF_INDEPENDENT:        1.193
REMARK UNBOUND:                -0.688
REMARK  4 active torsions:
REMARK  status: ('A' for Active; 'I' for Inactive)
REMARK       I    between atoms: C_2  and  N_3 
REMARK    1  A    between atoms: C_2  and  C_13 
REMARK    2  A    between atoms: N_3  and  N_4 
REMARK    3  A    between atoms: N_4  and  C_5 
REMARK       I    between atoms: C_13  and  N_15 
REMARK    4  A    between atoms: N_15  and  C_16 
ROOT
ATOM      1  O   UNL d   1      29.463 -12.745   2.894  0.00  0.00    -0.261 OA
ATOM      2  C   UNL d   1      28.967 -13.867   3.037  0.00  0.00     0.328 C 
ATOM      3  N   UNL d   1      29.291 -14.680   4.120  0.00  0.00    -0.261 N 
ATOM      4  H   UNL d   1      28.821 -15.541   4.355  0.00  0.00     0.190 HD
ENDROOT
BRANCH   2   5
ATOM      5  C   UNL d   1      27.967 -14.391   1.976  0.00  0.00     0.315 C 
ATOM      6  O   UNL d   1      26.942 -13.731   1.795  0.00  0.00    -0.262 OA
ATOM      7  N   UNL d   1      28.236 -15.598   1.314  0.00  0.00    -0.319 N 
ATOM      8  H   UNL d   1      28.910 -16.241   1.697  0.00  0.00     0.169 HD
BRANCH   7   9
ATOM      9  C   UNL d   1      27.321 -16.109   0.350  0.00  0.00     0.038 A 
ATOM     10  C   UNL d   1      27.018 -15.366  -0.801  0.00  0.00     0.029 A 
ATOM     11  C   UNL d   1      26.064 -15.811  -1.720  0.00  0.00     0.005 A 
ATOM     12  C   UNL d   1      25.390 -17.004  -1.491  0.00  0.00     0.042 A 
ATOM     13  C   UNL d   1      25.713 -17.759  -0.368  0.00  0.00     0.118 A 
ATOM     14  F   UNL d   1      25.048 -18.901  -0.142  0.00  0.00    -0.206 F 
ATOM     15  C   UNL d   1      26.695 -17.342   0.540  0.00  0.00     0.071 A 
ENDBRANCH   7   9
ENDBRANCH   2   5
BRANCH   3  16
ATOM     16  N   UNL d   1      30.171 -14.134   5.066  0.00  0.00    -0.296 N 
ATOM     17  H   UNL d   1      31.070 -13.771   4.727  0.00  0.00     0.187 HD
BRANCH  16  18
ATOM     18  C   UNL d   1      29.764 -13.861   6.380  0.00  0.00     0.070 A 
ATOM     19  C   UNL d   1      30.406 -14.447   7.478  0.00  0.00     0.034 A 
ATOM     20  C   UNL d   1      30.042 -14.113   8.790  0.00  0.00     0.026 A 
ATOM     21  C   UNL d   1      28.998 -13.222   9.023  0.00  0.00     0.035 A 
ATOM     22 CL   UNL d   1      28.576 -12.804  10.638  0.00  0.00    -0.084 Cl
ATOM     23  C   UNL d   1      28.304 -12.665   7.956  0.00  0.00     0.050 A 
ATOM     24  C   UNL d   1      28.687 -12.983   6.646  0.00  0.00     0.063 A 
ATOM     25 CL   UNL d   1      27.782 -12.272   5.352  0.00  0.00    -0.082 Cl
ENDBRANCH  16  18
ENDBRANCH   3  16
TORSDOF 4
ENDMDL
MODEL 8
REMARK VINA RESULT:    -6.214      6.513      9.028
REMARK INTER + INTRA:          -8.524
REMARK INTER:                  -7.407
REMARK INTRA:                  -1.116
REMARK CONF_INDEPENDENT:        1.193
REMARK UNBOUND:                -1.116
REMARK  4 active torsions:
REMARK  status: ('A' for Active; 'I' for Inactive)
REMARK       I    between atoms: C_2  and  N_3 
REMARK    1  A    between atoms: C_2  and  C_13 
REMARK    2  A    between atoms: N_3  and  N_4 
REMARK    3  A    between atoms: N_4  and  C_5 
REMARK       I    between atoms: C_13  and  N_15 
REMARK    4  A    between atoms: N_15  and  C_16 
ROOT
ATOM      1  O   UNL d   1      27.492 -13.005  -4.327  0.00  0.00    -0.261 OA
ATOM      2  C   UNL d   1      26.301 -12.983  -4.000  0.00  0.00     0.328 C 
ATOM      3  N   UNL d   1      25.521 -11.839  -4.142  0.00  0.00    -0.261 N 
ATOM      4  H   UNL d   1      24.520 -11.804  -4.017  0.00  0.00     0.190 HD
ENDROOT
BRANCH   2   5
ATOM      5  C   UNL d   1      25.660 -14.260  -3.401  0.00  0.00     0.315 C 
ATOM      6  O   UNL d   1      24.796 -14.825  -4.076  0.00  0.00    -0.262 OA
ATOM      7  N   UNL d   1      26.040 -14.687  -2.121  0.00  0.00    -0.319 N 
ATOM      8  H   UNL d   1      26.508 -14.048  -1.497  0.00  0.00     0.169 HD
BRANCH   7   9
ATOM      9  C   UNL d   1      25.448 -15.846  -1.543  0.00  0.00     0.038 A 
ATOM     10  C   UNL d   1      24.063 -16.050  -1.628  0.00  0.00     0.029 A 
ATOM     11  C   UNL d   1      23.451 -17.139  -1.001  0.00  0.00     0.005 A 
ATOM     12  C   UNL d   1      24.221 -18.033  -0.267  0.00  0.00     0.042 A 
ATOM     13  C   UNL d   1      25.600 -17.852  -0.210  0.00  0.00     0.118 A 
ATOM     14  F   UNL d   1      26.336 -18.707   0.513  0.00  0.00    -0.206 F 
ATOM     15  C   UNL d   1      26.228 -16.786  -0.867  0.00  0.00     0.071 A 
ENDBRANCH   7   9
ENDBRANCH   2   5
BRANCH   3  16
ATOM     16  N   UNL d   1      26.148 -10.728  -4.726  0.00  0.00    -0.296 N 
ATOM     17  H   UNL d   1      27.052 -10.880  -5.189  0.00  0.00     0.187 HD
BRANCH  16  18
ATOM     18  C   UNL d   1      25.477  -9.509  -4.898  0.00  0.00     0.070 A 
ATOM     19  C   UNL d   1      24.771  -9.225  -6.075  0.00  0.00     0.034 A 
ATOM     20  C   UNL d   1      24.042  -8.036  -6.211  0.00  0.00     0.026 A 
ATOM     21  C   UNL d   1      24.046  -7.090  -5.189  0.00  0.00     0.035 A 
ATOM     22 CL   UNL d   1      23.130  -5.644  -5.361  0.00  0.00    -0.084 Cl
ATOM     23  C   UNL d   1      24.781  -7.315  -4.031  0.00  0.00     0.050 A 
ATOM     24  C   UNL d   1      25.488  -8.516  -3.890  0.00  0.00     0.063 A 
ATOM     25 CL   UNL d   1      26.397  -8.743  -2.434  0.00  0.00    -0.082 Cl
ENDBRANCH  16  18
ENDBRANCH   3  16
TORSDOF 4
ENDMDL
MODEL 9
REMARK VINA RESULT:    -6.071      6.466      8.752
REMARK INTER + INTRA:          -8.809
REMARK INTER:                  -7.264
REMARK INTRA:                  -1.545
REMARK CONF_INDEPENDENT:        1.193
REMARK UNBOUND:                -1.545
REMARK  4 active torsions:
REMARK  status: ('A' for Active; 'I' for Inactive)
REMARK       I    between atoms: C_2  and  N_3 
REMARK    1  A    between atoms: C_2  and  C_13 
REMARK    2  A    between atoms: N_3  and  N_4 
REMARK    3  A    between atoms: N_4  and  C_5 
REMARK       I    between atoms: C_13  and  N_15 
REMARK    4  A    between atoms: N_15  and  C_16 
ROOT
ATOM      1  O   UNL d   1      26.228 -13.315  -2.252  0.00  0.00    -0.261 OA
ATOM      2  C   UNL d   1      26.272 -14.308  -2.985  0.00  0.00     0.328 C 
ATOM      3  N   UNL d   1      25.812 -15.553  -2.565  0.00  0.00    -0.261 N 
ATOM      4  H   UNL d   1      25.703 -16.358  -3.163  0.00  0.00     0.190 HD
ENDROOT
BRANCH   2   5
ATOM      5  C   UNL d   1      26.870 -14.168  -4.408  0.00  0.00     0.315 C 
ATOM      6  O   UNL d   1      26.827 -15.162  -5.135  0.00  0.00    -0.262 OA
ATOM      7  N   UNL d   1      27.470 -12.959  -4.787  0.00  0.00    -0.319 N 
ATOM      8  H   UNL d   1      27.749 -12.294  -4.083  0.00  0.00     0.169 HD
BRANCH   7   9
ATOM      9  C   UNL d   1      28.044 -12.816  -6.083  0.00  0.00     0.038 A 
ATOM     10  C   UNL d   1      29.227 -13.494  -6.411  0.00  0.00     0.029 A 
ATOM     11  C   UNL d   1      29.850 -13.306  -7.648  0.00  0.00     0.005 A 
ATOM     12  C   UNL d   1      29.300 -12.424  -8.570  0.00  0.00     0.042 A 
ATOM     13  C   UNL d   1      28.108 -11.776  -8.260  0.00  0.00     0.118 A 
ATOM     14  F   UNL d   1      27.591 -10.913  -9.145  0.00  0.00    -0.206 F 
ATOM     15  C   UNL d   1      27.455 -11.986  -7.039  0.00  0.00     0.071 A 
ENDBRANCH   7   9
ENDBRANCH   2   5
BRANCH   3  16
ATOM     16  N   UNL d   1      25.247 -15.606  -1.283  0.00  0.00    -0.296 N 
ATOM     17  H   UNL d   1      25.446 -14.829  -0.641  0.00  0.00     0.187 HD
BRANCH  16  18
ATOM     18  C   UNL d   1      24.254 -16.540  -0.953  0.00  0.00     0.070 A 
ATOM     19  C   UNL d   1      22.896 -16.260  -1.151  0.00  0.00     0.034 A 
ATOM     20  C   UNL d   1      21.914 -17.226  -0.888  0.00  0.00     0.026 A 
ATOM     21  C   UNL d   1      22.273 -18.470  -0.377  0.00  0.00     0.035 A 
ATOM     22 CL   UNL d   1      21.059 -19.653  -0.079  0.00  0.00    -0.084 Cl
ATOM     23  C   UNL d   1      23.606 -18.760  -0.117  0.00  0.00     0.050 A 
ATOM     24  C   UNL d   1      24.586 -17.801  -0.404  0.00  0.00     0.063 A 
ATOM     25 CL   UNL d   1      26.232 -18.207  -0.049  0.00  0.00    -0.082 Cl
ENDBRANCH  16  18
ENDBRANCH   3  16
TORSDOF 4
ENDMDL
