MODEL 1
REMARK VINA RESULT:    -8.089      0.000      0.000
REMARK INTER + INTRA:          -9.421
REMARK INTER:                  -9.581
REMARK INTRA:                   0.160
REMARK CONF_INDEPENDENT:        1.492
REMARK UNBOUND:                 0.160
REMARK  5 active torsions:
REMARK  status: ('A' for Active; 'I' for Inactive)
REMARK       I    between atoms: C_2  and  N_3 
REMARK       I    between atoms: C_2  and  N_12 
REMARK    1  A    between atoms: N_3  and  O_4 
REMARK    2  A    between atoms: O_4  and  C_5 
REMARK    3  A    between atoms: C_5  and  C_6 
REMARK    4  A    between atoms: N_12  and  C_13 
REMARK    5  A    between atoms: C_15  and  C_16 
ROOT
ATOM      1  O   UNL d   1      23.390 -19.422  -0.150  0.00  0.00    -0.245 OA
ATOM      2  C   UNL d   1      23.778 -18.321  -0.550  0.00  0.00     0.340 C 
ATOM      3  N   UNL d   1      22.984 -17.234  -0.756  0.00  0.00    -0.216 N 
ATOM      4  N   UNL d   1      25.112 -18.135  -0.814  0.00  0.00    -0.336 N 
ATOM      5  H   UNL d   1      23.335 -16.359  -1.109  0.00  0.00     0.199 HD
ATOM      6  H   UNL d   1      25.667 -18.959  -0.609  0.00  0.00     0.164 HD
ENDROOT
BRANCH   3   7
ATOM      7  O   UNL d   1      21.602 -17.380  -0.520  0.00  0.00    -0.272 OA
BRANCH   7   8
ATOM      8  C   UNL d   1      21.115 -18.605  -1.080  0.00  0.00     0.240 C 
BRANCH   8   9
ATOM      9  C   UNL d   1      20.232 -19.333  -0.090  0.00  0.00    -0.032 A 
ATOM     10  C   UNL d   1      20.537 -19.324   1.280  0.00  0.00     0.009 A 
ATOM     11  C   UNL d   1      19.805 -20.113   2.173  0.00  0.00     0.001 A 
ATOM     12  C   UNL d   1      18.710 -20.849   1.722  0.00  0.00     0.000 A 
ATOM     13  C   UNL d   1      18.366 -20.824   0.375  0.00  0.00     0.001 A 
ATOM     14  C   UNL d   1      19.123 -20.075  -0.522  0.00  0.00     0.009 A 
ENDBRANCH   8   9
ENDBRANCH   7   8
ENDBRANCH   3   7
BRANCH   4  15
ATOM     15  C   UNL d   1      25.777 -16.916  -1.171  0.00  0.00     0.095 A 
ATOM     16  C   UNL d   1      25.404 -15.617  -0.508  0.00  0.00     0.037 A 
ATOM     17  C   UNL d   1      25.030 -15.857  -1.949  0.00  0.00     0.043 A 
BRANCH  17  18
ATOM     18  C   UNL d   1      25.591 -15.011  -3.082  0.00  0.00    -0.049 A 
ATOM     19  C   UNL d   1      25.099 -13.774  -3.536  0.00  0.00     0.008 A 
ATOM     20  C   UNL d   1      25.670 -13.119  -4.647  0.00  0.00     0.004 A 
ATOM     21  C   UNL d   1      26.795 -13.645  -5.280  0.00  0.00     0.042 A 
ATOM     22  C   UNL d   1      27.309 -14.846  -4.831  0.00  0.00     0.116 A 
ATOM     23  F   UNL d   1      28.378 -15.383  -5.433  0.00  0.00    -0.206 F 
ATOM     24  C   UNL d   1      26.716 -15.518  -3.766  0.00  0.00     0.049 A 
ENDBRANCH  17  18
ENDBRANCH   4  15
TORSDOF 5
ENDMDL
MODEL 2
REMARK VINA RESULT:    -7.929      1.510      2.068
REMARK INTER + INTRA:         -10.075
REMARK INTER:                  -9.420
REMARK INTRA:                  -0.654
REMARK CONF_INDEPENDENT:        1.492
REMARK UNBOUND:                -0.654
REMARK  5 active torsions:
REMARK  status: ('A' for Active; 'I' for Inactive)
REMARK       I    between atoms: C_2  and  N_3 
REMARK       I    between atoms: C_2  and  N_12 
REMARK    1  A    between atoms: N_3  and  O_4 
REMARK    2  A    between atoms: O_4  and  C_5 
REMARK    3  A    between atoms: C_5  and  C_6 
REMARK    4  A    between atoms: N_12  and  C_13 
REMARK    5  A    between atoms: C_15  and  C_16 
ROOT
ATOM      1  O   UNL d   1      23.542 -18.577   0.930  0.00  0.00    -0.245 OA
ATOM      2  C   UNL d   1      24.056 -18.259  -0.146  0.00  0.00     0.340 C 
ATOM      3  N   UNL d   1      23.535 -18.523  -1.376  0.00  0.00    -0.216 N 
ATOM      4  N   UNL d   1      25.248 -17.578  -0.145  0.00  0.00    -0.336 N 
ATOM      5  H   UNL d   1      23.999 -18.269  -2.233  0.00  0.00     0.199 HD
ATOM      6  H   UNL d   1      25.575 -17.370   0.793  0.00  0.00     0.164 HD
ENDROOT
BRANCH   3   7
ATOM      7  O   UNL d   1      22.323 -19.240  -1.433  0.00  0.00    -0.272 OA
BRANCH   7   8
ATOM      8  C   UNL d   1      21.247 -18.469  -0.883  0.00  0.00     0.240 C 
BRANCH   8   9
ATOM      9  C   UNL d   1      20.377 -19.324   0.012  0.00  0.00    -0.032 A 
ATOM     10  C   UNL d   1      19.302 -20.052  -0.522  0.00  0.00     0.009 A 
ATOM     11  C   UNL d   1      18.415 -20.725   0.324  0.00  0.00     0.001 A 
ATOM     12  C   UNL d   1      18.641 -20.752   1.700  0.00  0.00     0.000 A 
ATOM     13  C   UNL d   1      19.734 -20.078   2.234  0.00  0.00     0.001 A 
ATOM     14  C   UNL d   1      20.592 -19.368   1.397  0.00  0.00     0.009 A 
ENDBRANCH   8   9
ENDBRANCH   7   8
ENDBRANCH   3   7
BRANCH   4  15
ATOM     15  C   UNL d   1      25.945 -17.020  -1.267  0.00  0.00     0.095 A 
ATOM     16  C   UNL d   1      27.325 -16.443  -1.103  0.00  0.00     0.037 A 
ATOM     17  C   UNL d   1      26.154 -15.526  -1.349  0.00  0.00     0.043 A 
BRANCH  17  18
ATOM     18  C   UNL d   1      26.047 -14.671  -2.602  0.00  0.00    -0.049 A 
ATOM     19  C   UNL d   1      26.052 -15.123  -3.935  0.00  0.00     0.008 A 
ATOM     20  C   UNL d   1      26.015 -14.218  -5.017  0.00  0.00     0.004 A 
ATOM     21  C   UNL d   1      25.892 -12.848  -4.793  0.00  0.00     0.042 A 
ATOM     22  C   UNL d   1      25.859 -12.388  -3.491  0.00  0.00     0.116 A 
ATOM     23  F   UNL d   1      25.760 -11.075  -3.248  0.00  0.00    -0.206 F 
ATOM     24  C   UNL d   1      25.945 -13.275  -2.423  0.00  0.00     0.049 A 
ENDBRANCH  17  18
ENDBRANCH   4  15
TORSDOF 5
ENDMDL
MODEL 3
REMARK VINA RESULT:    -7.161      1.938      2.437
REMARK INTER + INTRA:          -9.345
REMARK INTER:                  -8.653
REMARK INTRA:                  -0.693
REMARK CONF_INDEPENDENT:        1.492
REMARK UNBOUND:                -0.693
REMARK  5 active torsions:
REMARK  status: ('A' for Active; 'I' for Inactive)
REMARK       I    between atoms: C_2  and  N_3 
REMARK       I    between atoms: C_2  and  N_12 
REMARK    1  A    between atoms: N_3  and  O_4 
REMARK    2  A    between atoms: O_4  and  C_5 
REMARK    3  A    between atoms: C_5  and  C_6 
REMARK    4  A    between atoms: N_12  and  C_13 
REMARK    5  A    between atoms: C_15  and  C_16 
ROOT
ATOM      1  O   UNL d   1      26.164 -18.644   1.640  0.00  0.00    -0.245 OA
ATOM      2  C   UNL d   1      26.199 -18.144   0.512  0.00  0.00     0.340 C 
ATOM      3  N   UNL d   1      25.116 -17.901  -0.277  0.00  0.00    -0.216 N 
ATOM      4  N   UNL d   1      27.411 -17.783  -0.024  0.00  0.00    -0.336 N 
ATOM      5  H   UNL d   1      25.189 -17.515  -1.204  0.00  0.00     0.199 HD
ATOM      6  H   UNL d   1      28.182 -17.946   0.616  0.00  0.00     0.164 HD
ENDROOT
BRANCH   3   7
ATOM      7  O   UNL d   1      23.851 -18.274   0.219  0.00  0.00    -0.272 OA
BRANCH   7   8
ATOM      8  C   UNL d   1      22.831 -18.046  -0.762  0.00  0.00     0.240 C 
BRANCH   8   9
ATOM      9  C   UNL d   1      21.522 -18.671  -0.330  0.00  0.00    -0.032 A 
ATOM     10  C   UNL d   1      21.277 -18.951   1.024  0.00  0.00     0.009 A 
ATOM     11  C   UNL d   1      20.132 -19.658   1.404  0.00  0.00     0.001 A 
ATOM     12  C   UNL d   1      19.180 -20.015   0.450  0.00  0.00     0.000 A 
ATOM     13  C   UNL d   1      19.387 -19.697  -0.888  0.00  0.00     0.001 A 
ATOM     14  C   UNL d   1      20.550 -19.034  -1.273  0.00  0.00     0.009 A 
ENDBRANCH   8   9
ENDBRANCH   7   8
ENDBRANCH   3   7
BRANCH   4  15
ATOM     15  C   UNL d   1      27.658 -17.088  -1.254  0.00  0.00     0.095 A 
ATOM     16  C   UNL d   1      28.852 -16.183  -1.396  0.00  0.00     0.037 A 
ATOM     17  C   UNL d   1      27.468 -15.590  -1.316  0.00  0.00     0.043 A 
BRANCH  17  18
ATOM     18  C   UNL d   1      26.855 -14.810  -2.470  0.00  0.00    -0.049 A 
ATOM     19  C   UNL d   1      27.545 -14.108  -3.475  0.00  0.00     0.008 A 
ATOM     20  C   UNL d   1      26.856 -13.363  -4.455  0.00  0.00     0.004 A 
ATOM     21  C   UNL d   1      25.463 -13.367  -4.501  0.00  0.00     0.042 A 
ATOM     22  C   UNL d   1      24.769 -14.072  -3.537  0.00  0.00     0.116 A 
ATOM     23  F   UNL d   1      23.429 -14.078  -3.546  0.00  0.00    -0.206 F 
ATOM     24  C   UNL d   1      25.446 -14.767  -2.540  0.00  0.00     0.049 A 
ENDBRANCH  17  18
ENDBRANCH   4  15
TORSDOF 5
ENDMDL
MODEL 4
REMARK VINA RESULT:    -6.697      6.831      9.037
REMARK INTER + INTRA:          -8.959
REMARK INTER:                  -8.188
REMARK INTRA:                  -0.771
REMARK CONF_INDEPENDENT:        1.492
REMARK UNBOUND:                -0.771
REMARK  5 active torsions:
REMARK  status: ('A' for Active; 'I' for Inactive)
REMARK       I    between atoms: C_2  and  N_3 
REMARK       I    between atoms: C_2  and  N_12 
REMARK    1  A    between atoms: N_3  and  O_4 
REMARK    2  A    between atoms: O_4  and  C_5 
REMARK    3  A    between atoms: C_5  and  C_6 
REMARK    4  A    between atoms: N_12  and  C_13 
REMARK    5  A    between atoms: C_15  and  C_16 
ROOT
ATOM      1  O   UNL d   1      26.567 -13.715   0.727  0.00  0.00    -0.245 OA
ATOM      2  C   UNL d   1      27.343 -14.168   1.573  0.00  0.00     0.340 C 
ATOM      3  N   UNL d   1      28.202 -15.206   1.378  0.00  0.00    -0.216 N 
ATOM      4  N   UNL d   1      27.378 -13.601   2.822  0.00  0.00    -0.336 N 
ATOM      5  H   UNL d   1      28.803 -15.563   2.104  0.00  0.00     0.199 HD
ATOM      6  H   UNL d   1      26.750 -12.807   2.907  0.00  0.00     0.164 HD
ENDROOT
BRANCH   3   7
ATOM      7  O   UNL d   1      28.190 -15.837   0.118  0.00  0.00    -0.272 OA
BRANCH   7   8
ATOM      8  C   UNL d   1      27.723 -17.188   0.228  0.00  0.00     0.240 C 
BRANCH   8   9
ATOM      9  C   UNL d   1      26.265 -17.284  -0.164  0.00  0.00    -0.032 A 
ATOM     10  C   UNL d   1      25.727 -16.419  -1.130  0.00  0.00     0.009 A 
ATOM     11  C   UNL d   1      24.352 -16.412  -1.385  0.00  0.00     0.001 A 
ATOM     12  C   UNL d   1      23.516 -17.327  -0.746  0.00  0.00     0.000 A 
ATOM     13  C   UNL d   1      24.046 -18.225   0.174  0.00  0.00     0.001 A 
ATOM     14  C   UNL d   1      25.408 -18.200   0.464  0.00  0.00     0.009 A 
ENDBRANCH   8   9
ENDBRANCH   7   8
ENDBRANCH   3   7
BRANCH   4  15
ATOM     15  C   UNL d   1      28.278 -13.896   3.899  0.00  0.00     0.095 A 
ATOM     16  C   UNL d   1      28.157 -15.185   4.668  0.00  0.00     0.037 A 
ATOM     17  C   UNL d   1      27.770 -13.883   5.323  0.00  0.00     0.043 A 
BRANCH  17  18
ATOM     18  C   UNL d   1      28.508 -13.337   6.535  0.00  0.00    -0.049 A 
ATOM     19  C   UNL d   1      29.270 -14.073   7.462  0.00  0.00     0.008 A 
ATOM     20  C   UNL d   1      29.852 -13.455   8.589  0.00  0.00     0.004 A 
ATOM     21  C   UNL d   1      29.753 -12.077   8.773  0.00  0.00     0.042 A 
ATOM     22  C   UNL d   1      29.032 -11.334   7.858  0.00  0.00     0.116 A 
ATOM     23  F   UNL d   1      28.906 -10.011   8.022  0.00  0.00    -0.206 F 
ATOM     24  C   UNL d   1      28.416 -11.949   6.773  0.00  0.00     0.049 A 
ENDBRANCH  17  18
ENDBRANCH   4  15
TORSDOF 5
ENDMDL
MODEL 5
REMARK VINA RESULT:    -6.685      3.263      5.432
REMARK INTER + INTRA:          -8.876
REMARK INTER:                  -8.176
REMARK INTRA:                  -0.700
REMARK CONF_INDEPENDENT:        1.492
REMARK UNBOUND:                -0.700
REMARK  5 active torsions:
REMARK  status: ('A' for Active; 'I' for Inactive)
REMARK       I    between atoms: C_2  and  N_3 
REMARK       I    between atoms: C_2  and  N_12 
REMARK    1  A    between atoms: N_3  and  O_4 
REMARK    2  A    between atoms: O_4  and  C_5 
REMARK    3  A    between atoms: C_5  and  C_6 
REMARK    4  A    between atoms: N_12  and  C_13 
REMARK    5  A    between atoms: C_15  and  C_16 
ROOT
ATOM      1  O   UNL d   1      23.843 -13.705  -4.051  0.00  0.00    -0.245 OA
ATOM      2  C   UNL d   1      25.069 -13.696  -4.185  0.00  0.00     0.340 C 
ATOM      3  N   UNL d   1      25.908 -14.707  -3.826  0.00  0.00    -0.216 N 
ATOM      4  N   UNL d   1      25.676 -12.598  -4.742  0.00  0.00    -0.336 N 
ATOM      5  H   UNL d   1      26.908 -14.652  -3.928  0.00  0.00     0.199 HD
ATOM      6  H   UNL d   1      25.008 -11.889  -5.028  0.00  0.00     0.164 HD
ENDROOT
BRANCH   3   7
ATOM      7  O   UNL d   1      25.337 -15.849  -3.229  0.00  0.00    -0.272 OA
BRANCH   7   8
ATOM      8  C   UNL d   1      25.491 -15.812  -1.805  0.00  0.00     0.240 C 
BRANCH   8   9
ATOM      9  C   UNL d   1      24.487 -16.723  -1.133  0.00  0.00    -0.032 A 
ATOM     10  C   UNL d   1      24.882 -17.974  -0.632  0.00  0.00     0.009 A 
ATOM     11  C   UNL d   1      23.928 -18.872  -0.144  0.00  0.00     0.001 A 
ATOM     12  C   UNL d   1      22.587 -18.499  -0.069  0.00  0.00     0.000 A 
ATOM     13  C   UNL d   1      22.192 -17.242  -0.513  0.00  0.00     0.001 A 
ATOM     14  C   UNL d   1      23.135 -16.364  -1.044  0.00  0.00     0.009 A 
ENDBRANCH   8   9
ENDBRANCH   7   8
ENDBRANCH   3   7
BRANCH   4  15
ATOM     15  C   UNL d   1      27.058 -12.436  -5.089  0.00  0.00     0.095 A 
ATOM     16  C   UNL d   1      27.477 -11.415  -6.113  0.00  0.00     0.037 A 
ATOM     17  C   UNL d   1      27.544 -12.884  -6.448  0.00  0.00     0.043 A 
BRANCH  17  18
ATOM     18  C   UNL d   1      28.861 -13.586  -6.744  0.00  0.00    -0.049 A 
ATOM     19  C   UNL d   1      30.021 -13.009  -7.293  0.00  0.00     0.008 A 
ATOM     20  C   UNL d   1      31.161 -13.787  -7.585  0.00  0.00     0.004 A 
ATOM     21  C   UNL d   1      31.196 -15.142  -7.262  0.00  0.00     0.042 A 
ATOM     22  C   UNL d   1      30.076 -15.720  -6.698  0.00  0.00     0.116 A 
ATOM     23  F   UNL d   1      30.077 -17.025  -6.395  0.00  0.00    -0.206 F 
ATOM     24  C   UNL d   1      28.933 -14.965  -6.455  0.00  0.00     0.049 A 
ENDBRANCH  17  18
ENDBRANCH   4  15
TORSDOF 5
ENDMDL
MODEL 6
REMARK VINA RESULT:    -6.259      4.570      6.912
REMARK INTER + INTRA:          -8.488
REMARK INTER:                  -7.751
REMARK INTRA:                  -0.737
REMARK CONF_INDEPENDENT:        1.492
REMARK UNBOUND:                -0.737
REMARK  5 active torsions:
REMARK  status: ('A' for Active; 'I' for Inactive)
REMARK       I    between atoms: C_2  and  N_3 
REMARK       I    between atoms: C_2  and  N_12 
REMARK    1  A    between atoms: N_3  and  O_4 
REMARK    2  A    between atoms: O_4  and  C_5 
REMARK    3  A    between atoms: C_5  and  C_6 
REMARK    4  A    between atoms: N_12  and  C_13 
REMARK    5  A    between atoms: C_15  and  C_16 
ROOT
ATOM      1  O   UNL d   1      26.712 -13.232  -5.551  0.00  0.00    -0.245 OA
ATOM      2  C   UNL d   1      27.087 -14.319  -5.103  0.00  0.00     0.340 C 
ATOM      3  N   UNL d   1      26.310 -15.195  -4.409  0.00  0.00    -0.216 N 
ATOM      4  N   UNL d   1      28.386 -14.716  -5.306  0.00  0.00    -0.336 N 
ATOM      5  H   UNL d   1      26.661 -16.063  -4.037  0.00  0.00     0.199 HD
ATOM      6  H   UNL d   1      28.913 -14.050  -5.861  0.00  0.00     0.164 HD
ENDROOT
BRANCH   3   7
ATOM      7  O   UNL d   1      24.975 -14.824  -4.154  0.00  0.00    -0.272 OA
BRANCH   7   8
ATOM      8  C   UNL d   1      24.790 -14.497  -2.771  0.00  0.00     0.240 C 
BRANCH   8   9
ATOM      9  C   UNL d   1      25.047 -15.705  -1.896  0.00  0.00    -0.032 A 
ATOM     10  C   UNL d   1      23.982 -16.500  -1.446  0.00  0.00     0.009 A 
ATOM     11  C   UNL d   1      24.207 -17.526  -0.523  0.00  0.00     0.001 A 
ATOM     12  C   UNL d   1      25.505 -17.826  -0.110  0.00  0.00     0.000 A 
ATOM     13  C   UNL d   1      26.574 -17.078  -0.590  0.00  0.00     0.001 A 
ATOM     14  C   UNL d   1      26.346 -16.025  -1.473  0.00  0.00     0.009 A 
ENDBRANCH   8   9
ENDBRANCH   7   8
ENDBRANCH   3   7
BRANCH   4  15
ATOM     15  C   UNL d   1      28.983 -15.977  -4.975  0.00  0.00     0.095 A 
ATOM     16  C   UNL d   1      30.324 -16.034  -4.293  0.00  0.00     0.037 A 
ATOM     17  C   UNL d   1      30.199 -16.450  -5.737  0.00  0.00     0.043 A 
BRANCH  17  18
ATOM     18  C   UNL d   1      30.474 -17.875  -6.194  0.00  0.00    -0.049 A 
ATOM     19  C   UNL d   1      30.452 -19.036  -5.399  0.00  0.00     0.008 A 
ATOM     20  C   UNL d   1      30.794 -20.297  -5.931  0.00  0.00     0.004 A 
ATOM     21  C   UNL d   1      31.089 -20.440  -7.286  0.00  0.00     0.042 A 
ATOM     22  C   UNL d   1      31.089 -19.314  -8.088  0.00  0.00     0.116 A 
ATOM     23  F   UNL d   1      31.387 -19.420  -9.389  0.00  0.00    -0.206 F 
ATOM     24  C   UNL d   1      30.800 -18.063  -7.554  0.00  0.00     0.049 A 
ENDBRANCH  17  18
ENDBRANCH   4  15
TORSDOF 5
ENDMDL
MODEL 7
REMARK VINA RESULT:    -6.240      5.553      8.692
REMARK INTER + INTRA:          -8.475
REMARK INTER:                  -7.731
REMARK INTRA:                  -0.743
REMARK CONF_INDEPENDENT:        1.492
REMARK UNBOUND:                -0.743
REMARK  5 active torsions:
REMARK  status: ('A' for Active; 'I' for Inactive)
REMARK       I    between atoms: C_2  and  N_3 
REMARK       I    between atoms: C_2  and  N_12 
REMARK    1  A    between atoms: N_3  and  O_4 
REMARK    2  A    between atoms: O_4  and  C_5 
REMARK    3  A    between atoms: C_5  and  C_6 
REMARK    4  A    between atoms: N_12  and  C_13 
REMARK    5  A    between atoms: C_15  and  C_16 
ROOT
ATOM      1  O   UNL d   1      29.633 -13.012   0.086  0.00  0.00    -0.245 OA
ATOM      2  C   UNL d   1      29.142 -14.044   0.552  0.00  0.00     0.340 C 
ATOM      3  N   UNL d   1      29.615 -14.724   1.632  0.00  0.00    -0.216 N 
ATOM      4  N   UNL d   1      28.021 -14.577  -0.035  0.00  0.00    -0.336 N 
ATOM      5  H   UNL d   1      29.200 -15.578   1.967  0.00  0.00     0.199 HD
ATOM      6  H   UNL d   1      27.683 -14.015  -0.809  0.00  0.00     0.164 HD
ENDROOT
BRANCH   3   7
ATOM      7  O   UNL d   1      30.778 -14.229   2.257  0.00  0.00    -0.272 OA
BRANCH   7   8
ATOM      8  C   UNL d   1      30.896 -14.738   3.592  0.00  0.00     0.240 C 
BRANCH   8   9
ATOM      9  C   UNL d   1      29.800 -14.182   4.476  0.00  0.00    -0.032 A 
ATOM     10  C   UNL d   1      28.493 -14.689   4.398  0.00  0.00     0.009 A 
ATOM     11  C   UNL d   1      27.455 -14.079   5.108  0.00  0.00     0.001 A 
ATOM     12  C   UNL d   1      27.724 -13.016   5.969  0.00  0.00     0.000 A 
ATOM     13  C   UNL d   1      29.024 -12.539   6.095  0.00  0.00     0.001 A 
ATOM     14  C   UNL d   1      30.052 -13.116   5.351  0.00  0.00     0.009 A 
ENDBRANCH   8   9
ENDBRANCH   7   8
ENDBRANCH   3   7
BRANCH   4  15
ATOM     15  C   UNL d   1      27.235 -15.689   0.417  0.00  0.00     0.095 A 
ATOM     16  C   UNL d   1      27.729 -17.100   0.235  0.00  0.00     0.037 A 
ATOM     17  C   UNL d   1      26.576 -16.597  -0.596  0.00  0.00     0.043 A 
BRANCH  17  18
ATOM     18  C   UNL d   1      25.181 -17.196  -0.490  0.00  0.00    -0.049 A 
ATOM     19  C   UNL d   1      24.855 -18.522  -0.147  0.00  0.00     0.008 A 
ATOM     20  C   UNL d   1      23.519 -18.974  -0.151  0.00  0.00     0.004 A 
ATOM     21  C   UNL d   1      22.473 -18.094  -0.422  0.00  0.00     0.042 A 
ATOM     22  C   UNL d   1      22.772 -16.782  -0.735  0.00  0.00     0.116 A 
ATOM     23  F   UNL d   1      21.787 -15.920  -1.017  0.00  0.00    -0.206 F 
ATOM     24  C   UNL d   1      24.092 -16.346  -0.779  0.00  0.00     0.049 A 
ENDBRANCH  17  18
ENDBRANCH   4  15
TORSDOF 5
ENDMDL
MODEL 8
REMARK VINA RESULT:    -6.177      3.695      7.310
REMARK INTER + INTRA:          -9.065
REMARK INTER:                  -7.669
REMARK INTRA:                  -1.396
REMARK CONF_INDEPENDENT:        1.492
REMARK UNBOUND:                -1.396
REMARK  5 active torsions:
REMARK  status: ('A' for Active; 'I' for Inactive)
REMARK       I    between atoms: C_2  and  N_3 
REMARK       I    between atoms: C_2  and  N_12 
REMARK    1  A    between atoms: N_3  and  O_4 
REMARK    2  A    between atoms: O_4  and  C_5 
REMARK    3  A    between atoms: C_5  and  C_6 
REMARK    4  A    between atoms: N_12  and  C_13 
REMARK    5  A    between atoms: C_15  and  C_16 
ROOT
ATOM      1  O   UNL d   1      29.041 -14.189   0.397  0.00  0.00    -0.245 OA
ATOM      2  C   UNL d   1      28.006 -14.855   0.486  0.00  0.00     0.340 C 
ATOM      3  N   UNL d   1      26.748 -14.393   0.244  0.00  0.00    -0.216 N 
ATOM      4  N   UNL d   1      28.088 -16.176   0.851  0.00  0.00    -0.336 N 
ATOM      5  H   UNL d   1      25.925 -14.962   0.353  0.00  0.00     0.199 HD
ATOM      6  H   UNL d   1      29.046 -16.485   0.982  0.00  0.00     0.164 HD
ENDROOT
BRANCH   3   7
ATOM      7  O   UNL d   1      26.608 -13.037  -0.112  0.00  0.00    -0.272 OA
BRANCH   7   8
ATOM      8  C   UNL d   1      27.272 -12.763  -1.352  0.00  0.00     0.240 C 
BRANCH   8   9
ATOM      9  C   UNL d   1      26.623 -13.527  -2.486  0.00  0.00    -0.032 A 
ATOM     10  C   UNL d   1      27.213 -14.699  -2.987  0.00  0.00     0.009 A 
ATOM     11  C   UNL d   1      26.692 -15.321  -4.125  0.00  0.00     0.001 A 
ATOM     12  C   UNL d   1      25.530 -14.834  -4.722  0.00  0.00     0.000 A 
ATOM     13  C   UNL d   1      24.907 -13.704  -4.202  0.00  0.00     0.001 A 
ATOM     14  C   UNL d   1      25.452 -13.056  -3.097  0.00  0.00     0.009 A 
ENDBRANCH   8   9
ENDBRANCH   7   8
ENDBRANCH   3   7
BRANCH   4  15
ATOM     15  C   UNL d   1      27.030 -17.144   0.898  0.00  0.00     0.095 A 
ATOM     16  C   UNL d   1      27.187 -18.484   0.230  0.00  0.00     0.037 A 
ATOM     17  C   UNL d   1      26.249 -17.459  -0.357  0.00  0.00     0.043 A 
BRANCH  17  18
ATOM     18  C   UNL d   1      24.749 -17.693  -0.446  0.00  0.00    -0.049 A 
ATOM     19  C   UNL d   1      24.071 -18.912  -0.254  0.00  0.00     0.008 A 
ATOM     20  C   UNL d   1      22.675 -19.012  -0.433  0.00  0.00     0.004 A 
ATOM     21  C   UNL d   1      21.915 -17.882  -0.730  0.00  0.00     0.042 A 
ATOM     22  C   UNL d   1      22.560 -16.672  -0.895  0.00  0.00     0.116 A 
ATOM     23  F   UNL d   1      21.855 -15.574  -1.198  0.00  0.00    -0.206 F 
ATOM     24  C   UNL d   1      23.942 -16.580  -0.767  0.00  0.00     0.049 A 
ENDBRANCH  17  18
ENDBRANCH   4  15
TORSDOF 5
ENDMDL
MODEL 9
REMARK VINA RESULT:    -5.652      4.320      7.710
REMARK INTER + INTRA:          -8.455
REMARK INTER:                  -7.144
REMARK INTRA:                  -1.311
REMARK CONF_INDEPENDENT:        1.492
REMARK UNBOUND:                -1.311
REMARK  5 active torsions:
REMARK  status: ('A' for Active; 'I' for Inactive)
REMARK       I    between atoms: C_2  and  N_3 
REMARK       I    between atoms: C_2  and  N_12 
REMARK    1  A    between atoms: N_3  and  O_4 
REMARK    2  A    between atoms: O_4  and  C_5 
REMARK    3  A    between atoms: C_5  and  C_6 
REMARK    4  A    between atoms: N_12  and  C_13 
REMARK    5  A    between atoms: C_15  and  C_16 
ROOT
ATOM      1  O   UNL d   1      30.405 -16.175  -3.630  0.00  0.00    -0.245 OA
ATOM      2  C   UNL d   1      29.278 -15.966  -3.172  0.00  0.00     0.340 C 
ATOM      3  N   UNL d   1      28.138 -15.851  -3.908  0.00  0.00    -0.216 N 
ATOM      4  N   UNL d   1      29.118 -15.840  -1.815  0.00  0.00    -0.336 N 
ATOM      5  H   UNL d   1      27.239 -15.654  -3.498  0.00  0.00     0.199 HD
ATOM      6  H   UNL d   1      29.987 -15.973  -1.307  0.00  0.00     0.164 HD
ENDROOT
BRANCH   3   7
ATOM      7  O   UNL d   1      28.251 -15.950  -5.309  0.00  0.00    -0.272 OA
BRANCH   7   8
ATOM      8  C   UNL d   1      27.836 -14.734  -5.942  0.00  0.00     0.240 C 
BRANCH   8   9
ATOM      9  C   UNL d   1      26.988 -13.903  -5.003  0.00  0.00    -0.032 A 
ATOM     10  C   UNL d   1      27.501 -12.730  -4.427  0.00  0.00     0.009 A 
ATOM     11  C   UNL d   1      26.772 -12.044  -3.451  0.00  0.00     0.001 A 
ATOM     12  C   UNL d   1      25.490 -12.471  -3.105  0.00  0.00     0.000 A 
ATOM     13  C   UNL d   1      24.951 -13.602  -3.707  0.00  0.00     0.001 A 
ATOM     14  C   UNL d   1      25.696 -14.313  -4.645  0.00  0.00     0.009 A 
ENDBRANCH   8   9
ENDBRANCH   7   8
ENDBRANCH   3   7
BRANCH   4  15
ATOM     15  C   UNL d   1      27.893 -15.714  -1.080  0.00  0.00     0.095 A 
ATOM     16  C   UNL d   1      27.807 -16.173   0.351  0.00  0.00     0.037 A 
ATOM     17  C   UNL d   1      27.101 -16.953  -0.730  0.00  0.00     0.043 A 
BRANCH  17  18
ATOM     18  C   UNL d   1      25.587 -17.091  -0.769  0.00  0.00    -0.049 A 
ATOM     19  C   UNL d   1      24.654 -16.081  -1.070  0.00  0.00     0.008 A 
ATOM     20  C   UNL d   1      23.265 -16.321  -1.005  0.00  0.00     0.004 A 
ATOM     21  C   UNL d   1      22.778 -17.594  -0.716  0.00  0.00     0.042 A 
ATOM     22  C   UNL d   1      23.679 -18.605  -0.444  0.00  0.00     0.116 A 
ATOM     23  F   UNL d   1      23.237 -19.833  -0.145  0.00  0.00    -0.206 F 
ATOM     24  C   UNL d   1      25.048 -18.358  -0.459  0.00  0.00     0.049 A 
ENDBRANCH  17  18
ENDBRANCH   4  15
TORSDOF 5
ENDMDL
