MODEL 1
REMARK VINA RESULT:   -32.180      0.000      0.000
REMARK INTER + INTRA:         -34.305
REMARK INTER:                 -33.671
REMARK INTRA:                  -0.633
REMARK CONF_INDEPENDENT:        1.492
REMARK UNBOUND:                -0.633
REMARK  5 active torsions:
REMARK  status: ('A' for Active; 'I' for Inactive)
REMARK       I    between atoms: C_2  and  N_3 
REMARK    1  A    between atoms: C_2  and  C_20 
REMARK    2  A    between atoms: N_3  and  C_4 
REMARK    3  A    between atoms: C_7  and  S_8 
REMARK    4  A    between atoms: S_8  and  N_11 
REMARK    5  A    between atoms: N_11  and  C_12 
ROOT
ATOM      1  C   UNL d   1      26.558 -15.831  -2.574  0.00  0.00     0.035 A 
ATOM      2  C   UNL d   1      26.755 -16.853  -1.641  0.00  0.00     0.031 A 
ATOM      3  C   UNL d   1      25.645 -17.400  -0.953  0.00  0.00     0.027 A 
ATOM      4  C   UNL d   1      24.345 -16.891  -1.154  0.00  0.00     0.080 A 
ATOM      5  C   UNL d   1      24.158 -15.863  -2.066  0.00  0.00     0.027 A 
ATOM      6  C   UNL d   1      25.256 -15.343  -2.751  0.00  0.00     0.031 A 
ENDROOT
BRANCH   1   7
ATOM      7  N   UNL d   1      27.612 -15.330  -3.395  0.00  0.00    -0.323 N 
ATOM      8  C   UNL d   1      27.442 -15.267  -4.777  0.00  0.00     0.256 C 
ATOM      9  O   UNL d   1      26.361 -15.447  -5.321  0.00  0.00    -0.267 OA
ATOM     10  H   UNL d   1      28.401 -14.875  -2.960  0.00  0.00     0.169 HD
BRANCH   8  11
ATOM     11  C   UNL d   1      28.495 -14.687  -5.648  0.00  0.00     0.035 C 
ATOM     12  C   UNL d   1      28.693 -13.531  -6.416  0.00  0.00     0.020 C 
ATOM     13  C   UNL d   1      29.912 -13.388  -7.269  0.00  0.00     0.040 C 
ATOM     14  C   UNL d   1      30.864 -14.450  -7.352  0.00  0.00     0.102 C 
ATOM     15  C   UNL d   1      30.415 -15.528  -6.677  0.00  0.00     0.103 C 
ATOM     16  O   UNL d   1      32.073 -14.764  -8.002  0.00  0.00    -0.346 OA
ATOM     17  C   UNL d   1      29.463 -15.630  -5.725  0.00  0.00     0.056 C 
ATOM     18  O   UNL d   1      30.515 -16.735  -7.302  0.00  0.00    -0.346 OA
ATOM     19  C   UNL d   1      31.769 -17.141  -6.867  0.00  0.00     0.202 C 
ATOM     20  C   UNL d   1      32.657 -16.261  -7.742  0.00  0.00     0.202 C 
ENDBRANCH   8  11
ENDBRANCH   1   7
BRANCH   4  21
ATOM     21  S   UNL d   1      22.993 -17.507  -0.134  0.00  0.00     0.276 S 
ATOM     22  O   UNL d   1      23.643 -18.361   0.869  0.00  0.00    -0.200 OA
ATOM     23  O   UNL d   1      22.250 -16.348   0.240  0.00  0.00    -0.200 OA
BRANCH  21  24
ATOM     24  N   UNL d   1      22.046 -18.477  -1.111  0.00  0.00    -0.109 N 
ATOM     25  H   UNL d   1      22.367 -18.888  -1.971  0.00  0.00     0.198 HD
BRANCH  24  26
ATOM     26  C   UNL d   1      20.976 -19.147  -0.506  0.00  0.00     0.735 A 
ATOM     27  N   UNL d   1      19.887 -19.325  -1.270  0.00  0.00    -0.074 NA
ATOM     28  C   UNL d   1      18.828 -19.898  -0.648  0.00  0.00     0.138 A 
ATOM     29  C   UNL d   1      18.811 -20.224   0.689  0.00  0.00     0.040 A 
ATOM     30  C   UNL d   1      19.959 -19.920   1.377  0.00  0.00     0.138 A 
ATOM     31  N   UNL d   1      21.052 -19.383   0.803  0.00  0.00    -0.074 NA
ENDBRANCH  24  26
ENDBRANCH  21  24
ENDBRANCH   4  21
TORSDOF 5
ENDMDL
MODEL 2
REMARK VINA RESULT:   -31.883      1.317      2.148
REMARK INTER + INTRA:         -33.997
REMARK INTER:                 -33.374
REMARK INTRA:                  -0.622
REMARK CONF_INDEPENDENT:        1.492
REMARK UNBOUND:                -0.622
REMARK  5 active torsions:
REMARK  status: ('A' for Active; 'I' for Inactive)
REMARK       I    between atoms: C_2  and  N_3 
REMARK    1  A    between atoms: C_2  and  C_20 
REMARK    2  A    between atoms: N_3  and  C_4 
REMARK    3  A    between atoms: C_7  and  S_8 
REMARK    4  A    between atoms: S_8  and  N_11 
REMARK    5  A    between atoms: N_11  and  C_12 
ROOT
ATOM      1  C   UNL d   1      26.699 -15.994  -2.474  0.00  0.00     0.035 A 
ATOM      2  C   UNL d   1      26.834 -16.992  -1.506  0.00  0.00     0.031 A 
ATOM      3  C   UNL d   1      25.686 -17.486  -0.841  0.00  0.00     0.027 A 
ATOM      4  C   UNL d   1      24.409 -16.946  -1.101  0.00  0.00     0.080 A 
ATOM      5  C   UNL d   1      24.284 -15.940  -2.047  0.00  0.00     0.027 A 
ATOM      6  C   UNL d   1      25.419 -15.473  -2.709  0.00  0.00     0.031 A 
ENDROOT
BRANCH   1   7
ATOM      7  N   UNL d   1      27.795 -15.548  -3.272  0.00  0.00    -0.323 N 
ATOM      8  C   UNL d   1      27.659 -15.482  -4.658  0.00  0.00     0.256 C 
ATOM      9  O   UNL d   1      26.582 -15.612  -5.225  0.00  0.00    -0.267 OA
ATOM     10  H   UNL d   1      28.595 -15.130  -2.822  0.00  0.00     0.169 HD
BRANCH   8  11
ATOM     11  C   UNL d   1      28.758 -14.958  -5.507  0.00  0.00     0.035 C 
ATOM     12  C   UNL d   1      30.159 -14.983  -5.532  0.00  0.00     0.020 C 
ATOM     13  C   UNL d   1      30.913 -14.195  -6.554  0.00  0.00     0.040 C 
ATOM     14  C   UNL d   1      30.215 -13.366  -7.485  0.00  0.00     0.102 C 
ATOM     15  C   UNL d   1      28.898 -13.350  -7.195  0.00  0.00     0.103 C 
ATOM     16  O   UNL d   1      30.480 -12.476  -8.544  0.00  0.00    -0.346 OA
ATOM     17  C   UNL d   1      28.156 -14.200  -6.454  0.00  0.00     0.056 C 
ATOM     18  O   UNL d   1      28.280 -12.135  -7.184  0.00  0.00    -0.346 OA
ATOM     19  C   UNL d   1      27.863 -12.053  -8.505  0.00  0.00     0.202 C 
ATOM     20  C   UNL d   1      29.187 -11.725  -9.188  0.00  0.00     0.202 C 
ENDBRANCH   8  11
ENDBRANCH   1   7
BRANCH   4  21
ATOM     21  S   UNL d   1      23.006 -17.491  -0.109  0.00  0.00     0.276 S 
ATOM     22  O   UNL d   1      23.592 -18.357   0.921  0.00  0.00    -0.200 OA
ATOM     23  O   UNL d   1      22.302 -16.297   0.230  0.00  0.00    -0.200 OA
BRANCH  21  24
ATOM     24  N   UNL d   1      22.045 -18.434  -1.099  0.00  0.00    -0.109 N 
ATOM     25  H   UNL d   1      22.354 -18.821  -1.975  0.00  0.00     0.198 HD
BRANCH  24  26
ATOM     26  C   UNL d   1      20.984 -19.121  -0.498  0.00  0.00     0.735 A 
ATOM     27  N   UNL d   1      19.905 -19.325  -1.269  0.00  0.00    -0.074 NA
ATOM     28  C   UNL d   1      18.852 -19.915  -0.652  0.00  0.00     0.138 A 
ATOM     29  C   UNL d   1      18.831 -20.233   0.687  0.00  0.00     0.040 A 
ATOM     30  C   UNL d   1      19.968 -19.903   1.382  0.00  0.00     0.138 A 
ATOM     31  N   UNL d   1      21.054 -19.347   0.812  0.00  0.00    -0.074 NA
ENDBRANCH  24  26
ENDBRANCH  21  24
ENDBRANCH   4  21
TORSDOF 5
ENDMDL
MODEL 3
REMARK VINA RESULT:   -31.392      5.330      7.086
REMARK INTER + INTRA:         -33.496
REMARK INTER:                 -32.883
REMARK INTRA:                  -0.612
REMARK CONF_INDEPENDENT:        1.492
REMARK UNBOUND:                -0.612
REMARK  5 active torsions:
REMARK  status: ('A' for Active; 'I' for Inactive)
REMARK       I    between atoms: C_2  and  N_3 
REMARK    1  A    between atoms: C_2  and  C_20 
REMARK    2  A    between atoms: N_3  and  C_4 
REMARK    3  A    between atoms: C_7  and  S_8 
REMARK    4  A    between atoms: S_8  and  N_11 
REMARK    5  A    between atoms: N_11  and  C_12 
ROOT
ATOM      1  C   UNL d   1      26.511 -16.374   0.214  0.00  0.00     0.035 A 
ATOM      2  C   UNL d   1      25.578 -15.653  -0.536  0.00  0.00     0.031 A 
ATOM      3  C   UNL d   1      24.341 -16.249  -0.880  0.00  0.00     0.027 A 
ATOM      4  C   UNL d   1      24.055 -17.583  -0.524  0.00  0.00     0.080 A 
ATOM      5  C   UNL d   1      24.993 -18.302   0.202  0.00  0.00     0.027 A 
ATOM      6  C   UNL d   1      26.202 -17.699   0.551  0.00  0.00     0.031 A 
ENDROOT
BRANCH   1   7
ATOM      7  N   UNL d   1      27.716 -15.789   0.706  0.00  0.00    -0.323 N 
ATOM      8  C   UNL d   1      27.715 -14.463   1.135  0.00  0.00     0.256 C 
ATOM      9  O   UNL d   1      26.687 -13.816   1.289  0.00  0.00    -0.267 OA
ATOM     10  H   UNL d   1      28.511 -16.381   0.893  0.00  0.00     0.169 HD
BRANCH   8  11
ATOM     11  C   UNL d   1      28.937 -13.849   1.714  0.00  0.00     0.035 C 
ATOM     12  C   UNL d   1      30.236 -13.525   1.302  0.00  0.00     0.020 C 
ATOM     13  C   UNL d   1      31.231 -12.992   2.282  0.00  0.00     0.040 C 
ATOM     14  C   UNL d   1      30.884 -12.857   3.661  0.00  0.00     0.102 C 
ATOM     15  C   UNL d   1      29.657 -13.371   3.883  0.00  0.00     0.103 C 
ATOM     16  O   UNL d   1      31.460 -12.453   4.882  0.00  0.00    -0.346 OA
ATOM     17  C   UNL d   1      28.654 -13.641   3.022  0.00  0.00     0.056 C 
ATOM     18  O   UNL d   1      29.515 -14.190   4.964  0.00  0.00    -0.346 OA
ATOM     19  C   UNL d   1      29.166 -13.265   5.937  0.00  0.00     0.202 C 
ATOM     20  C   UNL d   1      30.526 -12.626   6.205  0.00  0.00     0.202 C 
ENDBRANCH   8  11
ENDBRANCH   1   7
BRANCH   4  21
ATOM     21  S   UNL d   1      22.539 -18.348  -1.128  0.00  0.00     0.276 S 
ATOM     22  O   UNL d   1      21.561 -17.254  -1.171  0.00  0.00    -0.200 OA
ATOM     23  O   UNL d   1      22.922 -19.054  -2.308  0.00  0.00    -0.200 OA
BRANCH  21  24
ATOM     24  N   UNL d   1      22.047 -19.443   0.033  0.00  0.00    -0.109 N 
ATOM     25  H   UNL d   1      22.564 -19.637   0.874  0.00  0.00     0.198 HD
BRANCH  24  26
ATOM     26  C   UNL d   1      20.678 -19.727   0.110  0.00  0.00     0.735 A 
ATOM     27  N   UNL d   1      20.302 -20.541   1.107  0.00  0.00    -0.074 NA
ATOM     28  C   UNL d   1      18.989 -20.877   1.120  0.00  0.00     0.138 A 
ATOM     29  C   UNL d   1      18.089 -20.483   0.155  0.00  0.00     0.040 A 
ATOM     30  C   UNL d   1      18.617 -19.715  -0.853  0.00  0.00     0.138 A 
ATOM     31  N   UNL d   1      19.905 -19.325  -0.897  0.00  0.00    -0.074 NA
ENDBRANCH  24  26
ENDBRANCH  21  24
ENDBRANCH   4  21
TORSDOF 5
ENDMDL
MODEL 4
REMARK VINA RESULT:   -31.279      1.150      1.731
REMARK INTER + INTRA:         -33.479
REMARK INTER:                 -32.771
REMARK INTRA:                  -0.709
REMARK CONF_INDEPENDENT:        1.492
REMARK UNBOUND:                -0.709
REMARK  5 active torsions:
REMARK  status: ('A' for Active; 'I' for Inactive)
REMARK       I    between atoms: C_2  and  N_3 
REMARK    1  A    between atoms: C_2  and  C_20 
REMARK    2  A    between atoms: N_3  and  C_4 
REMARK    3  A    between atoms: C_7  and  S_8 
REMARK    4  A    between atoms: S_8  and  N_11 
REMARK    5  A    between atoms: N_11  and  C_12 
ROOT
ATOM      1  C   UNL d   1      25.762 -15.301  -2.745  0.00  0.00     0.035 A 
ATOM      2  C   UNL d   1      24.417 -15.074  -2.439  0.00  0.00     0.031 A 
ATOM      3  C   UNL d   1      23.712 -16.004  -1.639  0.00  0.00     0.027 A 
ATOM      4  C   UNL d   1      24.332 -17.189  -1.188  0.00  0.00     0.080 A 
ATOM      5  C   UNL d   1      25.660 -17.419  -1.512  0.00  0.00     0.027 A 
ATOM      6  C   UNL d   1      26.350 -16.487  -2.287  0.00  0.00     0.031 A 
ENDROOT
BRANCH   1   7
ATOM      7  N   UNL d   1      26.564 -14.340  -3.433  0.00  0.00    -0.323 N 
ATOM      8  C   UNL d   1      27.025 -14.619  -4.718  0.00  0.00     0.256 C 
ATOM      9  O   UNL d   1      26.628 -15.574  -5.372  0.00  0.00    -0.267 OA
ATOM     10  H   UNL d   1      26.650 -13.409  -3.054  0.00  0.00     0.169 HD
BRANCH   8  11
ATOM     11  C   UNL d   1      27.803 -13.612  -5.483  0.00  0.00     0.035 C 
ATOM     12  C   UNL d   1      27.619 -12.318  -5.988  0.00  0.00     0.020 C 
ATOM     13  C   UNL d   1      28.672 -11.680  -6.837  0.00  0.00     0.040 C 
ATOM     14  C   UNL d   1      29.854 -12.403  -7.186  0.00  0.00     0.102 C 
ATOM     15  C   UNL d   1      29.767 -13.674  -6.744  0.00  0.00     0.103 C 
ATOM     16  O   UNL d   1      31.034 -12.238  -7.936  0.00  0.00    -0.346 OA
ATOM     17  C   UNL d   1      28.970 -14.220  -5.801  0.00  0.00     0.056 C 
ATOM     18  O   UNL d   1      30.116 -14.659  -7.620  0.00  0.00    -0.346 OA
ATOM     19  C   UNL d   1      31.467 -14.785  -7.334  0.00  0.00     0.202 C 
ATOM     20  C   UNL d   1      32.009 -13.540  -8.030  0.00  0.00     0.202 C 
ENDBRANCH   8  11
ENDBRANCH   1   7
BRANCH   4  21
ATOM     21  S   UNL d   1      23.345 -18.419  -0.314  0.00  0.00     0.276 S 
ATOM     22  O   UNL d   1      23.637 -19.685  -0.998  0.00  0.00    -0.200 OA
ATOM     23  O   UNL d   1      23.650 -18.228   1.067  0.00  0.00    -0.200 OA
BRANCH  21  24
ATOM     24  N   UNL d   1      21.740 -18.038  -0.582  0.00  0.00    -0.109 N 
ATOM     25  H   UNL d   1      21.426 -17.423  -1.313  0.00  0.00     0.198 HD
BRANCH  24  26
ATOM     26  C   UNL d   1      20.780 -18.954  -0.136  0.00  0.00     0.735 A 
ATOM     27  N   UNL d   1      19.789 -19.232  -0.996  0.00  0.00    -0.074 NA
ATOM     28  C   UNL d   1      18.820 -20.053  -0.521  0.00  0.00     0.138 A 
ATOM     29  C   UNL d   1      18.788 -20.532   0.769  0.00  0.00     0.040 A 
ATOM     30  C   UNL d   1      19.820 -20.112   1.572  0.00  0.00     0.138 A 
ATOM     31  N   UNL d   1      20.825 -19.325   1.143  0.00  0.00    -0.074 NA
ENDBRANCH  24  26
ENDBRANCH  21  24
ENDBRANCH   4  21
TORSDOF 5
ENDMDL
MODEL 5
REMARK VINA RESULT:   -31.208      4.393      5.543
REMARK INTER + INTRA:         -33.422
REMARK INTER:                 -32.699
REMARK INTRA:                  -0.723
REMARK CONF_INDEPENDENT:        1.492
REMARK UNBOUND:                -0.723
REMARK  5 active torsions:
REMARK  status: ('A' for Active; 'I' for Inactive)
REMARK       I    between atoms: C_2  and  N_3 
REMARK    1  A    between atoms: C_2  and  C_20 
REMARK    2  A    between atoms: N_3  and  C_4 
REMARK    3  A    between atoms: C_7  and  S_8 
REMARK    4  A    between atoms: S_8  and  N_11 
REMARK    5  A    between atoms: N_11  and  C_12 
ROOT
ATOM      1  C   UNL d   1      26.961 -17.196  -0.086  0.00  0.00     0.035 A 
ATOM      2  C   UNL d   1      26.249 -16.317  -0.906  0.00  0.00     0.031 A 
ATOM      3  C   UNL d   1      24.860 -16.507  -1.100  0.00  0.00     0.027 A 
ATOM      4  C   UNL d   1      24.191 -17.606  -0.521  0.00  0.00     0.080 A 
ATOM      5  C   UNL d   1      24.907 -18.487   0.275  0.00  0.00     0.027 A 
ATOM      6  C   UNL d   1      26.272 -18.280   0.473  0.00  0.00     0.031 A 
ENDROOT
BRANCH   1   7
ATOM      7  N   UNL d   1      28.331 -16.984   0.256  0.00  0.00    -0.323 N 
ATOM      8  C   UNL d   1      29.299 -16.969  -0.746  0.00  0.00     0.256 C 
ATOM      9  O   UNL d   1      29.020 -16.946  -1.937  0.00  0.00    -0.267 OA
ATOM     10  H   UNL d   1      28.564 -16.683   1.191  0.00  0.00     0.169 HD
BRANCH   8  11
ATOM     11  C   UNL d   1      30.721 -16.683  -0.427  0.00  0.00     0.035 C 
ATOM     12  C   UNL d   1      31.982 -17.226  -0.709  0.00  0.00     0.020 C 
ATOM     13  C   UNL d   1      33.209 -16.664  -0.066  0.00  0.00     0.040 C 
ATOM     14  C   UNL d   1      33.105 -15.602   0.883  0.00  0.00     0.102 C 
ATOM     15  C   UNL d   1      31.808 -15.334   1.138  0.00  0.00     0.103 C 
ATOM     16  O   UNL d   1      33.926 -14.817   1.715  0.00  0.00    -0.346 OA
ATOM     17  C   UNL d   1      30.697 -15.639   0.435  0.00  0.00     0.056 C 
ATOM     18  O   UNL d   1      31.451 -15.193   2.447  0.00  0.00    -0.346 OA
ATOM     19  C   UNL d   1      31.635 -13.828   2.612  0.00  0.00     0.202 C 
ATOM     20  C   UNL d   1      33.158 -13.768   2.695  0.00  0.00     0.202 C 
ENDBRANCH   8  11
ENDBRANCH   1   7
BRANCH   4  21
ATOM     21  S   UNL d   1      22.460 -17.898  -0.933  0.00  0.00     0.276 S 
ATOM     22  O   UNL d   1      21.895 -16.558  -1.137  0.00  0.00    -0.200 OA
ATOM     23  O   UNL d   1      22.485 -18.865  -1.981  0.00  0.00    -0.200 OA
BRANCH  21  24
ATOM     24  N   UNL d   1      21.742 -18.567   0.418  0.00  0.00    -0.109 N 
ATOM     25  H   UNL d   1      21.818 -18.179   1.343  0.00  0.00     0.198 HD
BRANCH  24  26
ATOM     26  C   UNL d   1      20.616 -19.374   0.214  0.00  0.00     0.735 A 
ATOM     27  N   UNL d   1      19.905 -19.119  -0.895  0.00  0.00    -0.074 NA
ATOM     28  C   UNL d   1      18.771 -19.848  -1.039  0.00  0.00     0.138 A 
ATOM     29  C   UNL d   1      18.314 -20.745  -0.100  0.00  0.00     0.040 A 
ATOM     30  C   UNL d   1      19.093 -20.857   1.025  0.00  0.00     0.138 A 
ATOM     31  N   UNL d   1      20.245 -20.183   1.204  0.00  0.00    -0.074 NA
ENDBRANCH  24  26
ENDBRANCH  21  24
ENDBRANCH   4  21
TORSDOF 5
ENDMDL
MODEL 6
REMARK VINA RESULT:   -31.082      2.231      3.415
REMARK INTER + INTRA:         -33.327
REMARK INTER:                 -32.574
REMARK INTRA:                  -0.753
REMARK CONF_INDEPENDENT:        1.492
REMARK UNBOUND:                -0.753
REMARK  5 active torsions:
REMARK  status: ('A' for Active; 'I' for Inactive)
REMARK       I    between atoms: C_2  and  N_3 
REMARK    1  A    between atoms: C_2  and  C_20 
REMARK    2  A    between atoms: N_3  and  C_4 
REMARK    3  A    between atoms: C_7  and  S_8 
REMARK    4  A    between atoms: S_8  and  N_11 
REMARK    5  A    between atoms: N_11  and  C_12 
ROOT
ATOM      1  C   UNL d   1      26.103 -15.365  -2.365  0.00  0.00     0.035 A 
ATOM      2  C   UNL d   1      26.668 -16.483  -1.747  0.00  0.00     0.031 A 
ATOM      3  C   UNL d   1      25.830 -17.460  -1.160  0.00  0.00     0.027 A 
ATOM      4  C   UNL d   1      24.429 -17.296  -1.139  0.00  0.00     0.080 A 
ATOM      5  C   UNL d   1      23.874 -16.173  -1.735  0.00  0.00     0.027 A 
ATOM      6  C   UNL d   1      24.709 -15.225  -2.326  0.00  0.00     0.031 A 
ENDROOT
BRANCH   1   7
ATOM      7  N   UNL d   1      26.882 -14.414  -3.090  0.00  0.00    -0.323 N 
ATOM      8  C   UNL d   1      27.161 -14.632  -4.438  0.00  0.00     0.256 C 
ATOM      9  O   UNL d   1      26.618 -15.511  -5.094  0.00  0.00    -0.267 OA
ATOM     10  H   UNL d   1      27.083 -13.519  -2.669  0.00  0.00     0.169 HD
BRANCH   8  11
ATOM     11  C   UNL d   1      27.912 -13.627  -5.233  0.00  0.00     0.035 C 
ATOM     12  C   UNL d   1      29.243 -13.344  -5.565  0.00  0.00     0.020 C 
ATOM     13  C   UNL d   1      29.585 -12.112  -6.339  0.00  0.00     0.040 C 
ATOM     14  C   UNL d   1      28.564 -11.181  -6.702  0.00  0.00     0.102 C 
ATOM     15  C   UNL d   1      27.388 -11.546  -6.154  0.00  0.00     0.103 C 
ATOM     16  O   UNL d   1      28.419  -9.947  -7.365  0.00  0.00    -0.346 OA
ATOM     17  C   UNL d   1      26.986 -12.736  -5.659  0.00  0.00     0.056 C 
ATOM     18  O   UNL d   1      26.661 -10.569  -5.541  0.00  0.00    -0.346 OA
ATOM     19  C   UNL d   1      25.885 -10.128  -6.604  0.00  0.00     0.202 C 
ATOM     20  C   UNL d   1      26.919  -9.313  -7.375  0.00  0.00     0.202 C 
ENDBRANCH   8  11
ENDBRANCH   1   7
BRANCH   4  21
ATOM     21  S   UNL d   1      23.418 -18.483  -0.234  0.00  0.00     0.276 S 
ATOM     22  O   UNL d   1      23.657 -19.766  -0.908  0.00  0.00    -0.200 OA
ATOM     23  O   UNL d   1      23.753 -18.287   1.139  0.00  0.00    -0.200 OA
BRANCH  21  24
ATOM     24  N   UNL d   1      21.822 -18.054  -0.479  0.00  0.00    -0.109 N 
ATOM     25  H   UNL d   1      21.519 -17.411  -1.191  0.00  0.00     0.198 HD
BRANCH  24  26
ATOM     26  C   UNL d   1      20.842 -18.955  -0.049  0.00  0.00     0.735 A 
ATOM     27  N   UNL d   1      19.905 -19.280  -0.953  0.00  0.00    -0.074 NA
ATOM     28  C   UNL d   1      18.914 -20.086  -0.499  0.00  0.00     0.138 A 
ATOM     29  C   UNL d   1      18.806 -20.505   0.808  0.00  0.00     0.040 A 
ATOM     30  C   UNL d   1      19.786 -20.040   1.650  0.00  0.00     0.138 A 
ATOM     31  N   UNL d   1      20.811 -19.266   1.246  0.00  0.00    -0.074 NA
ENDBRANCH  24  26
ENDBRANCH  21  24
ENDBRANCH   4  21
TORSDOF 5
ENDMDL
MODEL 7
REMARK VINA RESULT:   -31.035      4.278      5.181
REMARK INTER + INTRA:         -33.202
REMARK INTER:                 -32.526
REMARK INTRA:                  -0.676
REMARK CONF_INDEPENDENT:        1.492
REMARK UNBOUND:                -0.676
REMARK  5 active torsions:
REMARK  status: ('A' for Active; 'I' for Inactive)
REMARK       I    between atoms: C_2  and  N_3 
REMARK    1  A    between atoms: C_2  and  C_20 
REMARK    2  A    between atoms: N_3  and  C_4 
REMARK    3  A    between atoms: C_7  and  S_8 
REMARK    4  A    between atoms: S_8  and  N_11 
REMARK    5  A    between atoms: N_11  and  C_12 
ROOT
ATOM      1  C   UNL d   1      26.884 -17.070  -0.236  0.00  0.00     0.035 A 
ATOM      2  C   UNL d   1      26.099 -16.244  -1.044  0.00  0.00     0.031 A 
ATOM      3  C   UNL d   1      24.719 -16.519  -1.201  0.00  0.00     0.027 A 
ATOM      4  C   UNL d   1      24.132 -17.650  -0.596  0.00  0.00     0.080 A 
ATOM      5  C   UNL d   1      24.920 -18.479   0.188  0.00  0.00     0.027 A 
ATOM      6  C   UNL d   1      26.275 -18.189   0.350  0.00  0.00     0.031 A 
ENDROOT
BRANCH   1   7
ATOM      7  N   UNL d   1      28.246 -16.773   0.070  0.00  0.00    -0.323 N 
ATOM      8  C   UNL d   1      29.169 -16.626  -0.964  0.00  0.00     0.256 C 
ATOM      9  O   UNL d   1      28.841 -16.555  -2.141  0.00  0.00    -0.267 OA
ATOM     10  H   UNL d   1      28.494 -16.511   1.012  0.00  0.00     0.169 HD
BRANCH   8  11
ATOM     11  C   UNL d   1      30.577 -16.250  -0.680  0.00  0.00     0.035 C 
ATOM     12  C   UNL d   1      31.529 -15.338  -1.156  0.00  0.00     0.020 C 
ATOM     13  C   UNL d   1      32.931 -15.368  -0.639  0.00  0.00     0.040 C 
ATOM     14  C   UNL d   1      33.330 -16.360   0.308  0.00  0.00     0.102 C 
ATOM     15  C   UNL d   1      32.326 -17.236   0.513  0.00  0.00     0.103 C 
ATOM     16  O   UNL d   1      34.476 -16.774   1.015  0.00  0.00    -0.346 OA
ATOM     17  C   UNL d   1      31.004 -17.125   0.261  0.00  0.00     0.056 C 
ATOM     18  O   UNL d   1      32.647 -18.561   0.499  0.00  0.00    -0.346 OA
ATOM     19  C   UNL d   1      32.931 -18.765   1.842  0.00  0.00     0.202 C 
ATOM     20  C   UNL d   1      34.307 -18.111   1.930  0.00  0.00     0.202 C 
ENDBRANCH   8  11
ENDBRANCH   1   7
BRANCH   4  21
ATOM     21  S   UNL d   1      22.412 -18.049  -0.961  0.00  0.00     0.276 S 
ATOM     22  O   UNL d   1      21.756 -16.746  -1.128  0.00  0.00    -0.200 OA
ATOM     23  O   UNL d   1      22.468 -18.999  -2.024  0.00  0.00    -0.200 OA
BRANCH  21  24
ATOM     24  N   UNL d   1      21.781 -18.781   0.401  0.00  0.00    -0.109 N 
ATOM     25  H   UNL d   1      22.033 -18.527   1.341  0.00  0.00     0.198 HD
BRANCH  24  26
ATOM     26  C   UNL d   1      20.529 -19.395   0.277  0.00  0.00     0.735 A 
ATOM     27  N   UNL d   1      20.157 -20.181   1.298  0.00  0.00    -0.074 NA
ATOM     28  C   UNL d   1      18.982 -20.836   1.130  0.00  0.00     0.138 A 
ATOM     29  C   UNL d   1      18.231 -20.777  -0.022  0.00  0.00     0.040 A 
ATOM     30  C   UNL d   1      18.760 -19.997  -1.022  0.00  0.00     0.138 A 
ATOM     31  N   UNL d   1      19.904 -19.299  -0.895  0.00  0.00    -0.074 NA
ENDBRANCH  24  26
ENDBRANCH  21  24
ENDBRANCH   4  21
TORSDOF 5
ENDMDL
MODEL 8
REMARK VINA RESULT:   -30.846      4.052      4.977
REMARK INTER + INTRA:         -33.041
REMARK INTER:                 -32.337
REMARK INTRA:                  -0.704
REMARK CONF_INDEPENDENT:        1.492
REMARK UNBOUND:                -0.704
REMARK  5 active torsions:
REMARK  status: ('A' for Active; 'I' for Inactive)
REMARK       I    between atoms: C_2  and  N_3 
REMARK    1  A    between atoms: C_2  and  C_20 
REMARK    2  A    between atoms: N_3  and  C_4 
REMARK    3  A    between atoms: C_7  and  S_8 
REMARK    4  A    between atoms: S_8  and  N_11 
REMARK    5  A    between atoms: N_11  and  C_12 
ROOT
ATOM      1  C   UNL d   1      26.949 -17.092  -0.205  0.00  0.00     0.035 A 
ATOM      2  C   UNL d   1      26.243 -16.380  -1.178  0.00  0.00     0.031 A 
ATOM      3  C   UNL d   1      24.859 -16.615  -1.356  0.00  0.00     0.027 A 
ATOM      4  C   UNL d   1      24.188 -17.601  -0.601  0.00  0.00     0.080 A 
ATOM      5  C   UNL d   1      24.898 -18.320   0.348  0.00  0.00     0.027 A 
ATOM      6  C   UNL d   1      26.258 -18.068   0.527  0.00  0.00     0.031 A 
ENDROOT
BRANCH   1   7
ATOM      7  N   UNL d   1      28.311 -16.809   0.114  0.00  0.00    -0.323 N 
ATOM      8  C   UNL d   1      28.694 -15.503   0.412  0.00  0.00     0.256 C 
ATOM      9  O   UNL d   1      27.887 -14.601   0.597  0.00  0.00    -0.267 OA
ATOM     10  H   UNL d   1      28.947 -17.575   0.283  0.00  0.00     0.169 HD
BRANCH   8  11
ATOM     11  C   UNL d   1      30.089 -15.191   0.814  0.00  0.00     0.035 C 
ATOM     12  C   UNL d   1      30.747 -14.420   1.782  0.00  0.00     0.020 C 
ATOM     13  C   UNL d   1      32.237 -14.294   1.765  0.00  0.00     0.040 C 
ATOM     14  C   UNL d   1      33.002 -14.913   0.730  0.00  0.00     0.102 C 
ATOM     15  C   UNL d   1      32.181 -15.463  -0.188  0.00  0.00     0.103 C 
ATOM     16  O   UNL d   1      34.340 -15.041   0.310  0.00  0.00    -0.346 OA
ATOM     17  C   UNL d   1      30.876 -15.801  -0.103  0.00  0.00     0.056 C 
ATOM     18  O   UNL d   1      32.469 -15.224  -1.499  0.00  0.00    -0.346 OA
ATOM     19  C   UNL d   1      33.296 -16.303  -1.776  0.00  0.00     0.202 C 
ATOM     20  C   UNL d   1      34.577 -15.847  -1.085  0.00  0.00     0.202 C 
ENDBRANCH   8  11
ENDBRANCH   1   7
BRANCH   4  21
ATOM     21  S   UNL d   1      22.467 -17.978  -0.980  0.00  0.00     0.276 S 
ATOM     22  O   UNL d   1      21.835 -16.668  -1.183  0.00  0.00    -0.200 OA
ATOM     23  O   UNL d   1      22.520 -18.951  -2.023  0.00  0.00    -0.200 OA
BRANCH  21  24
ATOM     24  N   UNL d   1      21.805 -18.670   0.388  0.00  0.00    -0.109 N 
ATOM     25  H   UNL d   1      22.030 -18.383   1.325  0.00  0.00     0.198 HD
BRANCH  24  26
ATOM     26  C   UNL d   1      20.562 -19.299   0.252  0.00  0.00     0.735 A 
ATOM     27  N   UNL d   1      20.232 -20.165   1.222  0.00  0.00    -0.074 NA
ATOM     28  C   UNL d   1      19.066 -20.831   1.037  0.00  0.00     0.138 A 
ATOM     29  C   UNL d   1      18.284 -20.704  -0.089  0.00  0.00     0.040 A 
ATOM     30  C   UNL d   1      18.771 -19.844  -1.042  0.00  0.00     0.138 A 
ATOM     31  N   UNL d   1      19.905 -19.133  -0.895  0.00  0.00    -0.074 NA
ENDBRANCH  24  26
ENDBRANCH  21  24
ENDBRANCH   4  21
TORSDOF 5
ENDMDL
MODEL 9
REMARK VINA RESULT:   -30.387      4.859      5.896
REMARK INTER + INTRA:         -32.646
REMARK INTER:                 -31.878
REMARK INTRA:                  -0.768
REMARK CONF_INDEPENDENT:        1.492
REMARK UNBOUND:                -0.768
REMARK  5 active torsions:
REMARK  status: ('A' for Active; 'I' for Inactive)
REMARK       I    between atoms: C_2  and  N_3 
REMARK    1  A    between atoms: C_2  and  C_20 
REMARK    2  A    between atoms: N_3  and  C_4 
REMARK    3  A    between atoms: C_7  and  S_8 
REMARK    4  A    between atoms: S_8  and  N_11 
REMARK    5  A    between atoms: N_11  and  C_12 
ROOT
ATOM      1  C   UNL d   1      26.861 -16.101  -0.243  0.00  0.00     0.035 A 
ATOM      2  C   UNL d   1      25.923 -15.826  -1.242  0.00  0.00     0.031 A 
ATOM      3  C   UNL d   1      24.785 -16.657  -1.384  0.00  0.00     0.027 A 
ATOM      4  C   UNL d   1      24.611 -17.794  -0.567  0.00  0.00     0.080 A 
ATOM      5  C   UNL d   1      25.556 -18.073   0.408  0.00  0.00     0.027 A 
ATOM      6  C   UNL d   1      26.664 -17.238   0.551  0.00  0.00     0.031 A 
ENDROOT
BRANCH   1   7
ATOM      7  N   UNL d   1      27.957 -15.230   0.039  0.00  0.00    -0.323 N 
ATOM      8  C   UNL d   1      27.895 -14.375   1.137  0.00  0.00     0.256 C 
ATOM      9  O   UNL d   1      27.023 -14.456   1.993  0.00  0.00    -0.267 OA
ATOM     10  H   UNL d   1      28.827 -15.357  -0.456  0.00  0.00     0.169 HD
BRANCH   8  11
ATOM     11  C   UNL d   1      29.046 -13.508   1.494  0.00  0.00     0.035 C 
ATOM     12  C   UNL d   1      29.369 -12.144   1.476  0.00  0.00     0.020 C 
ATOM     13  C   UNL d   1      30.746 -11.687   1.837  0.00  0.00     0.040 C 
ATOM     14  C   UNL d   1      31.763 -12.640   2.152  0.00  0.00     0.102 C 
ATOM     15  C   UNL d   1      31.303 -13.892   1.954  0.00  0.00     0.103 C 
ATOM     16  O   UNL d   1      33.126 -12.682   2.502  0.00  0.00    -0.346 OA
ATOM     17  C   UNL d   1      30.038 -14.354   1.859  0.00  0.00     0.056 C 
ATOM     18  O   UNL d   1      32.116 -14.750   1.274  0.00  0.00    -0.346 OA
ATOM     19  C   UNL d   1      32.825 -15.311   2.326  0.00  0.00     0.202 C 
ATOM     20  C   UNL d   1      33.780 -14.166   2.651  0.00  0.00     0.202 C 
ENDBRANCH   8  11
ENDBRANCH   1   7
BRANCH   4  21
ATOM     21  S   UNL d   1      23.235 -18.910  -0.898  0.00  0.00     0.276 S 
ATOM     22  O   UNL d   1      23.125 -18.942  -2.362  0.00  0.00    -0.200 OA
ATOM     23  O   UNL d   1      23.521 -20.088  -0.145  0.00  0.00    -0.200 OA
BRANCH  21  24
ATOM     24  N   UNL d   1      21.859 -18.186  -0.286  0.00  0.00    -0.109 N 
ATOM     25  H   UNL d   1      21.598 -17.233  -0.475  0.00  0.00     0.198 HD
BRANCH  24  26
ATOM     26  C   UNL d   1      20.796 -19.024   0.069  0.00  0.00     0.735 A 
ATOM     27  N   UNL d   1      19.905 -19.285  -0.899  0.00  0.00    -0.074 NA
ATOM     28  C   UNL d   1      18.836 -20.028  -0.520  0.00  0.00     0.138 A 
ATOM     29  C   UNL d   1      18.613 -20.443   0.773  0.00  0.00     0.040 A 
ATOM     30  C   UNL d   1      19.560 -20.046   1.684  0.00  0.00     0.138 A 
ATOM     31  N   UNL d   1      20.658 -19.337   1.356  0.00  0.00    -0.074 NA
ENDBRANCH  24  26
ENDBRANCH  21  24
ENDBRANCH   4  21
TORSDOF 5
ENDMDL
