MODEL 1
REMARK VINA RESULT:    -7.743      0.000      0.000
REMARK INTER + INTRA:          -9.956
REMARK INTER:                  -8.936
REMARK INTRA:                  -1.020
REMARK CONF_INDEPENDENT:        1.193
REMARK UNBOUND:                -1.020
REMARK  4 active torsions:
REMARK  status: ('A' for Active; 'I' for Inactive)
REMARK       I    between atoms: C_2  and  N_4 
REMARK    1  A    between atoms: N_4  and  C_5 
REMARK    2  A    between atoms: C_7  and  C_8 
REMARK       I    between atoms: C_8  and  N_10 
REMARK    3  A    between atoms: N_10  and  C_11 
REMARK    4  A    between atoms: C_11  and  C_14 
ROOT
ATOM      1  C   UNL d   1      25.754 -14.968  -1.255  0.00  0.00     0.226 C 
ATOM      2  C   UNL d   1      26.538 -14.529  -0.070  0.00  0.00     0.089 C 
ATOM      3  N   UNL d   1      27.154 -14.209   0.870  0.00  0.00    -0.195 NA
ENDROOT
BRANCH   1   4
ATOM      4  N   UNL d   1      26.631 -15.062  -2.426  0.00  0.00    -0.336 N 
ATOM      5  C   UNL d   1      26.305 -14.980  -3.747  0.00  0.00     0.253 C 
ATOM      6  O   UNL d   1      25.153 -14.830  -4.130  0.00  0.00    -0.268 OA
ATOM      7  H   UNL d   1      27.584 -14.868  -2.257  0.00  0.00     0.164 HD
BRANCH   5   8
ATOM      8  C   UNL d   1      27.478 -15.072  -4.716  0.00  0.00     0.034 A 
ATOM      9  C   UNL d   1      27.599 -14.347  -5.922  0.00  0.00     0.047 A 
ATOM     10  C   UNL d   1      28.718 -14.449  -6.772  0.00  0.00     0.041 A 
ATOM     11  C   UNL d   1      29.751 -15.323  -6.415  0.00  0.00    -0.035 A 
ATOM     12  C   UNL d   1      29.644 -16.043  -5.207  0.00  0.00     0.010 A 
ATOM     13  C   UNL d   1      31.011 -15.444  -7.224  0.00  0.00     0.050 C 
ATOM     14  C   UNL d   1      28.525 -15.920  -4.373  0.00  0.00     0.017 A 
BRANCH  10  15
ATOM     15  N   UNL d   1      28.773 -13.673  -7.970  0.00  0.00    -0.327 N 
ATOM     16  C   UNL d   1      28.507 -12.308  -7.981  0.00  0.00     0.218 C 
ATOM     17  C   UNL d   1      28.658 -11.615  -9.318  0.00  0.00     0.117 C 
ATOM     18  O   UNL d   1      28.190 -11.655  -6.989  0.00  0.00    -0.274 OA
ATOM     19  H   UNL d   1      29.248 -14.075  -8.770  0.00  0.00     0.169 HD
ENDBRANCH  10  15
ENDBRANCH   5   8
ENDBRANCH   1   4
BRANCH   1  20
ATOM     20  C   UNL d   1      24.994 -16.296  -0.937  0.00  0.00    -0.016 A 
ATOM     21  C   UNL d   1      23.592 -16.321  -1.147  0.00  0.00     0.011 A 
ATOM     22  C   UNL d   1      22.819 -17.454  -0.848  0.00  0.00     0.001 A 
ATOM     23  C   UNL d   1      23.418 -18.599  -0.341  0.00  0.00     0.001 A 
ATOM     24  C   UNL d   1      24.787 -18.616  -0.145  0.00  0.00     0.007 A 
ATOM     25  C   UNL d   1      25.577 -17.493  -0.434  0.00  0.00    -0.053 A 
ATOM     26  C   UNL d   1      27.029 -17.686  -0.149  0.00  0.00     0.049 C 
ENDBRANCH   1  20
TORSDOF 4
ENDMDL
MODEL 2
REMARK VINA RESULT:    -7.728      2.849      7.706
REMARK INTER + INTRA:          -9.999
REMARK INTER:                  -8.921
REMARK INTRA:                  -1.078
REMARK CONF_INDEPENDENT:        1.193
REMARK UNBOUND:                -1.078
REMARK  4 active torsions:
REMARK  status: ('A' for Active; 'I' for Inactive)
REMARK       I    between atoms: C_2  and  N_4 
REMARK    1  A    between atoms: N_4  and  C_5 
REMARK    2  A    between atoms: C_7  and  C_8 
REMARK       I    between atoms: C_8  and  N_10 
REMARK    3  A    between atoms: N_10  and  C_11 
REMARK    4  A    between atoms: C_11  and  C_14 
ROOT
ATOM      1  C   UNL d   1      26.689 -13.460  -5.366  0.00  0.00     0.226 C 
ATOM      2  C   UNL d   1      28.096 -13.558  -5.841  0.00  0.00     0.089 C 
ATOM      3  N   UNL d   1      29.205 -13.612  -6.202  0.00  0.00    -0.195 NA
ENDROOT
BRANCH   1   4
ATOM      4  N   UNL d   1      26.490 -14.343  -4.213  0.00  0.00    -0.336 N 
ATOM      5  C   UNL d   1      25.344 -14.606  -3.525  0.00  0.00     0.253 C 
ATOM      6  O   UNL d   1      24.276 -14.076  -3.803  0.00  0.00    -0.268 OA
ATOM      7  H   UNL d   1      27.173 -15.047  -4.096  0.00  0.00     0.164 HD
BRANCH   5   8
ATOM      8  C   UNL d   1      25.477 -15.621  -2.395  0.00  0.00     0.034 A 
ATOM      9  C   UNL d   1      24.401 -16.264  -1.744  0.00  0.00     0.047 A 
ATOM     10  C   UNL d   1      24.580 -17.214  -0.720  0.00  0.00     0.041 A 
ATOM     11  C   UNL d   1      25.883 -17.524  -0.315  0.00  0.00    -0.035 A 
ATOM     12  C   UNL d   1      26.964 -16.895  -0.966  0.00  0.00     0.010 A 
ATOM     13  C   UNL d   1      26.170 -18.575   0.719  0.00  0.00     0.050 C 
ATOM     14  C   UNL d   1      26.763 -15.957  -1.988  0.00  0.00     0.017 A 
BRANCH  10  15
ATOM     15  N   UNL d   1      23.441 -17.832  -0.118  0.00  0.00    -0.327 N 
ATOM     16  C   UNL d   1      22.593 -18.675  -0.829  0.00  0.00     0.218 C 
ATOM     17  C   UNL d   1      21.461 -19.294  -0.039  0.00  0.00     0.117 C 
ATOM     18  O   UNL d   1      22.728 -18.951  -2.019  0.00  0.00    -0.274 OA
ATOM     19  H   UNL d   1      23.395 -17.848   0.895  0.00  0.00     0.169 HD
ENDBRANCH  10  15
ENDBRANCH   5   8
ENDBRANCH   1   4
BRANCH   1  20
ATOM     20  C   UNL d   1      26.319 -11.970  -5.081  0.00  0.00    -0.016 A 
ATOM     21  C   UNL d   1      25.840 -11.189  -6.164  0.00  0.00     0.011 A 
ATOM     22  C   UNL d   1      25.524  -9.829  -6.013  0.00  0.00     0.001 A 
ATOM     23  C   UNL d   1      25.666  -9.208  -4.780  0.00  0.00     0.001 A 
ATOM     24  C   UNL d   1      26.109  -9.945  -3.698  0.00  0.00     0.007 A 
ATOM     25  C   UNL d   1      26.433 -11.305  -3.828  0.00  0.00    -0.053 A 
ATOM     26  C   UNL d   1      26.907 -11.937  -2.561  0.00  0.00     0.049 C 
ENDBRANCH   1  20
TORSDOF 4
ENDMDL
MODEL 3
REMARK VINA RESULT:    -7.473      4.404      7.968
REMARK INTER + INTRA:          -9.644
REMARK INTER:                  -8.666
REMARK INTRA:                  -0.978
REMARK CONF_INDEPENDENT:        1.193
REMARK UNBOUND:                -0.978
REMARK  4 active torsions:
REMARK  status: ('A' for Active; 'I' for Inactive)
REMARK       I    between atoms: C_2  and  N_4 
REMARK    1  A    between atoms: N_4  and  C_5 
REMARK    2  A    between atoms: C_7  and  C_8 
REMARK       I    between atoms: C_8  and  N_10 
REMARK    3  A    between atoms: N_10  and  C_11 
REMARK    4  A    between atoms: C_11  and  C_14 
ROOT
ATOM      1  C   UNL d   1      25.684 -15.726  -1.460  0.00  0.00     0.226 C 
ATOM      2  C   UNL d   1      25.186 -14.937  -2.619  0.00  0.00     0.089 C 
ATOM      3  N   UNL d   1      24.769 -14.324  -3.521  0.00  0.00    -0.195 NA
ENDROOT
BRANCH   1   4
ATOM      4  N   UNL d   1      26.056 -14.824  -0.366  0.00  0.00    -0.336 N 
ATOM      5  C   UNL d   1      27.009 -14.991   0.594  0.00  0.00     0.253 C 
ATOM      6  O   UNL d   1      27.697 -16.000   0.666  0.00  0.00    -0.268 OA
ATOM      7  H   UNL d   1      25.811 -13.876  -0.497  0.00  0.00     0.164 HD
BRANCH   5   8
ATOM      8  C   UNL d   1      27.172 -13.826   1.563  0.00  0.00     0.034 A 
ATOM      9  C   UNL d   1      27.820 -13.891   2.817  0.00  0.00     0.047 A 
ATOM     10  C   UNL d   1      27.966 -12.777   3.665  0.00  0.00     0.041 A 
ATOM     11  C   UNL d   1      27.429 -11.550   3.258  0.00  0.00    -0.035 A 
ATOM     12  C   UNL d   1      26.790 -11.472   2.003  0.00  0.00     0.010 A 
ATOM     13  C   UNL d   1      27.598 -10.295   4.065  0.00  0.00     0.050 C 
ATOM     14  C   UNL d   1      26.663 -12.593   1.171  0.00  0.00     0.017 A 
BRANCH  10  15
ATOM     15  N   UNL d   1      28.646 -12.918   4.914  0.00  0.00    -0.327 N 
ATOM     16  C   UNL d   1      28.501 -14.049   5.711  0.00  0.00     0.218 C 
ATOM     17  C   UNL d   1      29.326 -14.074   6.980  0.00  0.00     0.117 C 
ATOM     18  O   UNL d   1      27.780 -15.005   5.435  0.00  0.00    -0.274 OA
ATOM     19  H   UNL d   1      29.426 -12.298   5.099  0.00  0.00     0.169 HD
ENDBRANCH  10  15
ENDBRANCH   5   8
ENDBRANCH   1   4
BRANCH   1  20
ATOM     20  C   UNL d   1      24.631 -16.804  -1.048  0.00  0.00    -0.016 A 
ATOM     21  C   UNL d   1      23.262 -16.509  -1.270  0.00  0.00     0.011 A 
ATOM     22  C   UNL d   1      22.243 -17.397  -0.892  0.00  0.00     0.001 A 
ATOM     23  C   UNL d   1      22.555 -18.609  -0.291  0.00  0.00     0.001 A 
ATOM     24  C   UNL d   1      23.881 -18.938  -0.080  0.00  0.00     0.007 A 
ATOM     25  C   UNL d   1      24.915 -18.063  -0.448  0.00  0.00    -0.053 A 
ATOM     26  C   UNL d   1      26.281 -18.575  -0.133  0.00  0.00     0.049 C 
ENDBRANCH   1  20
TORSDOF 4
ENDMDL
MODEL 4
REMARK VINA RESULT:    -7.465      4.193      6.777
REMARK INTER + INTRA:          -9.647
REMARK INTER:                  -8.658
REMARK INTRA:                  -0.989
REMARK CONF_INDEPENDENT:        1.193
REMARK UNBOUND:                -0.989
REMARK  4 active torsions:
REMARK  status: ('A' for Active; 'I' for Inactive)
REMARK       I    between atoms: C_2  and  N_4 
REMARK    1  A    between atoms: N_4  and  C_5 
REMARK    2  A    between atoms: C_7  and  C_8 
REMARK       I    between atoms: C_8  and  N_10 
REMARK    3  A    between atoms: N_10  and  C_11 
REMARK    4  A    between atoms: C_11  and  C_14 
ROOT
ATOM      1  C   UNL d   1      25.958 -15.500  -1.580  0.00  0.00     0.226 C 
ATOM      2  C   UNL d   1      25.491 -14.928  -2.871  0.00  0.00     0.089 C 
ATOM      3  N   UNL d   1      25.099 -14.485  -3.878  0.00  0.00    -0.195 NA
ENDROOT
BRANCH   1   4
ATOM      4  N   UNL d   1      26.244 -14.420  -0.631  0.00  0.00    -0.336 N 
ATOM      5  C   UNL d   1      26.917 -14.477   0.553  0.00  0.00     0.253 C 
ATOM      6  O   UNL d   1      27.372 -15.522   0.998  0.00  0.00    -0.268 OA
ATOM      7  H   UNL d   1      26.215 -13.507  -1.007  0.00  0.00     0.164 HD
BRANCH   5   8
ATOM      8  C   UNL d   1      27.080 -13.146   1.278  0.00  0.00     0.034 A 
ATOM      9  C   UNL d   1      27.034 -11.873   0.668  0.00  0.00     0.047 A 
ATOM     10  C   UNL d   1      27.166 -10.670   1.389  0.00  0.00     0.041 A 
ATOM     11  C   UNL d   1      27.369 -10.738   2.772  0.00  0.00    -0.035 A 
ATOM     12  C   UNL d   1      27.405 -12.004   3.391  0.00  0.00     0.010 A 
ATOM     13  C   UNL d   1      27.451  -9.507   3.629  0.00  0.00     0.050 C 
ATOM     14  C   UNL d   1      27.265 -13.188   2.655  0.00  0.00     0.017 A 
BRANCH  10  15
ATOM     15  N   UNL d   1      27.096  -9.419   0.702  0.00  0.00    -0.327 N 
ATOM     16  C   UNL d   1      26.079  -8.500   0.939  0.00  0.00     0.218 C 
ATOM     17  C   UNL d   1      26.172  -7.199   0.172  0.00  0.00     0.117 C 
ATOM     18  O   UNL d   1      25.155  -8.677   1.730  0.00  0.00    -0.274 OA
ATOM     19  H   UNL d   1      27.929  -9.099   0.220  0.00  0.00     0.169 HD
ENDBRANCH  10  15
ENDBRANCH   5   8
ENDBRANCH   1   4
BRANCH   1  20
ATOM     20  C   UNL d   1      24.923 -16.541  -1.045  0.00  0.00    -0.016 A 
ATOM     21  C   UNL d   1      23.547 -16.280  -1.270  0.00  0.00     0.011 A 
ATOM     22  C   UNL d   1      22.544 -17.135  -0.788  0.00  0.00     0.001 A 
ATOM     23  C   UNL d   1      22.878 -18.279  -0.077  0.00  0.00     0.001 A 
ATOM     24  C   UNL d   1      24.211 -18.575   0.141  0.00  0.00     0.007 A 
ATOM     25  C   UNL d   1      25.229 -17.732  -0.329  0.00  0.00    -0.053 A 
ATOM     26  C   UNL d   1      26.605 -18.200   0.009  0.00  0.00     0.049 C 
ENDBRANCH   1  20
TORSDOF 4
ENDMDL
MODEL 5
REMARK VINA RESULT:    -7.441      3.599      7.891
REMARK INTER + INTRA:          -9.541
REMARK INTER:                  -8.634
REMARK INTRA:                  -0.907
REMARK CONF_INDEPENDENT:        1.193
REMARK UNBOUND:                -0.907
REMARK  4 active torsions:
REMARK  status: ('A' for Active; 'I' for Inactive)
REMARK       I    between atoms: C_2  and  N_4 
REMARK    1  A    between atoms: N_4  and  C_5 
REMARK    2  A    between atoms: C_7  and  C_8 
REMARK       I    between atoms: C_8  and  N_10 
REMARK    3  A    between atoms: N_10  and  C_11 
REMARK    4  A    between atoms: C_11  and  C_14 
ROOT
ATOM      1  C   UNL d   1      25.589 -11.966  -3.952  0.00  0.00     0.226 C 
ATOM      2  C   UNL d   1      26.390 -12.203  -5.183  0.00  0.00     0.089 C 
ATOM      3  N   UNL d   1      27.039 -12.374  -6.138  0.00  0.00    -0.195 NA
ENDROOT
BRANCH   1   4
ATOM      4  N   UNL d   1      25.600 -13.167  -3.112  0.00  0.00    -0.336 N 
ATOM      5  C   UNL d   1      25.223 -14.437  -3.430  0.00  0.00     0.253 C 
ATOM      6  O   UNL d   1      24.781 -14.734  -4.532  0.00  0.00    -0.268 OA
ATOM      7  H   UNL d   1      26.210 -13.135  -2.336  0.00  0.00     0.164 HD
BRANCH   5   8
ATOM      8  C   UNL d   1      25.409 -15.471  -2.325  0.00  0.00     0.034 A 
ATOM      9  C   UNL d   1      24.472 -16.468  -1.975  0.00  0.00     0.047 A 
ATOM     10  C   UNL d   1      24.703 -17.417  -0.960  0.00  0.00     0.041 A 
ATOM     11  C   UNL d   1      25.909 -17.359  -0.251  0.00  0.00    -0.035 A 
ATOM     12  C   UNL d   1      26.854 -16.373  -0.601  0.00  0.00     0.010 A 
ATOM     13  C   UNL d   1      26.269 -18.371   0.798  0.00  0.00     0.050 C 
ATOM     14  C   UNL d   1      26.606 -15.443  -1.620  0.00  0.00     0.017 A 
BRANCH  10  15
ATOM     15  N   UNL d   1      23.712 -18.405  -0.672  0.00  0.00    -0.327 N 
ATOM     16  C   UNL d   1      22.354 -18.105  -0.644  0.00  0.00     0.218 C 
ATOM     17  C   UNL d   1      21.424 -19.269  -0.375  0.00  0.00     0.117 C 
ATOM     18  O   UNL d   1      21.886 -16.986  -0.845  0.00  0.00    -0.274 OA
ATOM     19  H   UNL d   1      23.987 -19.379  -0.729  0.00  0.00     0.169 HD
ENDBRANCH  10  15
ENDBRANCH   5   8
ENDBRANCH   1   4
BRANCH   1  20
ATOM     20  C   UNL d   1      26.096 -10.685  -3.216  0.00  0.00    -0.016 A 
ATOM     21  C   UNL d   1      27.006 -10.857  -2.142  0.00  0.00     0.011 A 
ATOM     22  C   UNL d   1      27.482  -9.769  -1.393  0.00  0.00     0.001 A 
ATOM     23  C   UNL d   1      27.074  -8.477  -1.696  0.00  0.00     0.001 A 
ATOM     24  C   UNL d   1      26.205  -8.271  -2.751  0.00  0.00     0.007 A 
ATOM     25  C   UNL d   1      25.715  -9.345  -3.510  0.00  0.00    -0.053 A 
ATOM     26  C   UNL d   1      24.779  -8.939  -4.598  0.00  0.00     0.049 C 
ENDBRANCH   1  20
TORSDOF 4
ENDMDL
MODEL 6
REMARK VINA RESULT:    -7.211      1.999      3.243
REMARK INTER + INTRA:          -9.477
REMARK INTER:                  -8.404
REMARK INTRA:                  -1.072
REMARK CONF_INDEPENDENT:        1.193
REMARK UNBOUND:                -1.072
REMARK  4 active torsions:
REMARK  status: ('A' for Active; 'I' for Inactive)
REMARK       I    between atoms: C_2  and  N_4 
REMARK    1  A    between atoms: N_4  and  C_5 
REMARK    2  A    between atoms: C_7  and  C_8 
REMARK       I    between atoms: C_8  and  N_10 
REMARK    3  A    between atoms: N_10  and  C_11 
REMARK    4  A    between atoms: C_11  and  C_14 
ROOT
ATOM      1  C   UNL d   1      25.648 -14.953  -1.385  0.00  0.00     0.226 C 
ATOM      2  C   UNL d   1      26.296 -14.373  -0.177  0.00  0.00     0.089 C 
ATOM      3  N   UNL d   1      26.805 -13.944   0.782  0.00  0.00    -0.195 NA
ENDROOT
BRANCH   1   4
ATOM      4  N   UNL d   1      26.637 -15.108  -2.455  0.00  0.00    -0.336 N 
ATOM      5  C   UNL d   1      26.453 -15.051  -3.804  0.00  0.00     0.253 C 
ATOM      6  O   UNL d   1      25.354 -14.870  -4.310  0.00  0.00    -0.268 OA
ATOM      7  H   UNL d   1      27.574 -14.944  -2.192  0.00  0.00     0.164 HD
BRANCH   5   8
ATOM      8  C   UNL d   1      27.716 -15.209  -4.643  0.00  0.00     0.034 A 
ATOM      9  C   UNL d   1      28.791 -16.076  -4.346  0.00  0.00     0.047 A 
ATOM     10  C   UNL d   1      29.926 -16.203  -5.170  0.00  0.00     0.041 A 
ATOM     11  C   UNL d   1      30.004 -15.421  -6.328  0.00  0.00    -0.035 A 
ATOM     12  C   UNL d   1      28.931 -14.561  -6.639  0.00  0.00     0.010 A 
ATOM     13  C   UNL d   1      31.143 -15.542  -7.299  0.00  0.00     0.050 C 
ATOM     14  C   UNL d   1      27.807 -14.456  -5.808  0.00  0.00     0.017 A 
BRANCH  10  15
ATOM     15  N   UNL d   1      30.968 -17.112  -4.809  0.00  0.00    -0.327 N 
ATOM     16  C   UNL d   1      30.939 -18.454  -5.175  0.00  0.00     0.218 C 
ATOM     17  C   UNL d   1      32.140 -19.278  -4.763  0.00  0.00     0.117 C 
ATOM     18  O   UNL d   1      30.030 -18.979  -5.815  0.00  0.00    -0.274 OA
ATOM     19  H   UNL d   1      31.848 -16.720  -4.495  0.00  0.00     0.169 HD
ENDBRANCH  10  15
ENDBRANCH   5   8
ENDBRANCH   1   4
BRANCH   1  20
ATOM     20  C   UNL d   1      24.912 -16.281  -1.018  0.00  0.00    -0.016 A 
ATOM     21  C   UNL d   1      23.510 -16.338  -1.221  0.00  0.00     0.011 A 
ATOM     22  C   UNL d   1      22.758 -17.473  -0.879  0.00  0.00     0.001 A 
ATOM     23  C   UNL d   1      23.379 -18.588  -0.334  0.00  0.00     0.001 A 
ATOM     24  C   UNL d   1      24.748 -18.575  -0.143  0.00  0.00     0.007 A 
ATOM     25  C   UNL d   1      25.518 -17.449  -0.475  0.00  0.00    -0.053 A 
ATOM     26  C   UNL d   1      26.974 -17.607  -0.188  0.00  0.00     0.049 C 
ENDBRANCH   1  20
TORSDOF 4
ENDMDL
MODEL 7
REMARK VINA RESULT:    -7.128      2.330      7.641
REMARK INTER + INTRA:          -9.407
REMARK INTER:                  -8.321
REMARK INTRA:                  -1.086
REMARK CONF_INDEPENDENT:        1.193
REMARK UNBOUND:                -1.086
REMARK  4 active torsions:
REMARK  status: ('A' for Active; 'I' for Inactive)
REMARK       I    between atoms: C_2  and  N_4 
REMARK    1  A    between atoms: N_4  and  C_5 
REMARK    2  A    between atoms: C_7  and  C_8 
REMARK       I    between atoms: C_8  and  N_10 
REMARK    3  A    between atoms: N_10  and  C_11 
REMARK    4  A    between atoms: C_11  and  C_14 
ROOT
ATOM      1  C   UNL d   1      27.148 -12.212  -3.843  0.00  0.00     0.226 C 
ATOM      2  C   UNL d   1      26.043 -11.226  -3.987  0.00  0.00     0.089 C 
ATOM      3  N   UNL d   1      25.172 -10.461  -4.126  0.00  0.00    -0.195 NA
ENDROOT
BRANCH   1   4
ATOM      4  N   UNL d   1      26.700 -13.345  -3.028  0.00  0.00    -0.336 N 
ATOM      5  C   UNL d   1      25.656 -14.194  -3.243  0.00  0.00     0.253 C 
ATOM      6  O   UNL d   1      24.906 -14.081  -4.203  0.00  0.00    -0.268 OA
ATOM      7  H   UNL d   1      27.382 -13.727  -2.424  0.00  0.00     0.164 HD
BRANCH   5   8
ATOM      8  C   UNL d   1      25.495 -15.307  -2.214  0.00  0.00     0.034 A 
ATOM      9  C   UNL d   1      24.264 -15.849  -1.783  0.00  0.00     0.047 A 
ATOM     10  C   UNL d   1      24.171 -16.897  -0.846  0.00  0.00     0.041 A 
ATOM     11  C   UNL d   1      25.352 -17.414  -0.301  0.00  0.00    -0.035 A 
ATOM     12  C   UNL d   1      26.586 -16.886  -0.733  0.00  0.00     0.010 A 
ATOM     13  C   UNL d   1      25.352 -18.575   0.651  0.00  0.00     0.050 C 
ATOM     14  C   UNL d   1      26.655 -15.848  -1.672  0.00  0.00     0.017 A 
BRANCH  10  15
ATOM     15  N   UNL d   1      22.888 -17.402  -0.469  0.00  0.00    -0.327 N 
ATOM     16  C   UNL d   1      22.313 -18.503  -1.095  0.00  0.00     0.218 C 
ATOM     17  C   UNL d   1      20.975 -18.950  -0.549  0.00  0.00     0.117 C 
ATOM     18  O   UNL d   1      22.832 -19.124  -2.021  0.00  0.00    -0.274 OA
ATOM     19  H   UNL d   1      22.508 -17.104   0.421  0.00  0.00     0.169 HD
ENDBRANCH  10  15
ENDBRANCH   5   8
ENDBRANCH   1   4
BRANCH   1  20
ATOM     20  C   UNL d   1      27.686 -12.630  -5.249  0.00  0.00    -0.016 A 
ATOM     21  C   UNL d   1      27.563 -11.694  -6.308  0.00  0.00     0.011 A 
ATOM     22  C   UNL d   1      27.978 -11.998  -7.614  0.00  0.00     0.001 A 
ATOM     23  C   UNL d   1      28.534 -13.235  -7.905  0.00  0.00     0.001 A 
ATOM     24  C   UNL d   1      28.689 -14.163  -6.892  0.00  0.00     0.007 A 
ATOM     25  C   UNL d   1      28.278 -13.881  -5.579  0.00  0.00    -0.053 A 
ATOM     26  C   UNL d   1      28.508 -15.001  -4.620  0.00  0.00     0.049 C 
ENDBRANCH   1  20
TORSDOF 4
ENDMDL
MODEL 8
REMARK VINA RESULT:    -7.098      4.859      8.544
REMARK INTER + INTRA:          -9.412
REMARK INTER:                  -8.291
REMARK INTRA:                  -1.121
REMARK CONF_INDEPENDENT:        1.193
REMARK UNBOUND:                -1.121
REMARK  4 active torsions:
REMARK  status: ('A' for Active; 'I' for Inactive)
REMARK       I    between atoms: C_2  and  N_4 
REMARK    1  A    between atoms: N_4  and  C_5 
REMARK    2  A    between atoms: C_7  and  C_8 
REMARK       I    between atoms: C_8  and  N_10 
REMARK    3  A    between atoms: N_10  and  C_11 
REMARK    4  A    between atoms: C_11  and  C_14 
ROOT
ATOM      1  C   UNL d   1      28.105 -15.930  -0.020  0.00  0.00     0.226 C 
ATOM      2  C   UNL d   1      28.623 -15.022  -1.078  0.00  0.00     0.089 C 
ATOM      3  N   UNL d   1      29.005 -14.303  -1.915  0.00  0.00    -0.195 NA
ENDROOT
BRANCH   1   4
ATOM      4  N   UNL d   1      28.180 -15.269   1.286  0.00  0.00    -0.336 N 
ATOM      5  C   UNL d   1      27.414 -14.254   1.775  0.00  0.00     0.253 C 
ATOM      6  O   UNL d   1      26.525 -13.728   1.120  0.00  0.00    -0.268 OA
ATOM      7  H   UNL d   1      28.621 -15.790   1.999  0.00  0.00     0.164 HD
BRANCH   5   8
ATOM      8  C   UNL d   1      27.728 -13.828   3.205  0.00  0.00     0.034 A 
ATOM      9  C   UNL d   1      27.652 -12.508   3.700  0.00  0.00     0.047 A 
ATOM     10  C   UNL d   1      27.929 -12.171   5.039  0.00  0.00     0.041 A 
ATOM     11  C   UNL d   1      28.317 -13.188   5.918  0.00  0.00    -0.035 A 
ATOM     12  C   UNL d   1      28.385 -14.512   5.436  0.00  0.00     0.010 A 
ATOM     13  C   UNL d   1      28.564 -12.933   7.377  0.00  0.00     0.050 C 
ATOM     14  C   UNL d   1      28.098 -14.825   4.101  0.00  0.00     0.017 A 
BRANCH  10  15
ATOM     15  N   UNL d   1      27.817 -10.812   5.468  0.00  0.00    -0.327 N 
ATOM     16  C   UNL d   1      28.817  -9.876   5.228  0.00  0.00     0.218 C 
ATOM     17  C   UNL d   1      28.530  -8.466   5.698  0.00  0.00     0.117 C 
ATOM     18  O   UNL d   1      29.875 -10.122   4.652  0.00  0.00    -0.274 OA
ATOM     19  H   UNL d   1      26.899 -10.476   5.732  0.00  0.00     0.169 HD
ENDBRANCH  10  15
ENDBRANCH   5   8
ENDBRANCH   1   4
BRANCH   1  20
ATOM     20  C   UNL d   1      26.668 -16.422  -0.388  0.00  0.00    -0.016 A 
ATOM     21  C   UNL d   1      25.906 -15.627  -1.281  0.00  0.00     0.011 A 
ATOM     22  C   UNL d   1      24.590 -15.965  -1.635  0.00  0.00     0.001 A 
ATOM     23  C   UNL d   1      23.997 -17.109  -1.118  0.00  0.00     0.001 A 
ATOM     24  C   UNL d   1      24.719 -17.918  -0.262  0.00  0.00     0.007 A 
ATOM     25  C   UNL d   1      26.035 -17.597   0.107  0.00  0.00    -0.053 A 
ATOM     26  C   UNL d   1      26.655 -18.575   1.048  0.00  0.00     0.049 C 
ENDBRANCH   1  20
TORSDOF 4
ENDMDL
MODEL 9
REMARK VINA RESULT:    -6.968      5.030      8.459
REMARK INTER + INTRA:          -9.290
REMARK INTER:                  -8.162
REMARK INTRA:                  -1.128
REMARK CONF_INDEPENDENT:        1.193
REMARK UNBOUND:                -1.128
REMARK  4 active torsions:
REMARK  status: ('A' for Active; 'I' for Inactive)
REMARK       I    between atoms: C_2  and  N_4 
REMARK    1  A    between atoms: N_4  and  C_5 
REMARK    2  A    between atoms: C_7  and  C_8 
REMARK       I    between atoms: C_8  and  N_10 
REMARK    3  A    between atoms: N_10  and  C_11 
REMARK    4  A    between atoms: C_11  and  C_14 
ROOT
ATOM      1  C   UNL d   1      27.960 -15.906  -0.364  0.00  0.00     0.226 C 
ATOM      2  C   UNL d   1      28.069 -14.779  -1.330  0.00  0.00     0.089 C 
ATOM      3  N   UNL d   1      28.128 -13.892  -2.087  0.00  0.00    -0.195 NA
ENDROOT
BRANCH   1   4
ATOM      4  N   UNL d   1      28.341 -15.451   0.976  0.00  0.00    -0.336 N 
ATOM      5  C   UNL d   1      27.769 -14.483   1.746  0.00  0.00     0.253 C 
ATOM      6  O   UNL d   1      26.814 -13.820   1.363  0.00  0.00    -0.268 OA
ATOM      7  H   UNL d   1      28.869 -16.095   1.507  0.00  0.00     0.164 HD
BRANCH   5   8
ATOM      8  C   UNL d   1      28.388 -14.292   3.126  0.00  0.00     0.034 A 
ATOM      9  C   UNL d   1      29.516 -13.491   3.411  0.00  0.00     0.047 A 
ATOM     10  C   UNL d   1      30.035 -13.328   4.710  0.00  0.00     0.041 A 
ATOM     11  C   UNL d   1      29.417 -14.007   5.767  0.00  0.00    -0.035 A 
ATOM     12  C   UNL d   1      28.284 -14.800   5.494  0.00  0.00     0.010 A 
ATOM     13  C   UNL d   1      29.859 -13.838   7.192  0.00  0.00     0.050 C 
ATOM     14  C   UNL d   1      27.780 -14.942   4.193  0.00  0.00     0.017 A 
BRANCH  10  15
ATOM     15  N   UNL d   1      31.172 -12.490   4.921  0.00  0.00    -0.327 N 
ATOM     16  C   UNL d   1      31.051 -11.170   5.344  0.00  0.00     0.218 C 
ATOM     17  C   UNL d   1      32.348 -10.427   5.574  0.00  0.00     0.117 C 
ATOM     18  O   UNL d   1      29.979 -10.606   5.557  0.00  0.00    -0.274 OA
ATOM     19  H   UNL d   1      32.079 -12.936   4.998  0.00  0.00     0.169 HD
ENDBRANCH  10  15
ENDBRANCH   5   8
ENDBRANCH   1   4
BRANCH   1  20
ATOM     20  C   UNL d   1      26.532 -16.534  -0.427  0.00  0.00    -0.016 A 
ATOM     21  C   UNL d   1      25.531 -15.829  -1.144  0.00  0.00     0.011 A 
ATOM     22  C   UNL d   1      24.208 -16.294  -1.217  0.00  0.00     0.001 A 
ATOM     23  C   UNL d   1      23.843 -17.477  -0.589  0.00  0.00     0.001 A 
ATOM     24  C   UNL d   1      24.799 -18.200   0.099  0.00  0.00     0.007 A 
ATOM     25  C   UNL d   1      26.126 -17.752   0.188  0.00  0.00    -0.053 A 
ATOM     26  C   UNL d   1      27.016 -18.651   0.980  0.00  0.00     0.049 C 
ENDBRANCH   1  20
TORSDOF 4
ENDMDL
