MODEL 1
REMARK VINA RESULT:   -11.237      0.000      0.000
REMARK INTER + INTRA:         -13.925
REMARK INTER:                 -12.729
REMARK INTRA:                  -1.196
REMARK CONF_INDEPENDENT:        1.492
REMARK UNBOUND:                -1.196
REMARK  5 active torsions:
REMARK  status: ('A' for Active; 'I' for Inactive)
REMARK    1  A    between atoms: C_2  and  C_12 
REMARK    2  A    between atoms: C_2  and  O_3 
REMARK    3  A    between atoms: O_3  and  C_4 
REMARK       I    between atoms: C_12  and  N_14 
REMARK    4  A    between atoms: N_14  and  C_15 
REMARK    5  A    between atoms: N_19  and  C_20 
ROOT
ATOM      1  C   UNL d   1      25.153 -15.989  -1.393  0.00  0.00     0.059 A 
ATOM      2  C   UNL d   1      23.724 -15.951  -1.463  0.00  0.00     0.067 A 
ATOM      3  C   UNL d   1      23.037 -17.092  -0.935  0.00  0.00     0.112 A 
ATOM      4  N   UNL d   1      21.722 -17.406  -0.893  0.00  0.00    -0.147 NA
ATOM      5  N   UNL d   1      21.701 -18.552  -0.148  0.00  0.00    -0.150 N 
ATOM      6  N   UNL d   1      22.900 -19.046   0.227  0.00  0.00    -0.147 NA
ATOM      7  C   UNL d   1      23.772 -18.191  -0.319  0.00  0.00     0.111 A 
ATOM      8  C   UNL d   1      25.168 -18.247  -0.285  0.00  0.00     0.062 A 
ATOM      9  C   UNL d   1      25.831 -17.117  -0.800  0.00  0.00     0.063 A 
ATOM     10 CL   UNL d   1      27.537 -17.105  -0.423  0.00  0.00    -0.082 Cl
ENDROOT
BRANCH   1  11
ATOM     11  N   UNL d   1      25.903 -14.864  -1.892  0.00  0.00    -0.323 N 
ATOM     12  C   UNL d   1      25.714 -14.388  -3.186  0.00  0.00     0.251 C 
ATOM     13  O   UNL d   1      24.799 -14.826  -3.901  0.00  0.00    -0.270 OA
ATOM     14  H   UNL d   1      26.404 -14.287  -1.225  0.00  0.00     0.169 HD
BRANCH  12  15
ATOM     15  C   UNL d   1      26.635 -13.240  -3.709  0.00  0.00     0.217 C 
ATOM     16  C   UNL d   1      26.096 -11.818  -3.490  0.00  0.00     0.050 C 
BRANCH  15  17
ATOM     17  O   UNL d   1      27.046 -13.421  -5.086  0.00  0.00    -0.335 OA
BRANCH  17  18
ATOM     18  C   UNL d   1      28.037 -14.333  -5.376  0.00  0.00     0.091 A 
ATOM     19  C   UNL d   1      28.355 -15.405  -4.535  0.00  0.00     0.040 A 
ATOM     20  C   UNL d   1      29.286 -16.371  -4.872  0.00  0.00     0.026 A 
ATOM     21  C   UNL d   1      30.003 -16.229  -6.042  0.00  0.00     0.035 A 
ATOM     22 CL   UNL d   1      31.207 -17.397  -6.408  0.00  0.00    -0.084 Cl
ATOM     23  C   UNL d   1      29.770 -15.141  -6.882  0.00  0.00     0.050 A 
ATOM     24  C   UNL d   1      28.777 -14.201  -6.560  0.00  0.00     0.069 A 
ATOM     25 CL   UNL d   1      28.529 -12.882  -7.650  0.00  0.00    -0.081 Cl
ENDBRANCH  17  18
ENDBRANCH  15  17
ENDBRANCH  12  15
ENDBRANCH   1  11
BRANCH   5  26
ATOM     26  C   UNL d   1      20.512 -19.244   0.228  0.00  0.00     0.079 A 
ATOM     27  C   UNL d   1      20.317 -19.598   1.575  0.00  0.00     0.033 A 
ATOM     28  C   UNL d   1      19.245 -20.420   1.944  0.00  0.00     0.002 A 
ATOM     29  C   UNL d   1      18.340 -20.859   0.980  0.00  0.00     0.000 A 
ATOM     30  C   UNL d   1      18.491 -20.451  -0.348  0.00  0.00     0.002 A 
ATOM     31  C   UNL d   1      19.588 -19.664  -0.735  0.00  0.00     0.033 A 
ENDBRANCH   5  26
TORSDOF 5
ENDMDL
MODEL 2
REMARK VINA RESULT:   -10.630      1.392      1.844
REMARK INTER + INTRA:         -13.224
REMARK INTER:                 -12.122
REMARK INTRA:                  -1.103
REMARK CONF_INDEPENDENT:        1.492
REMARK UNBOUND:                -1.103
REMARK  5 active torsions:
REMARK  status: ('A' for Active; 'I' for Inactive)
REMARK    1  A    between atoms: C_2  and  C_12 
REMARK    2  A    between atoms: C_2  and  O_3 
REMARK    3  A    between atoms: O_3  and  C_4 
REMARK       I    between atoms: C_12  and  N_14 
REMARK    4  A    between atoms: N_14  and  C_15 
REMARK    5  A    between atoms: N_19  and  C_20 
ROOT
ATOM      1  C   UNL d   1      25.738 -16.625  -1.725  0.00  0.00     0.059 A 
ATOM      2  C   UNL d   1      24.404 -16.929  -2.143  0.00  0.00     0.067 A 
ATOM      3  C   UNL d   1      23.606 -17.669  -1.212  0.00  0.00     0.112 A 
ATOM      4  N   UNL d   1      22.350 -18.164  -1.303  0.00  0.00    -0.147 NA
ATOM      5  N   UNL d   1      22.115 -18.647  -0.046  0.00  0.00    -0.150 N 
ATOM      6  N   UNL d   1      23.144 -18.577   0.826  0.00  0.00    -0.147 NA
ATOM      7  C   UNL d   1      24.128 -18.035   0.100  0.00  0.00     0.111 A 
ATOM      8  C   UNL d   1      25.444 -17.774   0.493  0.00  0.00     0.062 A 
ATOM      9  C   UNL d   1      26.215 -17.039  -0.427  0.00  0.00     0.063 A 
ATOM     10 CL   UNL d   1      27.716 -16.464   0.258  0.00  0.00    -0.082 Cl
ENDROOT
BRANCH   1  11
ATOM     11  N   UNL d   1      26.588 -15.868  -2.610  0.00  0.00    -0.323 N 
ATOM     12  C   UNL d   1      26.054 -14.962  -3.521  0.00  0.00     0.251 C 
ATOM     13  O   UNL d   1      24.847 -14.675  -3.505  0.00  0.00    -0.270 OA
ATOM     14  H   UNL d   1      27.581 -15.837  -2.410  0.00  0.00     0.169 HD
BRANCH  12  15
ATOM     15  C   UNL d   1      27.015 -14.254  -4.530  0.00  0.00     0.217 C 
ATOM     16  C   UNL d   1      26.485 -12.942  -5.126  0.00  0.00     0.050 C 
BRANCH  15  17
ATOM     17  O   UNL d   1      27.487 -15.134  -5.579  0.00  0.00    -0.335 OA
BRANCH  17  18
ATOM     18  C   UNL d   1      28.749 -14.942  -6.099  0.00  0.00     0.091 A 
ATOM     19  C   UNL d   1      29.004 -14.099  -7.186  0.00  0.00     0.040 A 
ATOM     20  C   UNL d   1      30.282 -13.836  -7.646  0.00  0.00     0.026 A 
ATOM     21  C   UNL d   1      31.348 -14.500  -7.076  0.00  0.00     0.035 A 
ATOM     22 CL   UNL d   1      32.918 -14.218  -7.709  0.00  0.00    -0.084 Cl
ATOM     23  C   UNL d   1      31.138 -15.402  -6.034  0.00  0.00     0.050 A 
ATOM     24  C   UNL d   1      29.843 -15.613  -5.533  0.00  0.00     0.069 A 
ATOM     25 CL   UNL d   1      29.652 -16.734  -4.231  0.00  0.00    -0.081 Cl
ENDBRANCH  17  18
ENDBRANCH  15  17
ENDBRANCH  12  15
ENDBRANCH   1  11
BRANCH   5  26
ATOM     26  C   UNL d   1      20.881 -19.222   0.376  0.00  0.00     0.079 A 
ATOM     27  C   UNL d   1      20.613 -19.349   1.751  0.00  0.00     0.033 A 
ATOM     28  C   UNL d   1      19.490 -20.058   2.193  0.00  0.00     0.002 A 
ATOM     29  C   UNL d   1      18.607 -20.610   1.267  0.00  0.00     0.000 A 
ATOM     30  C   UNL d   1      18.831 -20.426  -0.100  0.00  0.00     0.002 A 
ATOM     31  C   UNL d   1      19.979 -19.755  -0.552  0.00  0.00     0.033 A 
ENDBRANCH   5  26
TORSDOF 5
ENDMDL
MODEL 3
REMARK VINA RESULT:   -10.531      1.692      2.149
REMARK INTER + INTRA:         -13.118
REMARK INTER:                 -12.023
REMARK INTRA:                  -1.095
REMARK CONF_INDEPENDENT:        1.492
REMARK UNBOUND:                -1.095
REMARK  5 active torsions:
REMARK  status: ('A' for Active; 'I' for Inactive)
REMARK    1  A    between atoms: C_2  and  C_12 
REMARK    2  A    between atoms: C_2  and  O_3 
REMARK    3  A    between atoms: O_3  and  C_4 
REMARK       I    between atoms: C_12  and  N_14 
REMARK    4  A    between atoms: N_14  and  C_15 
REMARK    5  A    between atoms: N_19  and  C_20 
ROOT
ATOM      1  C   UNL d   1      25.059 -15.980  -1.359  0.00  0.00     0.059 A 
ATOM      2  C   UNL d   1      23.630 -15.942  -1.410  0.00  0.00     0.067 A 
ATOM      3  C   UNL d   1      22.951 -17.093  -0.897  0.00  0.00     0.112 A 
ATOM      4  N   UNL d   1      21.636 -17.410  -0.843  0.00  0.00    -0.147 NA
ATOM      5  N   UNL d   1      21.625 -18.570  -0.121  0.00  0.00    -0.150 N 
ATOM      6  N   UNL d   1      22.830 -19.071   0.228  0.00  0.00    -0.147 NA
ATOM      7  C   UNL d   1      23.694 -18.205  -0.312  0.00  0.00     0.111 A 
ATOM      8  C   UNL d   1      25.091 -18.260  -0.298  0.00  0.00     0.062 A 
ATOM      9  C   UNL d   1      25.746 -17.120  -0.799  0.00  0.00     0.063 A 
ATOM     10 CL   UNL d   1      27.457 -17.115  -0.445  0.00  0.00    -0.082 Cl
ENDROOT
BRANCH   1  11
ATOM     11  N   UNL d   1      25.803 -14.845  -1.846  0.00  0.00    -0.323 N 
ATOM     12  C   UNL d   1      25.939 -14.603  -3.209  0.00  0.00     0.251 C 
ATOM     13  O   UNL d   1      25.311 -15.273  -4.044  0.00  0.00    -0.270 OA
ATOM     14  H   UNL d   1      26.035 -14.107  -1.190  0.00  0.00     0.169 HD
BRANCH  12  15
ATOM     15  C   UNL d   1      26.850 -13.423  -3.678  0.00  0.00     0.217 C 
ATOM     16  C   UNL d   1      27.234 -12.419  -2.581  0.00  0.00     0.050 C 
BRANCH  15  17
ATOM     17  O   UNL d   1      26.334 -12.731  -4.841  0.00  0.00    -0.335 OA
BRANCH  17  18
ATOM     18  C   UNL d   1      27.137 -12.595  -5.951  0.00  0.00     0.091 A 
ATOM     19  C   UNL d   1      28.113 -13.534  -6.306  0.00  0.00     0.040 A 
ATOM     20  C   UNL d   1      28.854 -13.442  -7.470  0.00  0.00     0.026 A 
ATOM     21  C   UNL d   1      28.698 -12.332  -8.275  0.00  0.00     0.035 A 
ATOM     22 CL   UNL d   1      29.680 -12.198  -9.677  0.00  0.00    -0.084 Cl
ATOM     23  C   UNL d   1      27.788 -11.335  -7.930  0.00  0.00     0.050 A 
ATOM     24  C   UNL d   1      26.995 -11.471  -6.778  0.00  0.00     0.069 A 
ATOM     25 CL   UNL d   1      25.876 -10.205  -6.413  0.00  0.00    -0.081 Cl
ENDBRANCH  17  18
ENDBRANCH  15  17
ENDBRANCH  12  15
ENDBRANCH   1  11
BRANCH   5  26
ATOM     26  C   UNL d   1      20.442 -19.270   0.256  0.00  0.00     0.079 A 
ATOM     27  C   UNL d   1      20.274 -19.669   1.594  0.00  0.00     0.033 A 
ATOM     28  C   UNL d   1      19.207 -20.500   1.958  0.00  0.00     0.002 A 
ATOM     29  C   UNL d   1      18.280 -20.902   1.000  0.00  0.00     0.000 A 
ATOM     30  C   UNL d   1      18.404 -20.450  -0.317  0.00  0.00     0.002 A 
ATOM     31  C   UNL d   1      19.496 -19.654  -0.700  0.00  0.00     0.033 A 
ENDBRANCH   5  26
TORSDOF 5
ENDMDL
MODEL 4
REMARK VINA RESULT:   -10.403      2.223      3.870
REMARK INTER + INTRA:         -13.242
REMARK INTER:                 -11.895
REMARK INTRA:                  -1.347
REMARK CONF_INDEPENDENT:        1.492
REMARK UNBOUND:                -1.347
REMARK  5 active torsions:
REMARK  status: ('A' for Active; 'I' for Inactive)
REMARK    1  A    between atoms: C_2  and  C_12 
REMARK    2  A    between atoms: C_2  and  O_3 
REMARK    3  A    between atoms: O_3  and  C_4 
REMARK       I    between atoms: C_12  and  N_14 
REMARK    4  A    between atoms: N_14  and  C_15 
REMARK    5  A    between atoms: N_19  and  C_20 
ROOT
ATOM      1  C   UNL d   1      24.999 -15.979  -1.441  0.00  0.00     0.059 A 
ATOM      2  C   UNL d   1      23.569 -15.949  -1.464  0.00  0.00     0.067 A 
ATOM      3  C   UNL d   1      22.906 -17.098  -0.922  0.00  0.00     0.112 A 
ATOM      4  N   UNL d   1      21.595 -17.420  -0.839  0.00  0.00    -0.147 NA
ATOM      5  N   UNL d   1      21.605 -18.571  -0.101  0.00  0.00    -0.150 N 
ATOM      6  N   UNL d   1      22.819 -19.061   0.230  0.00  0.00    -0.147 NA
ATOM      7  C   UNL d   1      23.667 -18.197  -0.338  0.00  0.00     0.111 A 
ATOM      8  C   UNL d   1      25.064 -18.245  -0.351  0.00  0.00     0.062 A 
ATOM      9  C   UNL d   1      25.702 -17.108  -0.879  0.00  0.00     0.063 A 
ATOM     10 CL   UNL d   1      27.420 -17.089  -0.559  0.00  0.00    -0.082 Cl
ENDROOT
BRANCH   1  11
ATOM     11  N   UNL d   1      25.726 -14.846  -1.956  0.00  0.00    -0.323 N 
ATOM     12  C   UNL d   1      26.010 -14.729  -3.314  0.00  0.00     0.251 C 
ATOM     13  O   UNL d   1      25.527 -15.521  -4.139  0.00  0.00    -0.270 OA
ATOM     14  H   UNL d   1      25.834 -14.034  -1.360  0.00  0.00     0.169 HD
BRANCH  12  15
ATOM     15  C   UNL d   1      26.899 -13.538  -3.797  0.00  0.00     0.217 C 
ATOM     16  C   UNL d   1      28.413 -13.751  -3.651  0.00  0.00     0.050 C 
BRANCH  15  17
ATOM     17  O   UNL d   1      26.507 -12.266  -3.226  0.00  0.00    -0.335 OA
BRANCH  17  18
ATOM     18  C   UNL d   1      26.221 -11.213  -4.067  0.00  0.00     0.091 A 
ATOM     19  C   UNL d   1      25.907 -11.383  -5.420  0.00  0.00     0.040 A 
ATOM     20  C   UNL d   1      25.530 -10.334  -6.239  0.00  0.00     0.026 A 
ATOM     21  C   UNL d   1      25.550  -9.051  -5.734  0.00  0.00     0.035 A 
ATOM     22 CL   UNL d   1      25.151  -7.754  -6.786  0.00  0.00    -0.084 Cl
ATOM     23  C   UNL d   1      25.921  -8.822  -4.410  0.00  0.00     0.050 A 
ATOM     24  C   UNL d   1      26.241  -9.902  -3.570  0.00  0.00     0.069 A 
ATOM     25 CL   UNL d   1      26.680  -9.552  -1.935  0.00  0.00    -0.081 Cl
ENDBRANCH  17  18
ENDBRANCH  15  17
ENDBRANCH  12  15
ENDBRANCH   1  11
BRANCH   5  26
ATOM     26  C   UNL d   1      20.433 -19.272   0.308  0.00  0.00     0.079 A 
ATOM     27  C   UNL d   1      20.279 -19.629   1.660  0.00  0.00     0.033 A 
ATOM     28  C   UNL d   1      19.225 -20.459   2.060  0.00  0.00     0.002 A 
ATOM     29  C   UNL d   1      18.296 -20.905   1.122  0.00  0.00     0.000 A 
ATOM     30  C   UNL d   1      18.405 -20.495  -0.209  0.00  0.00     0.002 A 
ATOM     31  C   UNL d   1      19.484 -19.699  -0.627  0.00  0.00     0.033 A 
ENDBRANCH   5  26
TORSDOF 5
ENDMDL
MODEL 5
REMARK VINA RESULT:   -10.262      1.455      1.861
REMARK INTER + INTRA:         -13.505
REMARK INTER:                 -11.753
REMARK INTRA:                  -1.752
REMARK CONF_INDEPENDENT:        1.492
REMARK UNBOUND:                -1.752
REMARK  5 active torsions:
REMARK  status: ('A' for Active; 'I' for Inactive)
REMARK    1  A    between atoms: C_2  and  C_12 
REMARK    2  A    between atoms: C_2  and  O_3 
REMARK    3  A    between atoms: O_3  and  C_4 
REMARK       I    between atoms: C_12  and  N_14 
REMARK    4  A    between atoms: N_14  and  C_15 
REMARK    5  A    between atoms: N_19  and  C_20 
ROOT
ATOM      1  C   UNL d   1      24.925 -15.992  -1.351  0.00  0.00     0.059 A 
ATOM      2  C   UNL d   1      23.495 -15.951  -1.328  0.00  0.00     0.067 A 
ATOM      3  C   UNL d   1      22.839 -17.120  -0.825  0.00  0.00     0.112 A 
ATOM      4  N   UNL d   1      21.528 -17.437  -0.717  0.00  0.00    -0.147 NA
ATOM      5  N   UNL d   1      21.550 -18.624  -0.039  0.00  0.00    -0.150 N 
ATOM      6  N   UNL d   1      22.769 -19.138   0.230  0.00  0.00    -0.147 NA
ATOM      7  C   UNL d   1      23.607 -18.253  -0.320  0.00  0.00     0.111 A 
ATOM      8  C   UNL d   1      25.003 -18.310  -0.378  0.00  0.00     0.062 A 
ATOM      9  C   UNL d   1      25.635 -17.152  -0.868  0.00  0.00     0.063 A 
ATOM     10 CL   UNL d   1      27.362 -17.162  -0.600  0.00  0.00    -0.082 Cl
ENDROOT
BRANCH   1  11
ATOM     11  N   UNL d   1      25.646 -14.840  -1.831  0.00  0.00    -0.323 N 
ATOM     12  C   UNL d   1      25.245 -14.166  -2.981  0.00  0.00     0.251 C 
ATOM     13  O   UNL d   1      24.178 -14.449  -3.549  0.00  0.00    -0.270 OA
ATOM     14  H   UNL d   1      26.308 -14.394  -1.207  0.00  0.00     0.169 HD
BRANCH  12  15
ATOM     15  C   UNL d   1      26.131 -12.996  -3.516  0.00  0.00     0.217 C 
ATOM     16  C   UNL d   1      26.001 -12.713  -5.021  0.00  0.00     0.050 C 
BRANCH  15  17
ATOM     17  O   UNL d   1      27.524 -13.117  -3.140  0.00  0.00    -0.335 OA
BRANCH  17  18
ATOM     18  C   UNL d   1      28.210 -14.265  -3.472  0.00  0.00     0.091 A 
ATOM     19  C   UNL d   1      28.144 -14.852  -4.740  0.00  0.00     0.040 A 
ATOM     20  C   UNL d   1      28.905 -15.951  -5.098  0.00  0.00     0.026 A 
ATOM     21  C   UNL d   1      29.696 -16.556  -4.144  0.00  0.00     0.035 A 
ATOM     22 CL   UNL d   1      30.576 -17.962  -4.585  0.00  0.00    -0.084 Cl
ATOM     23  C   UNL d   1      29.743 -16.049  -2.845  0.00  0.00     0.050 A 
ATOM     24  C   UNL d   1      29.015 -14.895  -2.512  0.00  0.00     0.069 A 
ATOM     25 CL   UNL d   1      29.128 -14.310  -0.889  0.00  0.00    -0.081 Cl
ENDBRANCH  17  18
ENDBRANCH  15  17
ENDBRANCH  12  15
ENDBRANCH   1  11
BRANCH   5  26
ATOM     26  C   UNL d   1      20.385 -19.336   0.370  0.00  0.00     0.079 A 
ATOM     27  C   UNL d   1      20.211 -19.650   1.730  0.00  0.00     0.033 A 
ATOM     28  C   UNL d   1      19.167 -20.489   2.137  0.00  0.00     0.002 A 
ATOM     29  C   UNL d   1      18.267 -20.986   1.197  0.00  0.00     0.000 A 
ATOM     30  C   UNL d   1      18.395 -20.620  -0.145  0.00  0.00     0.002 A 
ATOM     31  C   UNL d   1      19.466 -19.815  -0.569  0.00  0.00     0.033 A 
ENDBRANCH   5  26
TORSDOF 5
ENDMDL
MODEL 6
REMARK VINA RESULT:    -9.914      1.927      2.847
REMARK INTER + INTRA:         -12.418
REMARK INTER:                 -11.406
REMARK INTRA:                  -1.013
REMARK CONF_INDEPENDENT:        1.492
REMARK UNBOUND:                -1.013
REMARK  5 active torsions:
REMARK  status: ('A' for Active; 'I' for Inactive)
REMARK    1  A    between atoms: C_2  and  C_12 
REMARK    2  A    between atoms: C_2  and  O_3 
REMARK    3  A    between atoms: O_3  and  C_4 
REMARK       I    between atoms: C_12  and  N_14 
REMARK    4  A    between atoms: N_14  and  C_15 
REMARK    5  A    between atoms: N_19  and  C_20 
ROOT
ATOM      1  C   UNL d   1      23.065 -16.674  -1.390  0.00  0.00     0.059 A 
ATOM      2  C   UNL d   1      21.662 -16.907  -1.545  0.00  0.00     0.067 A 
ATOM      3  C   UNL d   1      21.145 -18.081  -0.908  0.00  0.00     0.112 A 
ATOM      4  N   UNL d   1      19.905 -18.624  -0.898  0.00  0.00    -0.147 NA
ATOM      5  N   UNL d   1      20.025 -19.655  -0.008  0.00  0.00    -0.150 N 
ATOM      6  N   UNL d   1      21.259 -19.871   0.496  0.00  0.00    -0.147 NA
ATOM      7  C   UNL d   1      22.008 -18.945  -0.110  0.00  0.00     0.111 A 
ATOM      8  C   UNL d   1      23.386 -18.739   0.009  0.00  0.00     0.062 A 
ATOM      9  C   UNL d   1      23.880 -17.578  -0.615  0.00  0.00     0.063 A 
ATOM     10 CL   UNL d   1      25.523 -17.209  -0.148  0.00  0.00    -0.082 Cl
ENDROOT
BRANCH   1  11
ATOM     11  N   UNL d   1      23.645 -15.499  -1.993  0.00  0.00    -0.323 N 
ATOM     12  C   UNL d   1      24.798 -15.581  -2.768  0.00  0.00     0.251 C 
ATOM     13  O   UNL d   1      25.282 -16.681  -3.079  0.00  0.00    -0.270 OA
ATOM     14  H   UNL d   1      23.086 -14.654  -2.032  0.00  0.00     0.169 HD
BRANCH  12  15
ATOM     15  C   UNL d   1      25.443 -14.262  -3.300  0.00  0.00     0.217 C 
ATOM     16  C   UNL d   1      24.561 -13.010  -3.184  0.00  0.00     0.050 C 
BRANCH  15  17
ATOM     17  O   UNL d   1      25.973 -14.387  -4.642  0.00  0.00    -0.335 OA
BRANCH  17  18
ATOM     18  C   UNL d   1      27.060 -13.624  -5.008  0.00  0.00     0.091 A 
ATOM     19  C   UNL d   1      26.953 -12.484  -5.813  0.00  0.00     0.040 A 
ATOM     20  C   UNL d   1      28.032 -11.667  -6.102  0.00  0.00     0.026 A 
ATOM     21  C   UNL d   1      29.286 -12.036  -5.661  0.00  0.00     0.035 A 
ATOM     22 CL   UNL d   1      30.625 -11.051  -6.092  0.00  0.00    -0.084 Cl
ATOM     23  C   UNL d   1      29.455 -13.200  -4.913  0.00  0.00     0.050 A 
ATOM     24  C   UNL d   1      28.342 -13.987  -4.571  0.00  0.00     0.069 A 
ATOM     25 CL   UNL d   1      28.618 -15.411  -3.631  0.00  0.00    -0.081 Cl
ENDBRANCH  17  18
ENDBRANCH  15  17
ENDBRANCH  12  15
ENDBRANCH   1  11
BRANCH   5  26
ATOM     26  C   UNL d   1      18.949 -20.501   0.389  0.00  0.00     0.079 A 
ATOM     27  C   UNL d   1      17.949 -20.830  -0.544  0.00  0.00     0.033 A 
ATOM     28  C   UNL d   1      16.799 -21.518  -0.140  0.00  0.00     0.002 A 
ATOM     29  C   UNL d   1      16.658 -21.918   1.187  0.00  0.00     0.000 A 
ATOM     30  C   UNL d   1      17.681 -21.655   2.102  0.00  0.00     0.002 A 
ATOM     31  C   UNL d   1      18.818 -20.926   1.715  0.00  0.00     0.033 A 
ENDBRANCH   5  26
TORSDOF 5
ENDMDL
MODEL 7
REMARK VINA RESULT:    -9.853      2.366      3.822
REMARK INTER + INTRA:         -12.897
REMARK INTER:                 -11.345
REMARK INTRA:                  -1.553
REMARK CONF_INDEPENDENT:        1.492
REMARK UNBOUND:                -1.553
REMARK  5 active torsions:
REMARK  status: ('A' for Active; 'I' for Inactive)
REMARK    1  A    between atoms: C_2  and  C_12 
REMARK    2  A    between atoms: C_2  and  O_3 
REMARK    3  A    between atoms: O_3  and  C_4 
REMARK       I    between atoms: C_12  and  N_14 
REMARK    4  A    between atoms: N_14  and  C_15 
REMARK    5  A    between atoms: N_19  and  C_20 
ROOT
ATOM      1  C   UNL d   1      24.832 -15.980  -1.394  0.00  0.00     0.059 A 
ATOM      2  C   UNL d   1      23.401 -15.950  -1.352  0.00  0.00     0.067 A 
ATOM      3  C   UNL d   1      22.762 -17.122  -0.834  0.00  0.00     0.112 A 
ATOM      4  N   UNL d   1      21.456 -17.449  -0.707  0.00  0.00    -0.147 NA
ATOM      5  N   UNL d   1      21.497 -18.633  -0.024  0.00  0.00    -0.150 N 
ATOM      6  N   UNL d   1      22.724 -19.136   0.230  0.00  0.00    -0.147 NA
ATOM      7  C   UNL d   1      23.547 -18.247  -0.336  0.00  0.00     0.111 A 
ATOM      8  C   UNL d   1      24.942 -18.293  -0.413  0.00  0.00     0.062 A 
ATOM      9  C   UNL d   1      25.558 -17.132  -0.916  0.00  0.00     0.063 A 
ATOM     10 CL   UNL d   1      27.288 -17.127  -0.673  0.00  0.00    -0.082 Cl
ENDROOT
BRANCH   1  11
ATOM     11  N   UNL d   1      25.536 -14.824  -1.890  0.00  0.00    -0.323 N 
ATOM     12  C   UNL d   1      25.911 -14.726  -3.226  0.00  0.00     0.251 C 
ATOM     13  O   UNL d   1      25.530 -15.563  -4.060  0.00  0.00    -0.270 OA
ATOM     14  H   UNL d   1      25.560 -13.992  -1.311  0.00  0.00     0.169 HD
BRANCH  12  15
ATOM     15  C   UNL d   1      26.772 -13.504  -3.680  0.00  0.00     0.217 C 
ATOM     16  C   UNL d   1      27.136 -13.479  -5.172  0.00  0.00     0.050 C 
BRANCH  15  17
ATOM     17  O   UNL d   1      27.953 -13.304  -2.865  0.00  0.00    -0.335 OA
BRANCH  17  18
ATOM     18  C   UNL d   1      27.804 -13.046  -1.520  0.00  0.00     0.091 A 
ATOM     19  C   UNL d   1      28.029 -14.010  -0.531  0.00  0.00     0.040 A 
ATOM     20  C   UNL d   1      27.969 -13.724   0.821  0.00  0.00     0.026 A 
ATOM     21  C   UNL d   1      27.580 -12.461   1.221  0.00  0.00     0.035 A 
ATOM     22 CL   UNL d   1      27.439 -12.146   2.902  0.00  0.00    -0.084 Cl
ATOM     23  C   UNL d   1      27.279 -11.485   0.272  0.00  0.00     0.050 A 
ATOM     24  C   UNL d   1      27.406 -11.770  -1.097  0.00  0.00     0.069 A 
ATOM     25 CL   UNL d   1      27.030 -10.512  -2.222  0.00  0.00    -0.081 Cl
ENDBRANCH  17  18
ENDBRANCH  15  17
ENDBRANCH  12  15
ENDBRANCH   1  11
BRANCH   5  26
ATOM     26  C   UNL d   1      20.344 -19.353   0.405  0.00  0.00     0.079 A 
ATOM     27  C   UNL d   1      20.160 -19.606   1.776  0.00  0.00     0.033 A 
ATOM     28  C   UNL d   1      19.130 -20.450   2.209  0.00  0.00     0.002 A 
ATOM     29  C   UNL d   1      18.255 -21.013   1.283  0.00  0.00     0.000 A 
ATOM     30  C   UNL d   1      18.391 -20.707  -0.073  0.00  0.00     0.002 A 
ATOM     31  C   UNL d   1      19.448 -19.898  -0.521  0.00  0.00     0.033 A 
ENDBRANCH   5  26
TORSDOF 5
ENDMDL
MODEL 8
REMARK VINA RESULT:    -9.824      2.404      3.170
REMARK INTER + INTRA:         -12.948
REMARK INTER:                 -11.316
REMARK INTRA:                  -1.632
REMARK CONF_INDEPENDENT:        1.492
REMARK UNBOUND:                -1.632
REMARK  5 active torsions:
REMARK  status: ('A' for Active; 'I' for Inactive)
REMARK    1  A    between atoms: C_2  and  C_12 
REMARK    2  A    between atoms: C_2  and  O_3 
REMARK    3  A    between atoms: O_3  and  C_4 
REMARK       I    between atoms: C_12  and  N_14 
REMARK    4  A    between atoms: N_14  and  C_15 
REMARK    5  A    between atoms: N_19  and  C_20 
ROOT
ATOM      1  C   UNL d   1      25.652 -17.030  -1.270  0.00  0.00     0.059 A 
ATOM      2  C   UNL d   1      25.138 -18.203  -0.630  0.00  0.00     0.067 A 
ATOM      3  C   UNL d   1      23.723 -18.231  -0.410  0.00  0.00     0.112 A 
ATOM      4  N   UNL d   1      22.929 -19.138   0.205  0.00  0.00    -0.147 NA
ATOM      5  N   UNL d   1      21.671 -18.662  -0.034  0.00  0.00    -0.150 N 
ATOM      6  N   UNL d   1      21.590 -17.480  -0.684  0.00  0.00    -0.147 NA
ATOM      7  C   UNL d   1      22.870 -17.141  -0.869  0.00  0.00     0.111 A 
ATOM      8  C   UNL d   1      23.375 -15.978  -1.459  0.00  0.00     0.062 A 
ATOM      9  C   UNL d   1      24.765 -15.965  -1.676  0.00  0.00     0.063 A 
ATOM     10 CL   UNL d   1      25.276 -14.649  -2.706  0.00  0.00    -0.082 Cl
ENDROOT
BRANCH   1  11
ATOM     11  N   UNL d   1      27.066 -16.946  -1.535  0.00  0.00    -0.323 N 
ATOM     12  C   UNL d   1      27.997 -16.979  -0.500  0.00  0.00     0.251 C 
ATOM     13  O   UNL d   1      27.648 -17.221   0.666  0.00  0.00    -0.270 OA
ATOM     14  H   UNL d   1      27.385 -17.086  -2.486  0.00  0.00     0.169 HD
BRANCH  12  15
ATOM     15  C   UNL d   1      29.507 -16.769  -0.839  0.00  0.00     0.217 C 
ATOM     16  C   UNL d   1      30.320 -16.024   0.231  0.00  0.00     0.050 C 
BRANCH  15  17
ATOM     17  O   UNL d   1      29.722 -16.178  -2.143  0.00  0.00    -0.335 OA
BRANCH  17  18
ATOM     18  C   UNL d   1      30.074 -16.990  -3.198  0.00  0.00     0.091 A 
ATOM     19  C   UNL d   1      30.798 -18.178  -3.036  0.00  0.00     0.040 A 
ATOM     20  C   UNL d   1      31.070 -19.038  -4.085  0.00  0.00     0.026 A 
ATOM     21  C   UNL d   1      30.697 -18.674  -5.363  0.00  0.00     0.035 A 
ATOM     22 CL   UNL d   1      31.108 -19.718  -6.661  0.00  0.00    -0.084 Cl
ATOM     23  C   UNL d   1      30.033 -17.468  -5.585  0.00  0.00     0.050 A 
ATOM     24  C   UNL d   1      29.707 -16.633  -4.503  0.00  0.00     0.069 A 
ATOM     25 CL   UNL d   1      28.872 -15.158  -4.845  0.00  0.00    -0.081 Cl
ENDBRANCH  17  18
ENDBRANCH  15  17
ENDBRANCH  12  15
ENDBRANCH   1  11
BRANCH   5  26
ATOM     26  C   UNL d   1      20.473 -19.319   0.372  0.00  0.00     0.079 A 
ATOM     27  C   UNL d   1      20.303 -19.668   1.724  0.00  0.00     0.033 A 
ATOM     28  C   UNL d   1      19.218 -20.459   2.122  0.00  0.00     0.002 A 
ATOM     29  C   UNL d   1      18.276 -20.871   1.182  0.00  0.00     0.000 A 
ATOM     30  C   UNL d   1      18.403 -20.466  -0.149  0.00  0.00     0.002 A 
ATOM     31  C   UNL d   1      19.512 -19.711  -0.565  0.00  0.00     0.033 A 
ENDBRANCH   5  26
TORSDOF 5
ENDMDL
MODEL 9
REMARK VINA RESULT:    -9.382      2.307      3.273
REMARK INTER + INTRA:         -12.555
REMARK INTER:                 -10.874
REMARK INTRA:                  -1.682
REMARK CONF_INDEPENDENT:        1.492
REMARK UNBOUND:                -1.682
REMARK  5 active torsions:
REMARK  status: ('A' for Active; 'I' for Inactive)
REMARK    1  A    between atoms: C_2  and  C_12 
REMARK    2  A    between atoms: C_2  and  O_3 
REMARK    3  A    between atoms: O_3  and  C_4 
REMARK       I    between atoms: C_12  and  N_14 
REMARK    4  A    between atoms: N_14  and  C_15 
REMARK    5  A    between atoms: N_19  and  C_20 
ROOT
ATOM      1  C   UNL d   1      26.212 -17.052  -1.062  0.00  0.00     0.059 A 
ATOM      2  C   UNL d   1      25.589 -18.158  -0.402  0.00  0.00     0.067 A 
ATOM      3  C   UNL d   1      24.158 -18.129  -0.339  0.00  0.00     0.112 A 
ATOM      4  N   UNL d   1      23.269 -18.964   0.247  0.00  0.00    -0.147 NA
ATOM      5  N   UNL d   1      22.062 -18.468  -0.162  0.00  0.00    -0.150 N 
ATOM      6  N   UNL d   1      22.097 -17.337  -0.898  0.00  0.00    -0.147 NA
ATOM      7  C   UNL d   1      23.401 -17.050  -0.964  0.00  0.00     0.111 A 
ATOM      8  C   UNL d   1      24.011 -15.949  -1.574  0.00  0.00     0.062 A 
ATOM      9  C   UNL d   1      25.416 -15.994  -1.637  0.00  0.00     0.063 A 
ATOM     10 CL   UNL d   1      26.084 -14.774  -2.694  0.00  0.00    -0.082 Cl
ENDROOT
BRANCH   1  11
ATOM     11  N   UNL d   1      27.649 -17.030  -1.174  0.00  0.00    -0.323 N 
ATOM     12  C   UNL d   1      28.431 -16.297  -0.286  0.00  0.00     0.251 C 
ATOM     13  O   UNL d   1      27.928 -15.755   0.711  0.00  0.00    -0.270 OA
ATOM     14  H   UNL d   1      28.095 -17.725  -1.763  0.00  0.00     0.169 HD
BRANCH  12  15
ATOM     15  C   UNL d   1      29.972 -16.220  -0.526  0.00  0.00     0.217 C 
ATOM     16  C   UNL d   1      30.580 -14.812  -0.422  0.00  0.00     0.050 C 
BRANCH  15  17
ATOM     17  O   UNL d   1      30.391 -16.865  -1.753  0.00  0.00    -0.335 OA
BRANCH  17  18
ATOM     18  C   UNL d   1      30.017 -16.316  -2.960  0.00  0.00     0.091 A 
ATOM     19  C   UNL d   1      29.323 -15.105  -3.064  0.00  0.00     0.040 A 
ATOM     20  C   UNL d   1      29.030 -14.512  -4.279  0.00  0.00     0.026 A 
ATOM     21  C   UNL d   1      29.349 -15.179  -5.443  0.00  0.00     0.035 A 
ATOM     22 CL   UNL d   1      28.912 -14.462  -6.940  0.00  0.00    -0.084 Cl
ATOM     23  C   UNL d   1      29.981 -16.421  -5.392  0.00  0.00     0.050 A 
ATOM     24  C   UNL d   1      30.330 -16.984  -4.153  0.00  0.00     0.069 A 
ATOM     25 CL   UNL d   1      31.123 -18.520  -4.159  0.00  0.00    -0.081 Cl
ENDBRANCH  17  18
ENDBRANCH  15  17
ENDBRANCH  12  15
ENDBRANCH   1  11
BRANCH   5  26
ATOM     26  C   UNL d   1      20.804 -19.058   0.155  0.00  0.00     0.079 A 
ATOM     27  C   UNL d   1      20.524 -19.411   1.487  0.00  0.00     0.033 A 
ATOM     28  C   UNL d   1      19.370 -20.140   1.801  0.00  0.00     0.002 A 
ATOM     29  C   UNL d   1      18.470 -20.485   0.795  0.00  0.00     0.000 A 
ATOM     30  C   UNL d   1      18.710 -20.076  -0.519  0.00  0.00     0.002 A 
ATOM     31  C   UNL d   1      19.886 -19.383  -0.850  0.00  0.00     0.033 A 
ENDBRANCH   5  26
TORSDOF 5
ENDMDL
