MODEL 1
REMARK VINA RESULT:    -9.179      0.000      0.000
REMARK INTER + INTRA:         -15.843
REMARK INTER:                 -13.057
REMARK INTRA:                  -2.786
REMARK CONF_INDEPENDENT:        3.878
REMARK UNBOUND:                -2.786
REMARK  13 active torsions:
REMARK  status: ('A' for Active; 'I' for Inactive)
REMARK    1  A    between atoms: C_2  and  C_3 
REMARK    2  A    between atoms: C_2  and  O_26 
REMARK    3  A    between atoms: C_4  and  C_3 
REMARK    4  A    between atoms: C_4  and  C_16 
REMARK    5  A    between atoms: C_4  and  N_5 
REMARK       I    between atoms: N_5  and  C_6 
REMARK    6  A    between atoms: C_6  and  O_8 
REMARK    7  A    between atoms: O_8  and  C_9 
REMARK    8  A    between atoms: C_9  and  C_10 
REMARK    9  A    between atoms: C_16  and  O_18 
REMARK   10  A    between atoms: O_18  and  C_19 
REMARK   11  A    between atoms: C_19  and  C_20 
REMARK   12  A    between atoms: O_26  and  C_27 
REMARK   13  A    between atoms: C_30  and  N_31 
ROOT
ATOM      1  C   UNL d   1      26.481 -15.903  -2.251  0.00  0.00     0.195 C 
ENDROOT
BRANCH   1   2
ATOM      2  C   UNL d   1      25.965 -14.587  -1.628  0.00  0.00     0.282 C 
ATOM      3  O   UNL d   1      25.374 -13.712  -2.251  0.00  0.00    -0.263 OA
BRANCH   2   4
ATOM      4  O   UNL d   1      26.186 -14.541  -0.286  0.00  0.00    -0.315 OA
BRANCH   4   5
ATOM      5  C   UNL d   1      26.958 -13.383   0.070  0.00  0.00     0.217 C 
BRANCH   5   6
ATOM      6  C   UNL d   1      27.568 -13.574   1.432  0.00  0.00    -0.034 A 
ATOM      7  C   UNL d   1      28.866 -14.089   1.557  0.00  0.00     0.009 A 
ATOM      8  C   UNL d   1      29.390 -14.368   2.817  0.00  0.00     0.001 A 
ATOM      9  C   UNL d   1      28.669 -14.036   3.963  0.00  0.00     0.000 A 
ATOM     10  C   UNL d   1      27.404 -13.462   3.848  0.00  0.00     0.001 A 
ATOM     11  C   UNL d   1      26.858 -13.231   2.589  0.00  0.00     0.009 A 
ENDBRANCH   5   6
ENDBRANCH   4   5
ENDBRANCH   2   4
ENDBRANCH   1   2
BRANCH   1  12
ATOM     12  N   UNL d   1      27.118 -15.635  -3.559  0.00  0.00    -0.323 N 
ATOM     13  C   UNL d   1      26.351 -15.246  -4.628  0.00  0.00     0.361 C 
ATOM     14  O   UNL d   1      25.157 -14.982  -4.569  0.00  0.00    -0.238 OA
ATOM     15  H   UNL d   1      28.124 -15.676  -3.675  0.00  0.00     0.165 HD
BRANCH  13  16
ATOM     16  O   UNL d   1      27.024 -15.202  -5.789  0.00  0.00    -0.299 OA
BRANCH  16  17
ATOM     17  C   UNL d   1      28.065 -14.199  -5.715  0.00  0.00     0.219 C 
BRANCH  17  18
ATOM     18  C   UNL d   1      27.552 -12.971  -5.020  0.00  0.00    -0.034 C 
ATOM     19  C   UNL d   1      28.075 -12.619  -3.774  0.00  0.00     0.009 C 
ATOM     20  C   UNL d   1      27.452 -11.657  -2.998  0.00  0.00     0.001 C 
ATOM     21  C   UNL d   1      26.380 -10.939  -3.517  0.00  0.00     0.000 C 
ATOM     22  C   UNL d   1      25.908 -11.210  -4.801  0.00  0.00     0.001 C 
ATOM     23  C   UNL d   1      26.488 -12.231  -5.556  0.00  0.00     0.009 C 
ENDBRANCH  17  18
ENDBRANCH  16  17
ENDBRANCH  13  16
ENDBRANCH   1  12
BRANCH   1  24
ATOM     24  C   UNL d   1      27.384 -16.745  -1.345  0.00  0.00     0.147 C 
BRANCH  24  25
ATOM     25  C   UNL d   1      26.619 -17.495  -0.262  0.00  0.00     0.266 C 
ATOM     26  O   UNL d   1      27.045 -18.471   0.340  0.00  0.00    -0.265 OA
BRANCH  25  27
ATOM     27  O   UNL d   1      25.414 -16.978   0.174  0.00  0.00    -0.279 OA
BRANCH  27  28
ATOM     28  C   UNL d   1      24.135 -17.432  -0.148  0.00  0.00     0.079 A 
ATOM     29  C   UNL d   1      23.959 -18.812  -0.145  0.00  0.00     0.040 A 
ATOM     30  C   UNL d   1      22.746 -19.325  -0.585  0.00  0.00     0.039 A 
ATOM     31  C   UNL d   1      21.702 -18.438  -0.894  0.00  0.00     0.103 A 
ATOM     32  C   UNL d   1      21.900 -17.053  -0.894  0.00  0.00     0.039 A 
ATOM     33  C   UNL d   1      23.151 -16.559  -0.583  0.00  0.00     0.040 A 
BRANCH  31  34
ATOM     34  N   UNL d   1      20.369 -18.957  -1.194  0.00  0.00    -0.116 N 
ATOM     35  O   UNL d   1      19.412 -18.471  -0.577  0.00  0.00    -0.532 OA
ATOM     36  O   UNL d   1      20.279 -19.831  -2.067  0.00  0.00    -0.532 OA
ENDBRANCH  31  34
ENDBRANCH  27  28
ENDBRANCH  25  27
ENDBRANCH  24  25
ENDBRANCH   1  24
TORSDOF 13
ENDMDL
MODEL 2
REMARK VINA RESULT:    -8.975      1.373      5.818
REMARK INTER + INTRA:         -15.705
REMARK INTER:                 -12.852
REMARK INTRA:                  -2.853
REMARK CONF_INDEPENDENT:        3.878
REMARK UNBOUND:                -2.853
REMARK  13 active torsions:
REMARK  status: ('A' for Active; 'I' for Inactive)
REMARK    1  A    between atoms: C_2  and  C_3 
REMARK    2  A    between atoms: C_2  and  O_26 
REMARK    3  A    between atoms: C_4  and  C_3 
REMARK    4  A    between atoms: C_4  and  C_16 
REMARK    5  A    between atoms: C_4  and  N_5 
REMARK       I    between atoms: N_5  and  C_6 
REMARK    6  A    between atoms: C_6  and  O_8 
REMARK    7  A    between atoms: O_8  and  C_9 
REMARK    8  A    between atoms: C_9  and  C_10 
REMARK    9  A    between atoms: C_16  and  O_18 
REMARK   10  A    between atoms: O_18  and  C_19 
REMARK   11  A    between atoms: C_19  and  C_20 
REMARK   12  A    between atoms: O_26  and  C_27 
REMARK   13  A    between atoms: C_30  and  N_31 
ROOT
ATOM      1  C   UNL d   1      26.356 -14.953  -2.275  0.00  0.00     0.195 C 
ENDROOT
BRANCH   1   2
ATOM      2  C   UNL d   1      25.112 -14.647  -3.139  0.00  0.00     0.282 C 
ATOM      3  O   UNL d   1      23.992 -14.436  -2.687  0.00  0.00    -0.263 OA
BRANCH   2   4
ATOM      4  O   UNL d   1      25.420 -14.575  -4.462  0.00  0.00    -0.315 OA
BRANCH   4   5
ATOM      5  C   UNL d   1      26.347 -13.508  -4.717  0.00  0.00     0.217 C 
BRANCH   5   6
ATOM      6  C   UNL d   1      27.553 -14.042  -5.444  0.00  0.00    -0.034 A 
ATOM      7  C   UNL d   1      28.144 -15.246  -5.037  0.00  0.00     0.009 A 
ATOM      8  C   UNL d   1      29.322 -15.685  -5.638  0.00  0.00     0.001 A 
ATOM      9  C   UNL d   1      29.858 -14.985  -6.718  0.00  0.00     0.000 A 
ATOM     10  C   UNL d   1      29.238 -13.823  -7.172  0.00  0.00     0.001 A 
ATOM     11  C   UNL d   1      28.091 -13.355  -6.539  0.00  0.00     0.009 A 
ENDBRANCH   5   6
ENDBRANCH   4   5
ENDBRANCH   2   4
ENDBRANCH   1   2
BRANCH   1  12
ATOM     12  N   UNL d   1      26.171 -14.427  -0.905  0.00  0.00    -0.323 N 
ATOM     13  C   UNL d   1      27.086 -13.552  -0.378  0.00  0.00     0.361 C 
ATOM     14  O   UNL d   1      28.018 -13.060  -1.000  0.00  0.00    -0.238 OA
ATOM     15  H   UNL d   1      25.348 -14.654  -0.359  0.00  0.00     0.165 HD
BRANCH  13  16
ATOM     16  O   UNL d   1      26.893 -13.287   0.924  0.00  0.00    -0.299 OA
BRANCH  16  17
ATOM     17  C   UNL d   1      27.703 -14.174   1.732  0.00  0.00     0.219 C 
BRANCH  17  18
ATOM     18  C   UNL d   1      27.917 -13.582   3.095  0.00  0.00    -0.034 C 
ATOM     19  C   UNL d   1      27.782 -14.392   4.224  0.00  0.00     0.009 C 
ATOM     20  C   UNL d   1      27.716 -13.829   5.488  0.00  0.00     0.001 C 
ATOM     21  C   UNL d   1      27.921 -12.464   5.647  0.00  0.00     0.000 C 
ATOM     22  C   UNL d   1      28.157 -11.653   4.536  0.00  0.00     0.001 C 
ATOM     23  C   UNL d   1      28.150 -12.207   3.255  0.00  0.00     0.009 C 
ENDBRANCH  17  18
ENDBRANCH  16  17
ENDBRANCH  13  16
ENDBRANCH   1  12
BRANCH   1  24
ATOM     24  C   UNL d   1      26.798 -16.419  -2.262  0.00  0.00     0.147 C 
BRANCH  24  25
ATOM     25  C   UNL d   1      26.572 -17.106  -0.921  0.00  0.00     0.266 C 
ATOM     26  O   UNL d   1      27.386 -17.831  -0.366  0.00  0.00    -0.265 OA
BRANCH  25  27
ATOM     27  O   UNL d   1      25.428 -16.801  -0.209  0.00  0.00    -0.279 OA
BRANCH  27  28
ATOM     28  C   UNL d   1      24.149 -17.322  -0.404  0.00  0.00     0.079 A 
ATOM     29  C   UNL d   1      24.053 -18.710  -0.438  0.00  0.00     0.040 A 
ATOM     30  C   UNL d   1      22.829 -19.281  -0.760  0.00  0.00     0.039 A 
ATOM     31  C   UNL d   1      21.708 -18.450  -0.913  0.00  0.00     0.103 A 
ATOM     32  C   UNL d   1      21.825 -17.057  -0.878  0.00  0.00     0.039 A 
ATOM     33  C   UNL d   1      23.073 -16.497  -0.689  0.00  0.00     0.040 A 
BRANCH  31  34
ATOM     34  N   UNL d   1      20.382 -19.039  -1.083  0.00  0.00    -0.116 N 
ATOM     35  O   UNL d   1      20.295 -20.074  -1.755  0.00  0.00    -0.532 OA
ATOM     36  O   UNL d   1      19.431 -18.479  -0.519  0.00  0.00    -0.532 OA
ENDBRANCH  31  34
ENDBRANCH  27  28
ENDBRANCH  25  27
ENDBRANCH  24  25
ENDBRANCH   1  24
TORSDOF 13
ENDMDL
MODEL 3
REMARK VINA RESULT:    -8.820      1.622      5.944
REMARK INTER + INTRA:         -15.746
REMARK INTER:                 -12.698
REMARK INTRA:                  -3.048
REMARK CONF_INDEPENDENT:        3.878
REMARK UNBOUND:                -3.048
REMARK  13 active torsions:
REMARK  status: ('A' for Active; 'I' for Inactive)
REMARK    1  A    between atoms: C_2  and  C_3 
REMARK    2  A    between atoms: C_2  and  O_26 
REMARK    3  A    between atoms: C_4  and  C_3 
REMARK    4  A    between atoms: C_4  and  C_16 
REMARK    5  A    between atoms: C_4  and  N_5 
REMARK       I    between atoms: N_5  and  C_6 
REMARK    6  A    between atoms: C_6  and  O_8 
REMARK    7  A    between atoms: O_8  and  C_9 
REMARK    8  A    between atoms: C_9  and  C_10 
REMARK    9  A    between atoms: C_16  and  O_18 
REMARK   10  A    between atoms: O_18  and  C_19 
REMARK   11  A    between atoms: C_19  and  C_20 
REMARK   12  A    between atoms: O_26  and  C_27 
REMARK   13  A    between atoms: C_30  and  N_31 
ROOT
ATOM      1  C   UNL d   1      28.054 -15.942  -0.995  0.00  0.00     0.195 C 
ENDROOT
BRANCH   1   2
ATOM      2  C   UNL d   1      27.385 -15.645  -2.356  0.00  0.00     0.282 C 
ATOM      3  O   UNL d   1      27.861 -15.955  -3.442  0.00  0.00    -0.263 OA
BRANCH   2   4
ATOM      4  O   UNL d   1      26.168 -15.055  -2.203  0.00  0.00    -0.315 OA
BRANCH   4   5
ATOM      5  C   UNL d   1      25.623 -14.663  -3.473  0.00  0.00     0.217 C 
BRANCH   5   6
ATOM      6  C   UNL d   1      25.868 -13.196  -3.703  0.00  0.00    -0.034 A 
ATOM      7  C   UNL d   1      26.262 -12.372  -2.639  0.00  0.00     0.009 A 
ATOM      8  C   UNL d   1      26.383 -10.997  -2.826  0.00  0.00     0.001 A 
ATOM      9  C   UNL d   1      26.219 -10.449  -4.097  0.00  0.00     0.000 A 
ATOM     10  C   UNL d   1      25.893 -11.270  -5.175  0.00  0.00     0.001 A 
ATOM     11  C   UNL d   1      25.720 -12.637  -4.978  0.00  0.00     0.009 A 
ENDBRANCH   5   6
ENDBRANCH   4   5
ENDBRANCH   2   4
ENDBRANCH   1   2
BRANCH   1  12
ATOM     12  N   UNL d   1      27.438 -15.122   0.070  0.00  0.00    -0.323 N 
ATOM     13  C   UNL d   1      28.229 -14.363   0.894  0.00  0.00     0.361 C 
ATOM     14  O   UNL d   1      29.435 -14.209   0.754  0.00  0.00    -0.238 OA
ATOM     15  H   UNL d   1      26.432 -15.059   0.173  0.00  0.00     0.165 HD
BRANCH  13  16
ATOM     16  O   UNL d   1      27.564 -13.804   1.918  0.00  0.00    -0.299 OA
BRANCH  16  17
ATOM     17  C   UNL d   1      27.915 -14.471   3.154  0.00  0.00     0.219 C 
BRANCH  17  18
ATOM     18  C   UNL d   1      27.871 -13.497   4.296  0.00  0.00    -0.034 C 
ATOM     19  C   UNL d   1      27.778 -12.129   4.030  0.00  0.00     0.009 C 
ATOM     20  C   UNL d   1      27.995 -11.202   5.034  0.00  0.00     0.001 C 
ATOM     21  C   UNL d   1      28.173 -11.632   6.344  0.00  0.00     0.000 C 
ATOM     22  C   UNL d   1      28.170 -12.994   6.644  0.00  0.00     0.001 C 
ATOM     23  C   UNL d   1      28.025 -13.932   5.621  0.00  0.00     0.009 C 
ENDBRANCH  17  18
ENDBRANCH  16  17
ENDBRANCH  13  16
ENDBRANCH   1  12
BRANCH   1  24
ATOM     24  C   UNL d   1      28.113 -17.422  -0.606  0.00  0.00     0.147 C 
BRANCH  24  25
ATOM     25  C   UNL d   1      26.843 -17.918   0.076  0.00  0.00     0.266 C 
ATOM     26  O   UNL d   1      26.780 -18.909   0.789  0.00  0.00    -0.265 OA
BRANCH  25  27
ATOM     27  O   UNL d   1      25.705 -17.137  -0.003  0.00  0.00    -0.279 OA
BRANCH  27  28
ATOM     28  C   UNL d   1      24.418 -17.554  -0.340  0.00  0.00     0.079 A 
ATOM     29  C   UNL d   1      23.485 -16.544  -0.550  0.00  0.00     0.040 A 
ATOM     30  C   UNL d   1      22.159 -16.901  -0.759  0.00  0.00     0.039 A 
ATOM     31  C   UNL d   1      21.829 -18.260  -0.877  0.00  0.00     0.103 A 
ATOM     32  C   UNL d   1      22.781 -19.262  -0.659  0.00  0.00     0.039 A 
ATOM     33  C   UNL d   1      24.069 -18.895  -0.320  0.00  0.00     0.040 A 
BRANCH  31  34
ATOM     34  N   UNL d   1      20.476 -18.651  -1.264  0.00  0.00    -0.116 N 
ATOM     35  O   UNL d   1      20.344 -19.695  -1.916  0.00  0.00    -0.532 OA
ATOM     36  O   UNL d   1      19.543 -17.927  -0.891  0.00  0.00    -0.532 OA
ENDBRANCH  31  34
ENDBRANCH  27  28
ENDBRANCH  25  27
ENDBRANCH  24  25
ENDBRANCH   1  24
TORSDOF 13
ENDMDL
MODEL 4
REMARK VINA RESULT:    -8.729      2.318      4.756
REMARK INTER + INTRA:         -15.599
REMARK INTER:                 -12.606
REMARK INTRA:                  -2.992
REMARK CONF_INDEPENDENT:        3.878
REMARK UNBOUND:                -2.992
REMARK  13 active torsions:
REMARK  status: ('A' for Active; 'I' for Inactive)
REMARK    1  A    between atoms: C_2  and  C_3 
REMARK    2  A    between atoms: C_2  and  O_26 
REMARK    3  A    between atoms: C_4  and  C_3 
REMARK    4  A    between atoms: C_4  and  C_16 
REMARK    5  A    between atoms: C_4  and  N_5 
REMARK       I    between atoms: N_5  and  C_6 
REMARK    6  A    between atoms: C_6  and  O_8 
REMARK    7  A    between atoms: O_8  and  C_9 
REMARK    8  A    between atoms: C_9  and  C_10 
REMARK    9  A    between atoms: C_16  and  O_18 
REMARK   10  A    between atoms: O_18  and  C_19 
REMARK   11  A    between atoms: C_19  and  C_20 
REMARK   12  A    between atoms: O_26  and  C_27 
REMARK   13  A    between atoms: C_30  and  N_31 
ROOT
ATOM      1  C   UNL d   1      26.966 -15.281  -3.359  0.00  0.00     0.195 C 
ENDROOT
BRANCH   1   2
ATOM      2  C   UNL d   1      26.770 -15.531  -4.871  0.00  0.00     0.282 C 
ATOM      3  O   UNL d   1      25.724 -15.924  -5.376  0.00  0.00    -0.263 OA
BRANCH   2   4
ATOM      4  O   UNL d   1      27.879 -15.200  -5.587  0.00  0.00    -0.315 OA
BRANCH   4   5
ATOM      5  C   UNL d   1      29.072 -15.417  -4.816  0.00  0.00     0.217 C 
BRANCH   5   6
ATOM      6  C   UNL d   1      29.835 -16.587  -5.375  0.00  0.00    -0.034 A 
ATOM      7  C   UNL d   1      30.370 -16.527  -6.669  0.00  0.00     0.009 A 
ATOM      8  C   UNL d   1      30.982 -17.648  -7.227  0.00  0.00     0.001 A 
ATOM      9  C   UNL d   1      31.160 -18.799  -6.462  0.00  0.00     0.000 A 
ATOM     10  C   UNL d   1      30.691 -18.845  -5.151  0.00  0.00     0.001 A 
ATOM     11  C   UNL d   1      30.033 -17.743  -4.610  0.00  0.00     0.009 A 
ENDBRANCH   5   6
ENDBRANCH   4   5
ENDBRANCH   2   4
ENDBRANCH   1   2
BRANCH   1  12
ATOM     12  N   UNL d   1      26.536 -13.911  -3.005  0.00  0.00    -0.323 N 
ATOM     13  C   UNL d   1      25.380 -13.398  -3.536  0.00  0.00     0.361 C 
ATOM     14  O   UNL d   1      24.583 -14.032  -4.214  0.00  0.00    -0.238 OA
ATOM     15  H   UNL d   1      27.047 -13.355  -2.329  0.00  0.00     0.165 HD
BRANCH  13  16
ATOM     16  O   UNL d   1      25.196 -12.094  -3.271  0.00  0.00    -0.299 OA
BRANCH  16  17
ATOM     17  C   UNL d   1      25.572 -11.301  -4.422  0.00  0.00     0.219 C 
BRANCH  17  18
ATOM     18  C   UNL d   1      26.910 -11.743  -4.939  0.00  0.00    -0.034 C 
ATOM     19  C   UNL d   1      28.052 -11.524  -4.165  0.00  0.00     0.009 C 
ATOM     20  C   UNL d   1      29.313 -11.679  -4.715  0.00  0.00     0.001 C 
ATOM     21  C   UNL d   1      29.447 -12.186  -6.002  0.00  0.00     0.000 C 
ATOM     22  C   UNL d   1      28.316 -12.506  -6.754  0.00  0.00     0.001 C 
ATOM     23  C   UNL d   1      27.044 -12.279  -6.229  0.00  0.00     0.009 C 
ENDBRANCH  17  18
ENDBRANCH  16  17
ENDBRANCH  13  16
ENDBRANCH   1  12
BRANCH   1  24
ATOM     24  C   UNL d   1      26.334 -16.327  -2.436  0.00  0.00     0.147 C 
BRANCH  24  25
ATOM     25  C   UNL d   1      26.108 -15.822  -1.016  0.00  0.00     0.266 C 
ATOM     26  O   UNL d   1      26.394 -14.699  -0.625  0.00  0.00    -0.265 OA
BRANCH  25  27
ATOM     27  O   UNL d   1      25.419 -16.628  -0.131  0.00  0.00    -0.279 OA
BRANCH  27  28
ATOM     28  C   UNL d   1      24.162 -17.204  -0.317  0.00  0.00     0.079 A 
ATOM     29  C   UNL d   1      24.105 -18.590  -0.214  0.00  0.00     0.040 A 
ATOM     30  C   UNL d   1      22.909 -19.227  -0.519  0.00  0.00     0.039 A 
ATOM     31  C   UNL d   1      21.773 -18.450  -0.794  0.00  0.00     0.103 A 
ATOM     32  C   UNL d   1      21.851 -17.057  -0.896  0.00  0.00     0.039 A 
ATOM     33  C   UNL d   1      23.076 -16.444  -0.722  0.00  0.00     0.040 A 
BRANCH  31  34
ATOM     34  N   UNL d   1      20.470 -19.092  -0.950  0.00  0.00    -0.116 N 
ATOM     35  O   UNL d   1      19.626 -18.900  -0.065  0.00  0.00    -0.532 OA
ATOM     36  O   UNL d   1      20.283 -19.767  -1.972  0.00  0.00    -0.532 OA
ENDBRANCH  31  34
ENDBRANCH  27  28
ENDBRANCH  25  27
ENDBRANCH  24  25
ENDBRANCH   1  24
TORSDOF 13
ENDMDL
MODEL 5
REMARK VINA RESULT:    -8.605      2.422      5.029
REMARK INTER + INTRA:         -15.699
REMARK INTER:                 -12.483
REMARK INTRA:                  -3.216
REMARK CONF_INDEPENDENT:        3.878
REMARK UNBOUND:                -3.216
REMARK  13 active torsions:
REMARK  status: ('A' for Active; 'I' for Inactive)
REMARK    1  A    between atoms: C_2  and  C_3 
REMARK    2  A    between atoms: C_2  and  O_26 
REMARK    3  A    between atoms: C_4  and  C_3 
REMARK    4  A    between atoms: C_4  and  C_16 
REMARK    5  A    between atoms: C_4  and  N_5 
REMARK       I    between atoms: N_5  and  C_6 
REMARK    6  A    between atoms: C_6  and  O_8 
REMARK    7  A    between atoms: O_8  and  C_9 
REMARK    8  A    between atoms: C_9  and  C_10 
REMARK    9  A    between atoms: C_16  and  O_18 
REMARK   10  A    between atoms: O_18  and  C_19 
REMARK   11  A    between atoms: C_19  and  C_20 
REMARK   12  A    between atoms: O_26  and  C_27 
REMARK   13  A    between atoms: C_30  and  N_31 
ROOT
ATOM      1  C   UNL d   1      28.141 -15.665  -1.128  0.00  0.00     0.195 C 
ENDROOT
BRANCH   1   2
ATOM      2  C   UNL d   1      29.390 -15.817  -2.026  0.00  0.00     0.282 C 
ATOM      3  O   UNL d   1      30.481 -15.315  -1.781  0.00  0.00    -0.263 OA
BRANCH   2   4
ATOM      4  O   UNL d   1      29.152 -16.631  -3.090  0.00  0.00    -0.315 OA
BRANCH   4   5
ATOM      5  C   UNL d   1      30.244 -17.541  -3.296  0.00  0.00     0.217 C 
BRANCH   5   6
ATOM      6  C   UNL d   1      30.587 -17.604  -4.760  0.00  0.00    -0.034 A 
ATOM      7  C   UNL d   1      31.063 -16.464  -5.422  0.00  0.00     0.009 A 
ATOM      8  C   UNL d   1      31.278 -16.492  -6.798  0.00  0.00     0.001 A 
ATOM      9  C   UNL d   1      31.123 -17.683  -7.505  0.00  0.00     0.000 A 
ATOM     10  C   UNL d   1      30.713 -18.839  -6.843  0.00  0.00     0.001 A 
ATOM     11  C   UNL d   1      30.448 -18.799  -5.476  0.00  0.00     0.009 A 
ENDBRANCH   5   6
ENDBRANCH   4   5
ENDBRANCH   2   4
ENDBRANCH   1   2
BRANCH   1  12
ATOM     12  N   UNL d   1      26.911 -15.723  -1.947  0.00  0.00    -0.323 N 
ATOM     13  C   UNL d   1      26.037 -14.665  -1.947  0.00  0.00     0.361 C 
ATOM     14  O   UNL d   1      26.244 -13.591  -1.398  0.00  0.00    -0.238 OA
ATOM     15  H   UNL d   1      26.721 -16.507  -2.560  0.00  0.00     0.165 HD
BRANCH  13  16
ATOM     16  O   UNL d   1      24.887 -14.914  -2.592  0.00  0.00    -0.299 OA
BRANCH  16  17
ATOM     17  C   UNL d   1      24.722 -13.976  -3.682  0.00  0.00     0.219 C 
BRANCH  17  18
ATOM     18  C   UNL d   1      25.956 -13.954  -4.537  0.00  0.00    -0.034 C 
ATOM     19  C   UNL d   1      26.477 -15.156  -5.020  0.00  0.00     0.009 C 
ATOM     20  C   UNL d   1      27.741 -15.196  -5.584  0.00  0.00     0.001 C 
ATOM     21  C   UNL d   1      28.441 -14.014  -5.795  0.00  0.00     0.000 C 
ATOM     22  C   UNL d   1      27.891 -12.792  -5.409  0.00  0.00     0.001 C 
ATOM     23  C   UNL d   1      26.649 -12.757  -4.772  0.00  0.00     0.009 C 
ENDBRANCH  17  18
ENDBRANCH  16  17
ENDBRANCH  13  16
ENDBRANCH   1  12
BRANCH   1  24
ATOM     24  C   UNL d   1      28.073 -16.623   0.064  0.00  0.00     0.147 C 
BRANCH  24  25
ATOM     25  C   UNL d   1      26.793 -17.450   0.100  0.00  0.00     0.266 C 
ATOM     26  O   UNL d   1      26.753 -18.660   0.277  0.00  0.00    -0.265 OA
BRANCH  25  27
ATOM     27  O   UNL d   1      25.580 -16.790   0.059  0.00  0.00    -0.279 OA
BRANCH  27  28
ATOM     28  C   UNL d   1      24.338 -17.328  -0.276  0.00  0.00     0.079 A 
ATOM     29  C   UNL d   1      23.363 -16.416  -0.670  0.00  0.00     0.040 A 
ATOM     30  C   UNL d   1      22.073 -16.879  -0.888  0.00  0.00     0.039 A 
ATOM     31  C   UNL d   1      21.824 -18.259  -0.828  0.00  0.00     0.103 A 
ATOM     32  C   UNL d   1      22.816 -19.161  -0.428  0.00  0.00     0.039 A 
ATOM     33  C   UNL d   1      24.061 -18.672  -0.084  0.00  0.00     0.040 A 
BRANCH  31  34
ATOM     34  N   UNL d   1      20.517 -18.782  -1.220  0.00  0.00    -0.116 N 
ATOM     35  O   UNL d   1      19.514 -18.246  -0.731  0.00  0.00    -0.532 OA
ATOM     36  O   UNL d   1      20.495 -19.712  -2.038  0.00  0.00    -0.532 OA
ENDBRANCH  31  34
ENDBRANCH  27  28
ENDBRANCH  25  27
ENDBRANCH  24  25
ENDBRANCH   1  24
TORSDOF 13
ENDMDL
MODEL 6
REMARK VINA RESULT:    -8.551      3.017      6.526
REMARK INTER + INTRA:         -16.427
REMARK INTER:                 -12.429
REMARK INTRA:                  -3.998
REMARK CONF_INDEPENDENT:        3.878
REMARK UNBOUND:                -3.998
REMARK  13 active torsions:
REMARK  status: ('A' for Active; 'I' for Inactive)
REMARK    1  A    between atoms: C_2  and  C_3 
REMARK    2  A    between atoms: C_2  and  O_26 
REMARK    3  A    between atoms: C_4  and  C_3 
REMARK    4  A    between atoms: C_4  and  C_16 
REMARK    5  A    between atoms: C_4  and  N_5 
REMARK       I    between atoms: N_5  and  C_6 
REMARK    6  A    between atoms: C_6  and  O_8 
REMARK    7  A    between atoms: O_8  and  C_9 
REMARK    8  A    between atoms: C_9  and  C_10 
REMARK    9  A    between atoms: C_16  and  O_18 
REMARK   10  A    between atoms: O_18  and  C_19 
REMARK   11  A    between atoms: C_19  and  C_20 
REMARK   12  A    between atoms: O_26  and  C_27 
REMARK   13  A    between atoms: C_30  and  N_31 
ROOT
ATOM      1  C   UNL d   1      28.292 -15.427  -2.654  0.00  0.00     0.195 C 
ENDROOT
BRANCH   1   2
ATOM      2  C   UNL d   1      28.500 -16.700  -1.804  0.00  0.00     0.282 C 
ATOM      3  O   UNL d   1      29.562 -17.012  -1.278  0.00  0.00    -0.263 OA
BRANCH   2   4
ATOM      4  O   UNL d   1      27.345 -17.403  -1.654  0.00  0.00    -0.315 OA
BRANCH   4   5
ATOM      5  C   UNL d   1      26.748 -17.143  -0.374  0.00  0.00     0.217 C 
BRANCH   5   6
ATOM      6  C   UNL d   1      25.255 -17.315  -0.462  0.00  0.00    -0.034 A 
ATOM      7  C   UNL d   1      24.450 -16.260  -0.914  0.00  0.00     0.009 A 
ATOM      8  C   UNL d   1      23.062 -16.380  -0.894  0.00  0.00     0.001 A 
ATOM      9  C   UNL d   1      22.471 -17.588  -0.527  0.00  0.00     0.000 A 
ATOM     10  C   UNL d   1      23.267 -18.665  -0.140  0.00  0.00     0.001 A 
ATOM     11  C   UNL d   1      24.652 -18.528  -0.110  0.00  0.00     0.009 A 
ENDBRANCH   5   6
ENDBRANCH   4   5
ENDBRANCH   2   4
ENDBRANCH   1   2
BRANCH   1  12
ATOM     12  N   UNL d   1      26.882 -15.326  -3.090  0.00  0.00    -0.323 N 
ATOM     13  C   UNL d   1      26.584 -15.199  -4.423  0.00  0.00     0.361 C 
ATOM     14  O   UNL d   1      27.402 -15.276  -5.330  0.00  0.00    -0.238 OA
ATOM     15  H   UNL d   1      26.118 -15.406  -2.429  0.00  0.00     0.165 HD
BRANCH  13  16
ATOM     16  O   UNL d   1      25.288 -14.948  -4.666  0.00  0.00    -0.299 OA
BRANCH  16  17
ATOM     17  C   UNL d   1      24.796 -13.958  -3.731  0.00  0.00     0.219 C 
BRANCH  17  18
ATOM     18  C   UNL d   1      25.548 -12.669  -3.900  0.00  0.00    -0.034 C 
ATOM     19  C   UNL d   1      25.898 -11.926  -2.771  0.00  0.00     0.009 C 
ATOM     20  C   UNL d   1      26.354 -10.625  -2.901  0.00  0.00     0.001 C 
ATOM     21  C   UNL d   1      26.595 -10.101  -4.166  0.00  0.00     0.000 C 
ATOM     22  C   UNL d   1      26.345 -10.867  -5.304  0.00  0.00     0.001 C 
ATOM     23  C   UNL d   1      25.814 -12.152  -5.177  0.00  0.00     0.009 C 
ENDBRANCH  17  18
ENDBRANCH  16  17
ENDBRANCH  13  16
ENDBRANCH   1  12
BRANCH   1  24
ATOM     24  C   UNL d   1      28.779 -14.125  -2.012  0.00  0.00     0.147 C 
BRANCH  24  25
ATOM     25  C   UNL d   1      27.863 -13.620  -0.904  0.00  0.00     0.266 C 
ATOM     26  O   UNL d   1      26.715 -14.001  -0.723  0.00  0.00    -0.265 OA
BRANCH  25  27
ATOM     27  O   UNL d   1      28.388 -12.767   0.048  0.00  0.00    -0.279 OA
BRANCH  27  28
ATOM     28  C   UNL d   1      27.783 -11.635   0.593  0.00  0.00     0.079 A 
ATOM     29  C   UNL d   1      28.296 -10.409   0.180  0.00  0.00     0.040 A 
ATOM     30  C   UNL d   1      27.821  -9.254   0.788  0.00  0.00     0.039 A 
ATOM     31  C   UNL d   1      26.758  -9.351   1.699  0.00  0.00     0.103 A 
ATOM     32  C   UNL d   1      26.257 -10.593   2.104  0.00  0.00     0.039 A 
ATOM     33  C   UNL d   1      26.828 -11.741   1.592  0.00  0.00     0.040 A 
BRANCH  31  34
ATOM     34  N   UNL d   1      26.131  -8.138   2.219  0.00  0.00    -0.116 N 
ATOM     35  O   UNL d   1      26.631  -7.621   3.227  0.00  0.00    -0.532 OA
ATOM     36  O   UNL d   1      25.156  -7.688   1.602  0.00  0.00    -0.532 OA
ENDBRANCH  31  34
ENDBRANCH  27  28
ENDBRANCH  25  27
ENDBRANCH  24  25
ENDBRANCH   1  24
TORSDOF 13
ENDMDL
MODEL 7
REMARK VINA RESULT:    -8.468      3.066      6.559
REMARK INTER + INTRA:         -16.140
REMARK INTER:                 -12.346
REMARK INTRA:                  -3.794
REMARK CONF_INDEPENDENT:        3.878
REMARK UNBOUND:                -3.794
REMARK  13 active torsions:
REMARK  status: ('A' for Active; 'I' for Inactive)
REMARK    1  A    between atoms: C_2  and  C_3 
REMARK    2  A    between atoms: C_2  and  O_26 
REMARK    3  A    between atoms: C_4  and  C_3 
REMARK    4  A    between atoms: C_4  and  C_16 
REMARK    5  A    between atoms: C_4  and  N_5 
REMARK       I    between atoms: N_5  and  C_6 
REMARK    6  A    between atoms: C_6  and  O_8 
REMARK    7  A    between atoms: O_8  and  C_9 
REMARK    8  A    between atoms: C_9  and  C_10 
REMARK    9  A    between atoms: C_16  and  O_18 
REMARK   10  A    between atoms: O_18  and  C_19 
REMARK   11  A    between atoms: C_19  and  C_20 
REMARK   12  A    between atoms: O_26  and  C_27 
REMARK   13  A    between atoms: C_30  and  N_31 
ROOT
ATOM      1  C   UNL d   1      28.290 -15.368  -2.429  0.00  0.00     0.195 C 
ENDROOT
BRANCH   1   2
ATOM      2  C   UNL d   1      28.413 -16.593  -1.496  0.00  0.00     0.282 C 
ATOM      3  O   UNL d   1      29.222 -17.501  -1.652  0.00  0.00    -0.263 OA
BRANCH   2   4
ATOM      4  O   UNL d   1      27.558 -16.514  -0.441  0.00  0.00    -0.315 OA
BRANCH   4   5
ATOM      5  C   UNL d   1      26.912 -17.775  -0.206  0.00  0.00     0.217 C 
BRANCH   5   6
ATOM      6  C   UNL d   1      25.424 -17.624  -0.368  0.00  0.00    -0.034 A 
ATOM      7  C   UNL d   1      24.898 -16.522  -1.056  0.00  0.00     0.009 A 
ATOM      8  C   UNL d   1      23.520 -16.325  -1.114  0.00  0.00     0.001 A 
ATOM      9  C   UNL d   1      22.655 -17.279  -0.580  0.00  0.00     0.000 A 
ATOM     10  C   UNL d   1      23.169 -18.412   0.048  0.00  0.00     0.001 A 
ATOM     11  C   UNL d   1      24.546 -18.584   0.152  0.00  0.00     0.009 A 
ENDBRANCH   5   6
ENDBRANCH   4   5
ENDBRANCH   2   4
ENDBRANCH   1   2
BRANCH   1  12
ATOM     12  N   UNL d   1      26.908 -15.252  -2.944  0.00  0.00    -0.323 N 
ATOM     13  C   UNL d   1      26.673 -15.310  -4.294  0.00  0.00     0.361 C 
ATOM     14  O   UNL d   1      27.520 -15.571  -5.138  0.00  0.00    -0.238 OA
ATOM     15  H   UNL d   1      26.115 -15.187  -2.317  0.00  0.00     0.165 HD
BRANCH  13  16
ATOM     16  O   UNL d   1      25.407 -15.023  -4.635  0.00  0.00    -0.299 OA
BRANCH  16  17
ATOM     17  C   UNL d   1      24.864 -14.037  -3.725  0.00  0.00     0.219 C 
BRANCH  17  18
ATOM     18  C   UNL d   1      25.530 -12.710  -3.943  0.00  0.00    -0.034 C 
ATOM     19  C   UNL d   1      25.866 -12.315  -5.240  0.00  0.00     0.009 C 
ATOM     20  C   UNL d   1      26.703 -11.232  -5.449  0.00  0.00     0.001 C 
ATOM     21  C   UNL d   1      27.103 -10.451  -4.372  0.00  0.00     0.000 C 
ATOM     22  C   UNL d   1      26.695 -10.773  -3.078  0.00  0.00     0.001 C 
ATOM     23  C   UNL d   1      25.912 -11.907  -2.857  0.00  0.00     0.009 C 
ENDBRANCH  17  18
ENDBRANCH  16  17
ENDBRANCH  13  16
ENDBRANCH   1  12
BRANCH   1  24
ATOM     24  C   UNL d   1      28.786 -14.045  -1.839  0.00  0.00     0.147 C 
BRANCH  24  25
ATOM     25  C   UNL d   1      27.843 -13.460  -0.794  0.00  0.00     0.266 C 
ATOM     26  O   UNL d   1      26.668 -13.773  -0.666  0.00  0.00    -0.265 OA
BRANCH  25  27
ATOM     27  O   UNL d   1      28.365 -12.611   0.164  0.00  0.00    -0.279 OA
BRANCH  27  28
ATOM     28  C   UNL d   1      27.814 -11.415   0.621  0.00  0.00     0.079 A 
ATOM     29  C   UNL d   1      26.955 -11.515   1.711  0.00  0.00     0.040 A 
ATOM     30  C   UNL d   1      26.276 -10.377   2.126  0.00  0.00     0.039 A 
ATOM     31  C   UNL d   1      26.572  -9.147   1.518  0.00  0.00     0.103 A 
ATOM     32  C   UNL d   1      27.436  -9.066   0.421  0.00  0.00     0.039 A 
ATOM     33  C   UNL d   1      28.003 -10.227  -0.067  0.00  0.00     0.040 A 
BRANCH  31  34
ATOM     34  N   UNL d   1      25.997  -7.914   2.051  0.00  0.00    -0.116 N 
ATOM     35  O   UNL d   1      26.406  -7.518   3.150  0.00  0.00    -0.532 OA
ATOM     36  O   UNL d   1      25.157  -7.327   1.355  0.00  0.00    -0.532 OA
ENDBRANCH  31  34
ENDBRANCH  27  28
ENDBRANCH  25  27
ENDBRANCH  24  25
ENDBRANCH   1  24
TORSDOF 13
ENDMDL
MODEL 8
REMARK VINA RESULT:    -8.393      3.140      7.370
REMARK INTER + INTRA:         -15.922
REMARK INTER:                 -12.271
REMARK INTRA:                  -3.651
REMARK CONF_INDEPENDENT:        3.878
REMARK UNBOUND:                -3.651
REMARK  13 active torsions:
REMARK  status: ('A' for Active; 'I' for Inactive)
REMARK    1  A    between atoms: C_2  and  C_3 
REMARK    2  A    between atoms: C_2  and  O_26 
REMARK    3  A    between atoms: C_4  and  C_3 
REMARK    4  A    between atoms: C_4  and  C_16 
REMARK    5  A    between atoms: C_4  and  N_5 
REMARK       I    between atoms: N_5  and  C_6 
REMARK    6  A    between atoms: C_6  and  O_8 
REMARK    7  A    between atoms: O_8  and  C_9 
REMARK    8  A    between atoms: C_9  and  C_10 
REMARK    9  A    between atoms: C_16  and  O_18 
REMARK   10  A    between atoms: O_18  and  C_19 
REMARK   11  A    between atoms: C_19  and  C_20 
REMARK   12  A    between atoms: O_26  and  C_27 
REMARK   13  A    between atoms: C_30  and  N_31 
ROOT
ATOM      1  C   UNL d   1      27.090 -13.351  -5.000  0.00  0.00     0.195 C 
ENDROOT
BRANCH   1   2
ATOM      2  C   UNL d   1      28.104 -14.499  -5.206  0.00  0.00     0.282 C 
ATOM      3  O   UNL d   1      28.161 -15.198  -6.211  0.00  0.00    -0.263 OA
BRANCH   2   4
ATOM      4  O   UNL d   1      28.972 -14.600  -4.163  0.00  0.00    -0.315 OA
BRANCH   4   5
ATOM      5  C   UNL d   1      28.700 -15.772  -3.379  0.00  0.00     0.217 C 
BRANCH   5   6
ATOM      6  C   UNL d   1      28.369 -15.376  -1.965  0.00  0.00    -0.034 A 
ATOM      7  C   UNL d   1      28.321 -16.345  -0.954  0.00  0.00     0.009 A 
ATOM      8  C   UNL d   1      27.909 -15.998   0.331  0.00  0.00     0.001 A 
ATOM      9  C   UNL d   1      27.646 -14.665   0.643  0.00  0.00     0.000 A 
ATOM     10  C   UNL d   1      27.756 -13.684  -0.341  0.00  0.00     0.001 A 
ATOM     11  C   UNL d   1      28.117 -14.038  -1.638  0.00  0.00     0.009 A 
ENDBRANCH   5   6
ENDBRANCH   4   5
ENDBRANCH   2   4
ENDBRANCH   1   2
BRANCH   1  12
ATOM     12  N   UNL d   1      26.157 -13.682  -3.901  0.00  0.00    -0.323 N 
ATOM     13  C   UNL d   1      25.296 -14.742  -4.030  0.00  0.00     0.361 C 
ATOM     14  O   UNL d   1      25.305 -15.538  -4.960  0.00  0.00    -0.238 OA
ATOM     15  H   UNL d   1      26.175 -13.178  -3.023  0.00  0.00     0.165 HD
BRANCH  13  16
ATOM     16  O   UNL d   1      24.393 -14.829  -3.041  0.00  0.00    -0.299 OA
BRANCH  16  17
ATOM     17  C   UNL d   1      25.053 -15.187  -1.803  0.00  0.00     0.219 C 
BRANCH  17  18
ATOM     18  C   UNL d   1      24.421 -16.416  -1.218  0.00  0.00    -0.034 C 
ATOM     19  C   UNL d   1      23.058 -16.409  -0.912  0.00  0.00     0.009 C 
ATOM     20  C   UNL d   1      22.507 -17.419  -0.141  0.00  0.00     0.001 C 
ATOM     21  C   UNL d   1      23.281 -18.516   0.216  0.00  0.00     0.000 C 
ATOM     22  C   UNL d   1      24.621 -18.587  -0.168  0.00  0.00     0.001 C 
ATOM     23  C   UNL d   1      25.198 -17.535  -0.881  0.00  0.00     0.009 C 
ENDBRANCH  17  18
ENDBRANCH  16  17
ENDBRANCH  13  16
ENDBRANCH   1  12
BRANCH   1  24
ATOM     24  C   UNL d   1      27.705 -11.961  -4.819  0.00  0.00     0.147 C 
BRANCH  24  25
ATOM     25  C   UNL d   1      26.942 -11.088  -3.831  0.00  0.00     0.266 C 
ATOM     26  O   UNL d   1      25.735 -11.146  -3.640  0.00  0.00    -0.265 OA
BRANCH  25  27
ATOM     27  O   UNL d   1      27.661 -10.257  -2.993  0.00  0.00    -0.279 OA
BRANCH  27  28
ATOM     28  C   UNL d   1      27.213  -9.648  -1.821  0.00  0.00     0.079 A 
ATOM     29  C   UNL d   1      27.631 -10.234  -0.630  0.00  0.00     0.040 A 
ATOM     30  C   UNL d   1      27.111  -9.752   0.564  0.00  0.00     0.039 A 
ATOM     31  C   UNL d   1      26.286  -8.616   0.538  0.00  0.00     0.103 A 
ATOM     32  C   UNL d   1      25.874  -8.042  -0.669  0.00  0.00     0.039 A 
ATOM     33  C   UNL d   1      26.292  -8.613  -1.855  0.00  0.00     0.040 A 
BRANCH  31  34
ATOM     34  N   UNL d   1      25.867  -7.991   1.791  0.00  0.00    -0.116 N 
ATOM     35  O   UNL d   1      26.119  -8.590   2.844  0.00  0.00    -0.532 OA
ATOM     36  O   UNL d   1      25.311  -6.886   1.721  0.00  0.00    -0.532 OA
ENDBRANCH  31  34
ENDBRANCH  27  28
ENDBRANCH  25  27
ENDBRANCH  24  25
ENDBRANCH   1  24
TORSDOF 13
ENDMDL
MODEL 9
REMARK VINA RESULT:    -7.740      2.936      6.970
REMARK INTER + INTRA:         -15.597
REMARK INTER:                 -11.618
REMARK INTRA:                  -3.980
REMARK CONF_INDEPENDENT:        3.878
REMARK UNBOUND:                -3.980
REMARK  13 active torsions:
REMARK  status: ('A' for Active; 'I' for Inactive)
REMARK    1  A    between atoms: C_2  and  C_3 
REMARK    2  A    between atoms: C_2  and  O_26 
REMARK    3  A    between atoms: C_4  and  C_3 
REMARK    4  A    between atoms: C_4  and  C_16 
REMARK    5  A    between atoms: C_4  and  N_5 
REMARK       I    between atoms: N_5  and  C_6 
REMARK    6  A    between atoms: C_6  and  O_8 
REMARK    7  A    between atoms: O_8  and  C_9 
REMARK    8  A    between atoms: C_9  and  C_10 
REMARK    9  A    between atoms: C_16  and  O_18 
REMARK   10  A    between atoms: O_18  and  C_19 
REMARK   11  A    between atoms: C_19  and  C_20 
REMARK   12  A    between atoms: O_26  and  C_27 
REMARK   13  A    between atoms: C_30  and  N_31 
ROOT
ATOM      1  C   UNL d   1      27.320 -13.440  -4.253  0.00  0.00     0.195 C 
ENDROOT
BRANCH   1   2
ATOM      2  C   UNL d   1      28.138 -14.591  -4.878  0.00  0.00     0.282 C 
ATOM      3  O   UNL d   1      27.813 -15.198  -5.892  0.00  0.00    -0.263 OA
BRANCH   2   4
ATOM      4  O   UNL d   1      29.300 -14.811  -4.204  0.00  0.00    -0.315 OA
BRANCH   4   5
ATOM      5  C   UNL d   1      29.322 -16.128  -3.632  0.00  0.00     0.217 C 
BRANCH   5   6
ATOM      6  C   UNL d   1      29.118 -16.042  -2.144  0.00  0.00    -0.034 A 
ATOM      7  C   UNL d   1      28.086 -16.765  -1.531  0.00  0.00     0.009 A 
ATOM      8  C   UNL d   1      27.828 -16.603  -0.171  0.00  0.00     0.001 A 
ATOM      9  C   UNL d   1      28.663 -15.803   0.607  0.00  0.00     0.000 A 
ATOM     10  C   UNL d   1      29.733 -15.132   0.018  0.00  0.00     0.001 A 
ATOM     11  C   UNL d   1      29.960 -15.253  -1.350  0.00  0.00     0.009 A 
ENDBRANCH   5   6
ENDBRANCH   4   5
ENDBRANCH   2   4
ENDBRANCH   1   2
BRANCH   1  12
ATOM     12  N   UNL d   1      26.422 -13.961  -3.199  0.00  0.00    -0.323 N 
ATOM     13  C   UNL d   1      25.185 -14.452  -3.534  0.00  0.00     0.361 C 
ATOM     14  O   UNL d   1      24.784 -14.606  -4.680  0.00  0.00    -0.238 OA
ATOM     15  H   UNL d   1      26.720 -14.020  -2.233  0.00  0.00     0.165 HD
BRANCH  13  16
ATOM     16  O   UNL d   1      24.410 -14.733  -2.475  0.00  0.00    -0.299 OA
BRANCH  16  17
ATOM     17  C   UNL d   1      25.155 -15.523  -1.517  0.00  0.00     0.219 C 
BRANCH  17  18
ATOM     18  C   UNL d   1      24.286 -16.614  -0.961  0.00  0.00    -0.034 C 
ATOM     19  C   UNL d   1      24.858 -17.844  -0.627  0.00  0.00     0.009 C 
ATOM     20  C   UNL d   1      24.056 -18.941  -0.361  0.00  0.00     0.001 C 
ATOM     21  C   UNL d   1      22.677 -18.788  -0.292  0.00  0.00     0.000 C 
ATOM     22  C   UNL d   1      22.094 -17.541  -0.524  0.00  0.00     0.001 C 
ATOM     23  C   UNL d   1      22.896 -16.451  -0.866  0.00  0.00     0.009 C 
ENDBRANCH  17  18
ENDBRANCH  16  17
ENDBRANCH  13  16
ENDBRANCH   1  12
BRANCH   1  24
ATOM     24  C   UNL d   1      28.143 -12.249  -3.755  0.00  0.00     0.147 C 
BRANCH  24  25
ATOM     25  C   UNL d   1      28.690 -12.441  -2.345  0.00  0.00     0.266 C 
ATOM     26  O   UNL d   1      29.854 -12.254  -2.021  0.00  0.00    -0.265 OA
BRANCH  25  27
ATOM     27  O   UNL d   1      27.801 -12.722  -1.326  0.00  0.00    -0.279 OA
BRANCH  27  28
ATOM     28  C   UNL d   1      27.369 -11.858  -0.320  0.00  0.00     0.079 A 
ATOM     29  C   UNL d   1      27.404 -10.500  -0.626  0.00  0.00     0.040 A 
ATOM     30  C   UNL d   1      27.112  -9.588   0.380  0.00  0.00     0.039 A 
ATOM     31  C   UNL d   1      26.670 -10.063   1.625  0.00  0.00     0.103 A 
ATOM     32  C   UNL d   1      26.645 -11.432   1.914  0.00  0.00     0.039 A 
ATOM     33  C   UNL d   1      27.066 -12.325   0.948  0.00  0.00     0.040 A 
BRANCH  31  34
ATOM     34  N   UNL d   1      26.196  -9.123   2.638  0.00  0.00    -0.116 N 
ATOM     35  O   UNL d   1      25.536  -9.580   3.580  0.00  0.00    -0.532 OA
ATOM     36  O   UNL d   1      26.509  -7.932   2.503  0.00  0.00    -0.532 OA
ENDBRANCH  31  34
ENDBRANCH  27  28
ENDBRANCH  25  27
ENDBRANCH  24  25
ENDBRANCH   1  24
TORSDOF 13
ENDMDL
