MODEL 1
REMARK VINA RESULT:    -8.049      0.000      0.000
REMARK INTER + INTRA:         -11.641
REMARK INTER:                 -10.137
REMARK INTRA:                  -1.504
REMARK CONF_INDEPENDENT:        2.088
REMARK UNBOUND:                -1.504
REMARK  7 active torsions:
REMARK  status: ('A' for Active; 'I' for Inactive)
REMARK    1  A    between atoms: C_2  and  O_3 
REMARK    2  A    between atoms: O_3  and  C_4 
REMARK    3  A    between atoms: C_9  and  C_10 
REMARK    4  A    between atoms: C_10  and  C_11 
REMARK    5  A    between atoms: C_11  and  C_12 
REMARK       I    between atoms: C_12  and  N_14 
REMARK    6  A    between atoms: N_14  and  N_15 
REMARK       I    between atoms: N_15  and  C_16 
REMARK       I    between atoms: C_16  and  N_18 
REMARK    7  A    between atoms: N_18  and  C_19 
ROOT
ATOM      1  C   UNL d   1      24.580 -17.725  -0.796  0.00  0.00     0.236 C 
ATOM      2  O   UNL d   1      25.152 -18.058   0.253  0.00  0.00    -0.272 OA
ATOM      3  N   UNL d   1      23.239 -18.054  -1.051  0.00  0.00    -0.266 N 
ATOM      4  H   UNL d   1      22.703 -17.819  -1.890  0.00  0.00     0.190 HD
ENDROOT
BRANCH   1   5
ATOM      5  C   UNL d   1      25.254 -16.849  -1.818  0.00  0.00     0.109 C 
BRANCH   5   6
ATOM      6  C   UNL d   1      26.441 -15.948  -1.681  0.00  0.00     0.051 C 
BRANCH   6   7
ATOM      7  C   UNL d   1      27.088 -15.604  -3.035  0.00  0.00    -0.024 A 
ATOM      8  C   UNL d   1      28.469 -15.951  -3.075  0.00  0.00     0.010 A 
ATOM      9  C   UNL d   1      29.246 -15.802  -4.220  0.00  0.00     0.001 A 
ATOM     10  C   UNL d   1      28.660 -15.292  -5.368  0.00  0.00     0.003 A 
ATOM     11  C   UNL d   1      27.316 -14.880  -5.347  0.00  0.00     0.037 A 
ATOM     12  C   UNL d   1      26.502 -15.023  -4.198  0.00  0.00     0.075 A 
BRANCH  12  13
ATOM     13  O   UNL d   1      25.152 -14.815  -4.453  0.00  0.00    -0.351 OA
BRANCH  13  14
ATOM     14  C   UNL d   1      24.443 -13.700  -3.896  0.00  0.00     0.171 C 
ATOM     15  C   UNL d   1      25.326 -12.523  -3.514  0.00  0.00     0.034 C 
ENDBRANCH  13  14
ENDBRANCH  12  13
ENDBRANCH   6   7
ENDBRANCH   5   6
ENDBRANCH   1   5
BRANCH   3  16
ATOM     16  N   UNL d   1      22.534 -18.818  -0.074  0.00  0.00    -0.249 N 
ATOM     17  C   UNL d   1      21.148 -18.915  -0.081  0.00  0.00     0.335 C 
ATOM     18  O   UNL d   1      20.446 -18.306  -0.896  0.00  0.00    -0.246 OA
ATOM     19  N   UNL d   1      20.633 -19.750   0.909  0.00  0.00    -0.337 N 
ATOM     20  H   UNL d   1      21.276 -20.235   1.519  0.00  0.00     0.164 HD
ATOM     21  H   UNL d   1      23.131 -19.310   0.582  0.00  0.00     0.192 HD
BRANCH  19  22
ATOM     22  C   UNL d   1      19.219 -20.031   1.050  0.00  0.00     0.086 A 
ATOM     23  C   UNL d   1      18.406 -20.466  -0.148  0.00  0.00     0.027 A 
ATOM     24  C   UNL d   1      18.617 -21.418   0.989  0.00  0.00     0.027 A 
ENDBRANCH  19  22
ENDBRANCH   3  16
TORSDOF 7
ENDMDL
MODEL 2
REMARK VINA RESULT:    -7.880      1.088      2.202
REMARK INTER + INTRA:         -11.442
REMARK INTER:                  -9.968
REMARK INTRA:                  -1.474
REMARK CONF_INDEPENDENT:        2.088
REMARK UNBOUND:                -1.474
REMARK  7 active torsions:
REMARK  status: ('A' for Active; 'I' for Inactive)
REMARK    1  A    between atoms: C_2  and  O_3 
REMARK    2  A    between atoms: O_3  and  C_4 
REMARK    3  A    between atoms: C_9  and  C_10 
REMARK    4  A    between atoms: C_10  and  C_11 
REMARK    5  A    between atoms: C_11  and  C_12 
REMARK       I    between atoms: C_12  and  N_14 
REMARK    6  A    between atoms: N_14  and  N_15 
REMARK       I    between atoms: N_15  and  C_16 
REMARK       I    between atoms: C_16  and  N_18 
REMARK    7  A    between atoms: N_18  and  C_19 
ROOT
ATOM      1  C   UNL d   1      24.561 -17.887  -0.750  0.00  0.00     0.236 C 
ATOM      2  O   UNL d   1      25.093 -18.364   0.263  0.00  0.00    -0.272 OA
ATOM      3  N   UNL d   1      23.214 -18.123  -1.067  0.00  0.00    -0.266 N 
ATOM      4  H   UNL d   1      22.708 -17.769  -1.882  0.00  0.00     0.190 HD
ENDROOT
BRANCH   1   5
ATOM      5  C   UNL d   1      25.296 -16.929  -1.650  0.00  0.00     0.109 C 
BRANCH   5   6
ATOM      6  C   UNL d   1      26.508 -16.094  -1.382  0.00  0.00     0.051 C 
BRANCH   6   7
ATOM      7  C   UNL d   1      26.361 -14.648  -1.889  0.00  0.00    -0.024 A 
ATOM      8  C   UNL d   1      27.037 -13.713  -1.052  0.00  0.00     0.010 A 
ATOM      9  C   UNL d   1      27.106 -12.355  -1.350  0.00  0.00     0.001 A 
ATOM     10  C   UNL d   1      26.494 -11.887  -2.502  0.00  0.00     0.003 A 
ATOM     11  C   UNL d   1      25.764 -12.770  -3.317  0.00  0.00     0.037 A 
ATOM     12  C   UNL d   1      25.679 -14.156  -3.040  0.00  0.00     0.075 A 
BRANCH  12  13
ATOM     13  O   UNL d   1      25.153 -14.894  -4.094  0.00  0.00    -0.351 OA
BRANCH  13  14
ATOM     14  C   UNL d   1      25.997 -15.575  -5.032  0.00  0.00     0.171 C 
ATOM     15  C   UNL d   1      27.267 -14.821  -5.394  0.00  0.00     0.034 C 
ENDBRANCH  13  14
ENDBRANCH  12  13
ENDBRANCH   6   7
ENDBRANCH   5   6
ENDBRANCH   1   5
BRANCH   3  16
ATOM     16  N   UNL d   1      22.454 -18.963  -0.199  0.00  0.00    -0.249 N 
ATOM     17  C   UNL d   1      21.065 -18.962  -0.210  0.00  0.00     0.335 C 
ATOM     18  O   UNL d   1      20.410 -18.201  -0.931  0.00  0.00    -0.246 OA
ATOM     19  N   UNL d   1      20.489 -19.886   0.659  0.00  0.00    -0.337 N 
ATOM     20  H   UNL d   1      21.096 -20.494   1.193  0.00  0.00     0.164 HD
ATOM     21  H   UNL d   1      23.014 -19.580   0.381  0.00  0.00     0.192 HD
BRANCH  19  22
ATOM     22  C   UNL d   1      19.059 -20.085   0.769  0.00  0.00     0.086 A 
ATOM     23  C   UNL d   1      18.497 -21.474   0.977  0.00  0.00     0.027 A 
ATOM     24  C   UNL d   1      18.346 -20.445   2.055  0.00  0.00     0.027 A 
ENDBRANCH  19  22
ENDBRANCH   3  16
TORSDOF 7
ENDMDL
MODEL 3
REMARK VINA RESULT:    -7.811      1.034      2.484
REMARK INTER + INTRA:         -11.365
REMARK INTER:                  -9.899
REMARK INTRA:                  -1.466
REMARK CONF_INDEPENDENT:        2.088
REMARK UNBOUND:                -1.466
REMARK  7 active torsions:
REMARK  status: ('A' for Active; 'I' for Inactive)
REMARK    1  A    between atoms: C_2  and  O_3 
REMARK    2  A    between atoms: O_3  and  C_4 
REMARK    3  A    between atoms: C_9  and  C_10 
REMARK    4  A    between atoms: C_10  and  C_11 
REMARK    5  A    between atoms: C_11  and  C_12 
REMARK       I    between atoms: C_12  and  N_14 
REMARK    6  A    between atoms: N_14  and  N_15 
REMARK       I    between atoms: N_15  and  C_16 
REMARK       I    between atoms: C_16  and  N_18 
REMARK    7  A    between atoms: N_18  and  C_19 
ROOT
ATOM      1  C   UNL d   1      24.491 -17.468  -0.652  0.00  0.00     0.236 C 
ATOM      2  O   UNL d   1      25.110 -18.180   0.151  0.00  0.00    -0.272 OA
ATOM      3  N   UNL d   1      23.117 -17.633  -0.889  0.00  0.00    -0.266 N 
ATOM      4  H   UNL d   1      22.541 -17.089  -1.537  0.00  0.00     0.190 HD
ENDROOT
BRANCH   1   5
ATOM      5  C   UNL d   1      25.149 -16.305  -1.345  0.00  0.00     0.109 C 
BRANCH   5   6
ATOM      6  C   UNL d   1      26.169 -16.287  -2.439  0.00  0.00     0.051 C 
BRANCH   6   7
ATOM      7  C   UNL d   1      26.148 -14.982  -3.255  0.00  0.00    -0.024 A 
ATOM      8  C   UNL d   1      25.585 -13.898  -2.522  0.00  0.00     0.010 A 
ATOM      9  C   UNL d   1      25.529 -12.602  -3.026  0.00  0.00     0.001 A 
ATOM     10  C   UNL d   1      26.035 -12.350  -4.292  0.00  0.00     0.003 A 
ATOM     11  C   UNL d   1      26.540 -13.407  -5.069  0.00  0.00     0.037 A 
ATOM     12  C   UNL d   1      26.612 -14.734  -4.580  0.00  0.00     0.075 A 
BRANCH  12  13
ATOM     13  O   UNL d   1      27.382 -15.571  -5.379  0.00  0.00    -0.351 OA
BRANCH  13  14
ATOM     14  C   UNL d   1      28.809 -15.627  -5.256  0.00  0.00     0.171 C 
ATOM     15  C   UNL d   1      29.563 -14.955  -6.392  0.00  0.00     0.034 C 
ENDBRANCH  13  14
ENDBRANCH  12  13
ENDBRANCH   6   7
ENDBRANCH   5   6
ENDBRANCH   1   5
BRANCH   3  16
ATOM     16  N   UNL d   1      22.432 -18.674  -0.195  0.00  0.00    -0.249 N 
ATOM     17  C   UNL d   1      21.053 -18.820  -0.270  0.00  0.00     0.335 C 
ATOM     18  O   UNL d   1      20.336 -18.031  -0.897  0.00  0.00    -0.246 OA
ATOM     19  N   UNL d   1      20.560 -19.925   0.422  0.00  0.00    -0.337 N 
ATOM     20  H   UNL d   1      21.216 -20.540   0.885  0.00  0.00     0.164 HD
ATOM     21  H   UNL d   1      23.041 -19.310   0.310  0.00  0.00     0.192 HD
BRANCH  19  22
ATOM     22  C   UNL d   1      19.159 -20.292   0.434  0.00  0.00     0.086 A 
ATOM     23  C   UNL d   1      18.728 -21.634   0.981  0.00  0.00     0.027 A 
ATOM     24  C   UNL d   1      18.314 -20.379   1.686  0.00  0.00     0.027 A 
ENDBRANCH  19  22
ENDBRANCH   3  16
TORSDOF 7
ENDMDL
MODEL 4
REMARK VINA RESULT:    -7.506      1.254      2.514
REMARK INTER + INTRA:         -11.127
REMARK INTER:                  -9.594
REMARK INTRA:                  -1.533
REMARK CONF_INDEPENDENT:        2.088
REMARK UNBOUND:                -1.533
REMARK  7 active torsions:
REMARK  status: ('A' for Active; 'I' for Inactive)
REMARK    1  A    between atoms: C_2  and  O_3 
REMARK    2  A    between atoms: O_3  and  C_4 
REMARK    3  A    between atoms: C_9  and  C_10 
REMARK    4  A    between atoms: C_10  and  C_11 
REMARK    5  A    between atoms: C_11  and  C_12 
REMARK       I    between atoms: C_12  and  N_14 
REMARK    6  A    between atoms: N_14  and  N_15 
REMARK       I    between atoms: N_15  and  C_16 
REMARK       I    between atoms: C_16  and  N_18 
REMARK    7  A    between atoms: N_18  and  C_19 
ROOT
ATOM      1  C   UNL d   1      24.567 -18.002  -0.644  0.00  0.00     0.236 C 
ATOM      2  O   UNL d   1      25.090 -18.577   0.321  0.00  0.00    -0.272 OA
ATOM      3  N   UNL d   1      23.208 -18.163  -0.960  0.00  0.00    -0.266 N 
ATOM      4  H   UNL d   1      22.708 -17.727  -1.739  0.00  0.00     0.190 HD
ENDROOT
BRANCH   1   5
ATOM      5  C   UNL d   1      25.328 -17.005  -1.476  0.00  0.00     0.109 C 
BRANCH   5   6
ATOM      6  C   UNL d   1      25.099 -15.540  -1.671  0.00  0.00     0.051 C 
BRANCH   6   7
ATOM      7  C   UNL d   1      25.802 -14.986  -2.924  0.00  0.00    -0.024 A 
ATOM      8  C   UNL d   1      25.059 -13.938  -3.539  0.00  0.00     0.010 A 
ATOM      9  C   UNL d   1      25.531 -13.234  -4.644  0.00  0.00     0.001 A 
ATOM     10  C   UNL d   1      26.770 -13.564  -5.172  0.00  0.00     0.003 A 
ATOM     11  C   UNL d   1      27.502 -14.634  -4.629  0.00  0.00     0.037 A 
ATOM     12  C   UNL d   1      27.048 -15.365  -3.505  0.00  0.00     0.075 A 
BRANCH  12  13
ATOM     13  O   UNL d   1      28.023 -16.191  -2.958  0.00  0.00    -0.351 OA
BRANCH  13  14
ATOM     14  C   UNL d   1      28.738 -15.827  -1.770  0.00  0.00     0.171 C 
ATOM     15  C   UNL d   1      28.742 -16.895  -0.688  0.00  0.00     0.034 C 
ENDBRANCH  13  14
ENDBRANCH  12  13
ENDBRANCH   6   7
ENDBRANCH   5   6
ENDBRANCH   1   5
BRANCH   3  16
ATOM     16  N   UNL d   1      22.426 -19.039  -0.151  0.00  0.00    -0.249 N 
ATOM     17  C   UNL d   1      21.037 -19.036  -0.199  0.00  0.00     0.335 C 
ATOM     18  O   UNL d   1      20.401 -18.244  -0.903  0.00  0.00    -0.246 OA
ATOM     19  N   UNL d   1      20.439 -19.997   0.613  0.00  0.00    -0.337 N 
ATOM     20  H   UNL d   1      21.031 -20.628   1.136  0.00  0.00     0.164 HD
ATOM     21  H   UNL d   1      22.970 -19.681   0.416  0.00  0.00     0.192 HD
BRANCH  19  22
ATOM     22  C   UNL d   1      19.006 -20.200   0.676  0.00  0.00     0.086 A 
ATOM     23  C   UNL d   1      18.443 -21.570   0.980  0.00  0.00     0.027 A 
ATOM     24  C   UNL d   1      18.238 -20.452   1.955  0.00  0.00     0.027 A 
ENDBRANCH  19  22
ENDBRANCH   3  16
TORSDOF 7
ENDMDL
MODEL 5
REMARK VINA RESULT:    -7.240      1.842      2.772
REMARK INTER + INTRA:         -10.924
REMARK INTER:                  -9.328
REMARK INTRA:                  -1.596
REMARK CONF_INDEPENDENT:        2.088
REMARK UNBOUND:                -1.596
REMARK  7 active torsions:
REMARK  status: ('A' for Active; 'I' for Inactive)
REMARK    1  A    between atoms: C_2  and  O_3 
REMARK    2  A    between atoms: O_3  and  C_4 
REMARK    3  A    between atoms: C_9  and  C_10 
REMARK    4  A    between atoms: C_10  and  C_11 
REMARK    5  A    between atoms: C_11  and  C_12 
REMARK       I    between atoms: C_12  and  N_14 
REMARK    6  A    between atoms: N_14  and  N_15 
REMARK       I    between atoms: N_15  and  C_16 
REMARK       I    between atoms: C_16  and  N_18 
REMARK    7  A    between atoms: N_18  and  C_19 
ROOT
ATOM      1  C   UNL d   1      24.726 -18.012  -0.528  0.00  0.00     0.236 C 
ATOM      2  O   UNL d   1      25.220 -18.572   0.461  0.00  0.00    -0.272 OA
ATOM      3  N   UNL d   1      23.366 -18.139  -0.855  0.00  0.00    -0.266 N 
ATOM      4  H   UNL d   1      22.889 -17.713  -1.653  0.00  0.00     0.190 HD
ENDROOT
BRANCH   1   5
ATOM      5  C   UNL d   1      25.528 -17.068  -1.383  0.00  0.00     0.109 C 
BRANCH   5   6
ATOM      6  C   UNL d   1      25.155 -16.362  -2.648  0.00  0.00     0.051 C 
BRANCH   6   7
ATOM      7  C   UNL d   1      25.689 -14.919  -2.706  0.00  0.00    -0.024 A 
ATOM      8  C   UNL d   1      25.543 -14.343  -4.001  0.00  0.00     0.010 A 
ATOM      9  C   UNL d   1      25.887 -13.022  -4.276  0.00  0.00     0.001 A 
ATOM     10  C   UNL d   1      26.395 -12.233  -3.257  0.00  0.00     0.003 A 
ATOM     11  C   UNL d   1      26.612 -12.787  -1.983  0.00  0.00     0.037 A 
ATOM     12  C   UNL d   1      26.270 -14.125  -1.674  0.00  0.00     0.075 A 
BRANCH  12  13
ATOM     13  O   UNL d   1      26.305 -14.399  -0.312  0.00  0.00    -0.351 OA
BRANCH  13  14
ATOM     14  C   UNL d   1      27.533 -14.699   0.365  0.00  0.00     0.171 C 
ATOM     15  C   UNL d   1      28.370 -15.778  -0.305  0.00  0.00     0.034 C 
ENDBRANCH  13  14
ENDBRANCH  12  13
ENDBRANCH   6   7
ENDBRANCH   5   6
ENDBRANCH   1   5
BRANCH   3  16
ATOM     16  N   UNL d   1      22.547 -18.963  -0.027  0.00  0.00    -0.249 N 
ATOM     17  C   UNL d   1      21.162 -18.964  -0.137  0.00  0.00     0.335 C 
ATOM     18  O   UNL d   1      20.559 -18.219  -0.918  0.00  0.00    -0.246 OA
ATOM     19  N   UNL d   1      20.526 -19.872   0.708  0.00  0.00    -0.337 N 
ATOM     20  H   UNL d   1      21.093 -20.468   1.296  0.00  0.00     0.164 HD
ATOM     21  H   UNL d   1      23.064 -19.567   0.604  0.00  0.00     0.192 HD
BRANCH  19  22
ATOM     22  C   UNL d   1      19.092 -20.072   0.720  0.00  0.00     0.086 A 
ATOM     23  C   UNL d   1      18.518 -21.462   0.878  0.00  0.00     0.027 A 
ATOM     24  C   UNL d   1      18.295 -20.441   1.951  0.00  0.00     0.027 A 
ENDBRANCH  19  22
ENDBRANCH   3  16
TORSDOF 7
ENDMDL
MODEL 6
REMARK VINA RESULT:    -7.006      1.705      2.712
REMARK INTER + INTRA:         -10.664
REMARK INTER:                  -9.094
REMARK INTRA:                  -1.570
REMARK CONF_INDEPENDENT:        2.088
REMARK UNBOUND:                -1.570
REMARK  7 active torsions:
REMARK  status: ('A' for Active; 'I' for Inactive)
REMARK    1  A    between atoms: C_2  and  O_3 
REMARK    2  A    between atoms: O_3  and  C_4 
REMARK    3  A    between atoms: C_9  and  C_10 
REMARK    4  A    between atoms: C_10  and  C_11 
REMARK    5  A    between atoms: C_11  and  C_12 
REMARK       I    between atoms: C_12  and  N_14 
REMARK    6  A    between atoms: N_14  and  N_15 
REMARK       I    between atoms: N_15  and  C_16 
REMARK       I    between atoms: C_16  and  N_18 
REMARK    7  A    between atoms: N_18  and  C_19 
ROOT
ATOM      1  C   UNL d   1      24.444 -17.902  -0.619  0.00  0.00     0.236 C 
ATOM      2  O   UNL d   1      24.967 -18.179   0.470  0.00  0.00    -0.272 OA
ATOM      3  N   UNL d   1      23.106 -18.215  -0.904  0.00  0.00    -0.266 N 
ATOM      4  H   UNL d   1      22.607 -18.023  -1.776  0.00  0.00     0.190 HD
ENDROOT
BRANCH   1   5
ATOM      5  C   UNL d   1      25.178 -17.111  -1.669  0.00  0.00     0.109 C 
BRANCH   5   6
ATOM      6  C   UNL d   1      26.605 -16.665  -1.716  0.00  0.00     0.051 C 
BRANCH   6   7
ATOM      7  C   UNL d   1      26.877 -15.437  -0.828  0.00  0.00    -0.024 A 
ATOM      8  C   UNL d   1      27.420 -15.799   0.439  0.00  0.00     0.010 A 
ATOM      9  C   UNL d   1      27.816 -14.854   1.381  0.00  0.00     0.001 A 
ATOM     10  C   UNL d   1      27.676 -13.507   1.083  0.00  0.00     0.003 A 
ATOM     11  C   UNL d   1      27.086 -13.115  -0.132  0.00  0.00     0.037 A 
ATOM     12  C   UNL d   1      26.677 -14.054  -1.109  0.00  0.00     0.075 A 
BRANCH  12  13
ATOM     13  O   UNL d   1      26.375 -13.473  -2.335  0.00  0.00    -0.351 OA
BRANCH  13  14
ATOM     14  C   UNL d   1      25.244 -13.893  -3.109  0.00  0.00     0.171 C 
ATOM     15  C   UNL d   1      25.586 -14.369  -4.512  0.00  0.00     0.034 C 
ENDBRANCH  13  14
ENDBRANCH  12  13
ENDBRANCH   6   7
ENDBRANCH   5   6
ENDBRANCH   1   5
BRANCH   3  16
ATOM     16  N   UNL d   1      22.345 -18.898   0.092  0.00  0.00    -0.249 N 
ATOM     17  C   UNL d   1      20.962 -19.004   0.012  0.00  0.00     0.335 C 
ATOM     18  O   UNL d   1      20.309 -18.474  -0.893  0.00  0.00    -0.246 OA
ATOM     19  N   UNL d   1      20.391 -19.754   1.039  0.00  0.00    -0.337 N 
ATOM     20  H   UNL d   1      20.998 -20.180   1.725  0.00  0.00     0.164 HD
ATOM     21  H   UNL d   1      22.903 -19.326   0.823  0.00  0.00     0.192 HD
BRANCH  19  22
ATOM     22  C   UNL d   1      18.972 -20.032   1.120  0.00  0.00     0.086 A 
ATOM     23  C   UNL d   1      18.279 -20.787   0.008  0.00  0.00     0.027 A 
ATOM     24  C   UNL d   1      18.387 -21.406   1.368  0.00  0.00     0.027 A 
ENDBRANCH  19  22
ENDBRANCH   3  16
TORSDOF 7
ENDMDL
MODEL 7
REMARK VINA RESULT:    -6.848      3.944      8.832
REMARK INTER + INTRA:         -10.507
REMARK INTER:                  -8.936
REMARK INTRA:                  -1.571
REMARK CONF_INDEPENDENT:        2.088
REMARK UNBOUND:                -1.571
REMARK  7 active torsions:
REMARK  status: ('A' for Active; 'I' for Inactive)
REMARK    1  A    between atoms: C_2  and  O_3 
REMARK    2  A    between atoms: O_3  and  C_4 
REMARK    3  A    between atoms: C_9  and  C_10 
REMARK    4  A    between atoms: C_10  and  C_11 
REMARK    5  A    between atoms: C_11  and  C_12 
REMARK       I    between atoms: C_12  and  N_14 
REMARK    6  A    between atoms: N_14  and  N_15 
REMARK       I    between atoms: N_15  and  C_16 
REMARK       I    between atoms: C_16  and  N_18 
REMARK    7  A    between atoms: N_18  and  C_19 
ROOT
ATOM      1  C   UNL d   1      25.456 -14.319  -3.218  0.00  0.00     0.236 C 
ATOM      2  O   UNL d   1      24.780 -14.603  -4.217  0.00  0.00    -0.272 OA
ATOM      3  N   UNL d   1      25.766 -12.992  -2.880  0.00  0.00    -0.266 N 
ATOM      4  H   UNL d   1      26.320 -12.681  -2.078  0.00  0.00     0.190 HD
ENDROOT
BRANCH   1   5
ATOM      5  C   UNL d   1      25.897 -15.373  -2.237  0.00  0.00     0.109 C 
BRANCH   5   6
ATOM      6  C   UNL d   1      25.505 -15.584  -0.809  0.00  0.00     0.051 C 
BRANCH   6   7
ATOM      7  C   UNL d   1      24.495 -16.733  -0.631  0.00  0.00    -0.024 A 
ATOM      8  C   UNL d   1      23.160 -16.325  -0.916  0.00  0.00     0.010 A 
ATOM      9  C   UNL d   1      22.086 -17.210  -0.894  0.00  0.00     0.001 A 
ATOM     10  C   UNL d   1      22.317 -18.541  -0.581  0.00  0.00     0.003 A 
ATOM     11  C   UNL d   1      23.611 -18.965  -0.233  0.00  0.00     0.037 A 
ATOM     12  C   UNL d   1      24.722 -18.088  -0.249  0.00  0.00     0.075 A 
BRANCH  12  13
ATOM     13  O   UNL d   1      25.942 -18.746  -0.144  0.00  0.00    -0.351 OA
BRANCH  13  14
ATOM     14  C   UNL d   1      27.034 -18.193   0.604  0.00  0.00     0.171 C 
ATOM     15  C   UNL d   1      28.060 -17.454  -0.240  0.00  0.00     0.034 C 
ENDBRANCH  13  14
ENDBRANCH  12  13
ENDBRANCH   6   7
ENDBRANCH   5   6
ENDBRANCH   1   5
BRANCH   3  16
ATOM     16  N   UNL d   1      25.303 -11.951  -3.738  0.00  0.00    -0.249 N 
ATOM     17  C   UNL d   1      25.651 -10.622  -3.532  0.00  0.00     0.335 C 
ATOM     18  O   UNL d   1      26.336 -10.259  -2.569  0.00  0.00    -0.246 OA
ATOM     19  N   UNL d   1      25.158  -9.749  -4.500  0.00  0.00    -0.337 N 
ATOM     20  H   UNL d   1      24.630 -10.130  -5.273  0.00  0.00     0.164 HD
ATOM     21  H   UNL d   1      24.744 -12.274  -4.522  0.00  0.00     0.192 HD
BRANCH  19  22
ATOM     22  C   UNL d   1      25.443  -8.329  -4.504  0.00  0.00     0.086 A 
ATOM     23  C   UNL d   1      25.962  -7.661  -5.757  0.00  0.00     0.027 A 
ATOM     24  C   UNL d   1      24.608  -7.296  -5.229  0.00  0.00     0.027 A 
ENDBRANCH  19  22
ENDBRANCH   3  16
TORSDOF 7
ENDMDL
MODEL 8
REMARK VINA RESULT:    -6.749      2.542      3.430
REMARK INTER + INTRA:         -10.279
REMARK INTER:                  -8.838
REMARK INTRA:                  -1.442
REMARK CONF_INDEPENDENT:        2.088
REMARK UNBOUND:                -1.442
REMARK  7 active torsions:
REMARK  status: ('A' for Active; 'I' for Inactive)
REMARK    1  A    between atoms: C_2  and  O_3 
REMARK    2  A    between atoms: O_3  and  C_4 
REMARK    3  A    between atoms: C_9  and  C_10 
REMARK    4  A    between atoms: C_10  and  C_11 
REMARK    5  A    between atoms: C_11  and  C_12 
REMARK       I    between atoms: C_12  and  N_14 
REMARK    6  A    between atoms: N_14  and  N_15 
REMARK       I    between atoms: N_15  and  C_16 
REMARK       I    between atoms: C_16  and  N_18 
REMARK    7  A    between atoms: N_18  and  C_19 
ROOT
ATOM      1  C   UNL d   1      24.482 -18.018  -0.794  0.00  0.00     0.236 C 
ATOM      2  O   UNL d   1      25.027 -18.568   0.173  0.00  0.00    -0.272 OA
ATOM      3  N   UNL d   1      23.122 -18.201  -1.088  0.00  0.00    -0.266 N 
ATOM      4  H   UNL d   1      22.605 -17.786  -1.867  0.00  0.00     0.190 HD
ENDROOT
BRANCH   1   5
ATOM      5  C   UNL d   1      25.218 -17.026  -1.656  0.00  0.00     0.109 C 
BRANCH   5   6
ATOM      6  C   UNL d   1      25.595 -15.605  -1.380  0.00  0.00     0.051 C 
BRANCH   6   7
ATOM      7  C   UNL d   1      26.886 -15.479  -0.550  0.00  0.00    -0.024 A 
ATOM      8  C   UNL d   1      27.849 -16.470  -0.900  0.00  0.00     0.010 A 
ATOM      9  C   UNL d   1      29.121 -16.509  -0.336  0.00  0.00     0.001 A 
ATOM     10  C   UNL d   1      29.470 -15.553   0.604  0.00  0.00     0.003 A 
ATOM     11  C   UNL d   1      28.524 -14.599   1.019  0.00  0.00     0.037 A 
ATOM     12  C   UNL d   1      27.225 -14.534   0.462  0.00  0.00     0.075 A 
BRANCH  12  13
ATOM     13  O   UNL d   1      26.542 -13.371   0.798  0.00  0.00    -0.351 OA
BRANCH  13  14
ATOM     14  C   UNL d   1      26.655 -12.780   2.100  0.00  0.00     0.171 C 
ATOM     15  C   UNL d   1      27.670 -11.652   2.189  0.00  0.00     0.034 C 
ENDBRANCH  13  14
ENDBRANCH  12  13
ENDBRANCH   6   7
ENDBRANCH   5   6
ENDBRANCH   1   5
BRANCH   3  16
ATOM     16  N   UNL d   1      22.363 -19.073  -0.251  0.00  0.00    -0.249 N 
ATOM     17  C   UNL d   1      20.974 -19.060  -0.250  0.00  0.00     0.335 C 
ATOM     18  O   UNL d   1      20.318 -18.263  -0.930  0.00  0.00    -0.246 OA
ATOM     19  N   UNL d   1      20.398 -20.018   0.584  0.00  0.00    -0.337 N 
ATOM     20  H   UNL d   1      21.004 -20.653   1.085  0.00  0.00     0.164 HD
ATOM     21  H   UNL d   1      22.922 -19.719   0.296  0.00  0.00     0.192 HD
BRANCH  19  22
ATOM     22  C   UNL d   1      18.967 -20.210   0.698  0.00  0.00     0.086 A 
ATOM     23  C   UNL d   1      18.406 -21.575   1.029  0.00  0.00     0.027 A 
ATOM     24  C   UNL d   1      18.243 -20.450   2.004  0.00  0.00     0.027 A 
ENDBRANCH  19  22
ENDBRANCH   3  16
TORSDOF 7
ENDMDL
MODEL 9
REMARK VINA RESULT:    -5.174      3.753      8.129
REMARK INTER + INTRA:          -9.880
REMARK INTER:                  -7.262
REMARK INTRA:                  -2.618
REMARK CONF_INDEPENDENT:        2.088
REMARK UNBOUND:                -2.618
REMARK  7 active torsions:
REMARK  status: ('A' for Active; 'I' for Inactive)
REMARK    1  A    between atoms: C_2  and  O_3 
REMARK    2  A    between atoms: O_3  and  C_4 
REMARK    3  A    between atoms: C_9  and  C_10 
REMARK    4  A    between atoms: C_10  and  C_11 
REMARK    5  A    between atoms: C_11  and  C_12 
REMARK       I    between atoms: C_12  and  N_14 
REMARK    6  A    between atoms: N_14  and  N_15 
REMARK       I    between atoms: N_15  and  C_16 
REMARK       I    between atoms: C_16  and  N_18 
REMARK    7  A    between atoms: N_18  and  C_19 
ROOT
ATOM      1  C   UNL d   1      28.611 -16.938  -1.167  0.00  0.00     0.236 C 
ATOM      2  O   UNL d   1      29.802 -17.215  -0.965  0.00  0.00    -0.272 OA
ATOM      3  N   UNL d   1      28.164 -16.419  -2.393  0.00  0.00    -0.266 N 
ATOM      4  H   UNL d   1      27.202 -16.163  -2.633  0.00  0.00     0.190 HD
ENDROOT
BRANCH   1   5
ATOM      5  C   UNL d   1      27.545 -17.243  -0.148  0.00  0.00     0.109 C 
BRANCH   5   6
ATOM      6  C   UNL d   1      26.512 -18.324  -0.130  0.00  0.00     0.051 C 
BRANCH   6   7
ATOM      7  C   UNL d   1      25.093 -17.800  -0.419  0.00  0.00    -0.024 A 
ATOM      8  C   UNL d   1      24.091 -18.573   0.235  0.00  0.00     0.010 A 
ATOM      9  C   UNL d   1      22.739 -18.245   0.181  0.00  0.00     0.001 A 
ATOM     10  C   UNL d   1      22.347 -17.126  -0.536  0.00  0.00     0.003 A 
ATOM     11  C   UNL d   1      23.302 -16.376  -1.246  0.00  0.00     0.037 A 
ATOM     12  C   UNL d   1      24.682 -16.685  -1.207  0.00  0.00     0.075 A 
BRANCH  12  13
ATOM     13  O   UNL d   1      25.484 -15.682  -1.740  0.00  0.00    -0.351 OA
BRANCH  13  14
ATOM     14  C   UNL d   1      25.013 -14.815  -2.780  0.00  0.00     0.171 C 
ATOM     15  C   UNL d   1      25.946 -13.659  -3.103  0.00  0.00     0.034 C 
ENDBRANCH  13  14
ENDBRANCH  12  13
ENDBRANCH   6   7
ENDBRANCH   5   6
ENDBRANCH   1   5
BRANCH   3  16
ATOM     16  N   UNL d   1      29.127 -16.186  -3.419  0.00  0.00    -0.249 N 
ATOM     17  C   UNL d   1      28.759 -15.743  -4.683  0.00  0.00     0.335 C 
ATOM     18  O   UNL d   1      27.577 -15.575  -5.007  0.00  0.00    -0.246 OA
ATOM     19  N   UNL d   1      29.833 -15.512  -5.540  0.00  0.00    -0.337 N 
ATOM     20  H   UNL d   1      30.772 -15.644  -5.188  0.00  0.00     0.164 HD
ATOM     21  H   UNL d   1      30.089 -16.328  -3.129  0.00  0.00     0.192 HD
BRANCH  19  22
ATOM     22  C   UNL d   1      29.677 -15.000  -6.885  0.00  0.00     0.086 A 
ATOM     23  C   UNL d   1      29.220 -13.576  -7.110  0.00  0.00     0.027 A 
ATOM     24  C   UNL d   1      30.601 -13.984  -7.522  0.00  0.00     0.027 A 
ENDBRANCH  19  22
ENDBRANCH   3  16
TORSDOF 7
ENDMDL
