MODEL 1
REMARK VINA RESULT:   -10.590      0.000      0.000
REMARK INTER + INTRA:         -16.466
REMARK INTER:                 -14.468
REMARK INTRA:                  -1.998
REMARK CONF_INDEPENDENT:        3.878
REMARK UNBOUND:                -1.998
REMARK  13 active torsions:
REMARK  status: ('A' for Active; 'I' for Inactive)
REMARK    1  A    between atoms: C_2  and  C_3 
REMARK    2  A    between atoms: C_3  and  C_4 
REMARK    3  A    between atoms: C_4  and  O_5 
REMARK    4  A    between atoms: O_5  and  C_6 
REMARK    5  A    between atoms: C_9  and  C_10 
REMARK    6  A    between atoms: C_10  and  O_12 
REMARK    7  A    between atoms: O_12  and  C_13 
REMARK    8  A    between atoms: C_16  and  C_17 
REMARK    9  A    between atoms: N_18  and  N_19 
REMARK   10  A    between atoms: N_19  and  C_20 
REMARK   11  A    between atoms: C_20  and  N_22 
REMARK   12  A    between atoms: N_22  and  C_23 
REMARK   13  A    between atoms: C_31  and  O_32 
ROOT
ATOM      1  C   UNL d   1      26.914 -15.622  -2.555  0.00  0.00     0.112 A 
ATOM      2  C   UNL d   1      28.283 -15.960  -2.592  0.00  0.00     0.041 A 
ATOM      3  C   UNL d   1      29.047 -15.811  -3.774  0.00  0.00     0.016 A 
ATOM      4  C   UNL d   1      28.440 -15.388  -4.960  0.00  0.00    -0.014 A 
ATOM      5  C   UNL d   1      27.081 -15.021  -4.906  0.00  0.00     0.052 A 
ATOM      6  C   UNL d   1      26.307 -15.107  -3.712  0.00  0.00     0.102 A 
ENDROOT
BRANCH   4   7
ATOM      7  C   UNL d   1      29.224 -15.391  -6.256  0.00  0.00     0.150 C 
ATOM      8  N   UNL d   1      30.187 -14.547  -6.455  0.00  0.00    -0.184 NA
BRANCH   8   9
ATOM      9  N   UNL d   1      30.896 -14.487  -7.654  0.00  0.00    -0.253 N 
ATOM     10  H   UNL d   1      30.525 -13.947  -8.428  0.00  0.00     0.191 HD
BRANCH   9  11
ATOM     11  C   UNL d   1      32.147 -15.148  -7.705  0.00  0.00     0.192 C 
ATOM     12  S   UNL d   1      33.290 -14.726  -8.887  0.00  0.00    -0.039 SA
BRANCH  11  13
ATOM     13  N   UNL d   1      32.318 -16.177  -6.748  0.00  0.00    -0.332 N 
ATOM     14  H   UNL d   1      32.789 -15.966  -5.878  0.00  0.00     0.168 HD
BRANCH  13  15
ATOM     15  C   UNL d   1      31.690 -17.469  -6.809  0.00  0.00     0.034 A 
ATOM     16  C   UNL d   1      31.142 -18.088  -5.677  0.00  0.00     0.029 A 
ATOM     17  C   UNL d   1      30.552 -19.367  -5.778  0.00  0.00     0.003 A 
ATOM     18  C   UNL d   1      30.473 -20.021  -7.009  0.00  0.00     0.007 A 
ATOM     19  C   UNL d   1      31.044 -19.434  -8.133  0.00  0.00    -0.060 A 
ATOM     20  C   UNL d   1      31.053 -20.112  -9.468  0.00  0.00     0.048 C 
ATOM     21  C   UNL d   1      31.660 -18.181  -8.012  0.00  0.00     0.036 A 
ENDBRANCH  13  15
ENDBRANCH  11  13
ENDBRANCH   9  11
ENDBRANCH   8   9
ENDBRANCH   4   7
BRANCH   6  22
ATOM     22  O   UNL d   1      25.027 -14.644  -3.890  0.00  0.00    -0.353 OA
ATOM     23  C   UNL d   1      24.780 -13.323  -4.336  0.00  0.00     0.210 C 
ENDBRANCH   6  22
BRANCH   1  24
ATOM     24  O   UNL d   1      26.272 -15.707  -1.286  0.00  0.00    -0.272 OA
BRANCH  24  25
ATOM     25  C   UNL d   1      26.084 -16.965  -0.714  0.00  0.00     0.298 C 
ATOM     26  O   UNL d   1      26.979 -17.775  -0.468  0.00  0.00    -0.259 OA
BRANCH  25  27
ATOM     27  C   UNL d   1      24.621 -17.329  -0.629  0.00  0.00     0.040 A 
ATOM     28  C   UNL d   1      23.633 -16.331  -0.765  0.00  0.00     0.020 A 
ATOM     29  C   UNL d   1      22.263 -16.656  -0.751  0.00  0.00     0.038 A 
ATOM     30  C   UNL d   1      21.857 -17.986  -0.651  0.00  0.00     0.068 A 
ATOM     31  C   UNL d   1      22.828 -18.969  -0.449  0.00  0.00     0.038 A 
ATOM     32  C   UNL d   1      24.197 -18.641  -0.404  0.00  0.00     0.020 A 
BRANCH  30  33
ATOM     33  O   UNL d   1      20.528 -18.233  -0.882  0.00  0.00    -0.351 OA
BRANCH  33  34
ATOM     34  C   UNL d   1      20.060 -19.547  -0.565  0.00  0.00     0.175 C 
BRANCH  34  35
ATOM     35  C   UNL d   1      20.100 -19.747   0.951  0.00  0.00     0.026 C 
BRANCH  35  36
ATOM     36  C   UNL d   1      18.765 -20.284   1.469  0.00  0.00    -0.002 C 
ATOM     37  C   UNL d   1      18.088 -21.174   0.441  0.00  0.00     0.005 C 
ENDBRANCH  35  36
ENDBRANCH  34  35
ENDBRANCH  33  34
ENDBRANCH  30  33
ENDBRANCH  25  27
ENDBRANCH  24  25
ENDBRANCH   1  24
TORSDOF 13
ENDMDL
MODEL 2
REMARK VINA RESULT:   -10.451      0.519      1.307
REMARK INTER + INTRA:         -16.445
REMARK INTER:                 -14.329
REMARK INTRA:                  -2.116
REMARK CONF_INDEPENDENT:        3.878
REMARK UNBOUND:                -2.116
REMARK  13 active torsions:
REMARK  status: ('A' for Active; 'I' for Inactive)
REMARK    1  A    between atoms: C_2  and  C_3 
REMARK    2  A    between atoms: C_3  and  C_4 
REMARK    3  A    between atoms: C_4  and  O_5 
REMARK    4  A    between atoms: O_5  and  C_6 
REMARK    5  A    between atoms: C_9  and  C_10 
REMARK    6  A    between atoms: C_10  and  O_12 
REMARK    7  A    between atoms: O_12  and  C_13 
REMARK    8  A    between atoms: C_16  and  C_17 
REMARK    9  A    between atoms: N_18  and  N_19 
REMARK   10  A    between atoms: N_19  and  C_20 
REMARK   11  A    between atoms: C_20  and  N_22 
REMARK   12  A    between atoms: N_22  and  C_23 
REMARK   13  A    between atoms: C_31  and  O_32 
ROOT
ATOM      1  C   UNL d   1      27.018 -15.604  -2.359  0.00  0.00     0.112 A 
ATOM      2  C   UNL d   1      28.413 -15.723  -2.534  0.00  0.00     0.041 A 
ATOM      3  C   UNL d   1      29.022 -15.473  -3.787  0.00  0.00     0.016 A 
ATOM      4  C   UNL d   1      28.239 -15.169  -4.905  0.00  0.00    -0.014 A 
ATOM      5  C   UNL d   1      26.852 -15.020  -4.713  0.00  0.00     0.052 A 
ATOM      6  C   UNL d   1      26.224 -15.208  -3.448  0.00  0.00     0.102 A 
ENDROOT
BRANCH   4   7
ATOM      7  C   UNL d   1      28.881 -15.068  -6.274  0.00  0.00     0.150 C 
ATOM      8  N   UNL d   1      30.146 -14.821  -6.402  0.00  0.00    -0.184 NA
BRANCH   8   9
ATOM      9  N   UNL d   1      30.760 -14.671  -7.645  0.00  0.00    -0.253 N 
ATOM     10  H   UNL d   1      30.332 -14.075  -8.344  0.00  0.00     0.191 HD
BRANCH   9  11
ATOM     11  C   UNL d   1      32.000 -15.324  -7.842  0.00  0.00     0.192 C 
ATOM     12  S   UNL d   1      33.033 -14.837  -9.098  0.00  0.00    -0.039 SA
BRANCH  11  13
ATOM     13  N   UNL d   1      32.255 -16.402  -6.961  0.00  0.00    -0.332 N 
ATOM     14  H   UNL d   1      32.681 -16.213  -6.062  0.00  0.00     0.168 HD
BRANCH  13  15
ATOM     15  C   UNL d   1      31.765 -17.742  -7.137  0.00  0.00     0.034 A 
ATOM     16  C   UNL d   1      31.658 -18.340  -8.401  0.00  0.00     0.029 A 
ATOM     17  C   UNL d   1      31.152 -19.651  -8.530  0.00  0.00     0.003 A 
ATOM     18  C   UNL d   1      30.783 -20.388  -7.403  0.00  0.00     0.007 A 
ATOM     19  C   UNL d   1      30.850 -19.795  -6.146  0.00  0.00    -0.060 A 
ATOM     20  C   UNL d   1      30.405 -20.506  -4.906  0.00  0.00     0.048 C 
ATOM     21  C   UNL d   1      31.318 -18.479  -6.036  0.00  0.00     0.036 A 
ENDBRANCH  13  15
ENDBRANCH  11  13
ENDBRANCH   9  11
ENDBRANCH   8   9
ENDBRANCH   4   7
BRANCH   6  22
ATOM     22  O   UNL d   1      24.877 -14.955  -3.495  0.00  0.00    -0.353 OA
ATOM     23  C   UNL d   1      24.380 -13.699  -3.920  0.00  0.00     0.210 C 
ENDBRANCH   6  22
BRANCH   1  24
ATOM     24  O   UNL d   1      26.527 -15.770  -1.031  0.00  0.00    -0.272 OA
BRANCH  24  25
ATOM     25  C   UNL d   1      26.262 -17.060  -0.572  0.00  0.00     0.298 C 
ATOM     26  O   UNL d   1      27.109 -17.936  -0.386  0.00  0.00    -0.259 OA
BRANCH  25  27
ATOM     27  C   UNL d   1      24.780 -17.349  -0.537  0.00  0.00     0.040 A 
ATOM     28  C   UNL d   1      23.852 -16.328  -0.832  0.00  0.00     0.020 A 
ATOM     29  C   UNL d   1      22.469 -16.589  -0.865  0.00  0.00     0.038 A 
ATOM     30  C   UNL d   1      21.993 -17.882  -0.655  0.00  0.00     0.068 A 
ATOM     31  C   UNL d   1      22.901 -18.881  -0.298  0.00  0.00     0.038 A 
ATOM     32  C   UNL d   1      24.281 -18.610  -0.205  0.00  0.00     0.020 A 
BRANCH  30  33
ATOM     33  O   UNL d   1      20.668 -18.094  -0.938  0.00  0.00    -0.351 OA
BRANCH  33  34
ATOM     34  C   UNL d   1      20.274 -19.449  -1.168  0.00  0.00     0.175 C 
BRANCH  34  35
ATOM     35  C   UNL d   1      18.912 -19.699  -0.517  0.00  0.00     0.026 C 
BRANCH  35  36
ATOM     36  C   UNL d   1      19.046 -20.603   0.708  0.00  0.00    -0.002 C 
ATOM     37  C   UNL d   1      19.988 -20.004   1.739  0.00  0.00     0.005 C 
ENDBRANCH  35  36
ENDBRANCH  34  35
ENDBRANCH  33  34
ENDBRANCH  30  33
ENDBRANCH  25  27
ENDBRANCH  24  25
ENDBRANCH   1  24
TORSDOF 13
ENDMDL
MODEL 3
REMARK VINA RESULT:   -10.125      1.449      2.406
REMARK INTER + INTRA:         -16.215
REMARK INTER:                 -14.003
REMARK INTRA:                  -2.212
REMARK CONF_INDEPENDENT:        3.878
REMARK UNBOUND:                -2.212
REMARK  13 active torsions:
REMARK  status: ('A' for Active; 'I' for Inactive)
REMARK    1  A    between atoms: C_2  and  C_3 
REMARK    2  A    between atoms: C_3  and  C_4 
REMARK    3  A    between atoms: C_4  and  O_5 
REMARK    4  A    between atoms: O_5  and  C_6 
REMARK    5  A    between atoms: C_9  and  C_10 
REMARK    6  A    between atoms: C_10  and  O_12 
REMARK    7  A    between atoms: O_12  and  C_13 
REMARK    8  A    between atoms: C_16  and  C_17 
REMARK    9  A    between atoms: N_18  and  N_19 
REMARK   10  A    between atoms: N_19  and  C_20 
REMARK   11  A    between atoms: C_20  and  N_22 
REMARK   12  A    between atoms: N_22  and  C_23 
REMARK   13  A    between atoms: C_31  and  O_32 
ROOT
ATOM      1  C   UNL d   1      26.722 -15.890  -1.325  0.00  0.00     0.112 A 
ATOM      2  C   UNL d   1      25.905 -15.068  -2.130  0.00  0.00     0.041 A 
ATOM      3  C   UNL d   1      26.315 -14.663  -3.423  0.00  0.00     0.016 A 
ATOM      4  C   UNL d   1      27.578 -15.014  -3.906  0.00  0.00    -0.014 A 
ATOM      5  C   UNL d   1      28.373 -15.862  -3.110  0.00  0.00     0.052 A 
ATOM      6  C   UNL d   1      27.955 -16.332  -1.830  0.00  0.00     0.102 A 
ENDROOT
BRANCH   4   7
ATOM      7  C   UNL d   1      28.074 -14.439  -5.218  0.00  0.00     0.150 C 
ATOM      8  N   UNL d   1      28.365 -15.211  -6.217  0.00  0.00    -0.184 NA
BRANCH   8   9
ATOM      9  N   UNL d   1      28.871 -14.721  -7.420  0.00  0.00    -0.253 N 
ATOM     10  H   UNL d   1      28.290 -14.738  -8.251  0.00  0.00     0.191 HD
BRANCH   9  11
ATOM     11  C   UNL d   1      30.172 -14.163  -7.400  0.00  0.00     0.192 C 
ATOM     12  S   UNL d   1      30.396 -12.505  -7.685  0.00  0.00    -0.039 SA
BRANCH  11  13
ATOM     13  N   UNL d   1      31.217 -15.091  -7.178  0.00  0.00    -0.332 N 
ATOM     14  H   UNL d   1      32.167 -14.825  -7.402  0.00  0.00     0.168 HD
BRANCH  13  15
ATOM     15  C   UNL d   1      31.080 -16.326  -6.453  0.00  0.00     0.034 A 
ATOM     16  C   UNL d   1      31.150 -16.384  -5.054  0.00  0.00     0.029 A 
ATOM     17  C   UNL d   1      31.031 -17.622  -4.385  0.00  0.00     0.003 A 
ATOM     18  C   UNL d   1      30.808 -18.801  -5.098  0.00  0.00     0.007 A 
ATOM     19  C   UNL d   1      30.772 -18.762  -6.488  0.00  0.00    -0.060 A 
ATOM     20  C   UNL d   1      30.605 -20.000  -7.315  0.00  0.00     0.048 C 
ATOM     21  C   UNL d   1      30.930 -17.533  -7.143  0.00  0.00     0.036 A 
ENDBRANCH  13  15
ENDBRANCH  11  13
ENDBRANCH   9  11
ENDBRANCH   8   9
ENDBRANCH   4   7
BRANCH   6  22
ATOM     22  O   UNL d   1      28.870 -17.186  -1.269  0.00  0.00    -0.353 OA
ATOM     23  C   UNL d   1      29.641 -16.802  -0.145  0.00  0.00     0.210 C 
ENDBRANCH   6  22
BRANCH   1  24
ATOM     24  O   UNL d   1      26.163 -16.327  -0.089  0.00  0.00    -0.272 OA
BRANCH  24  25
ATOM     25  C   UNL d   1      25.745 -17.652   0.025  0.00  0.00     0.298 C 
ATOM     26  O   UNL d   1      26.486 -18.616   0.231  0.00  0.00    -0.259 OA
BRANCH  25  27
ATOM     27  C   UNL d   1      24.293 -17.818  -0.356  0.00  0.00     0.040 A 
ATOM     28  C   UNL d   1      23.727 -19.107  -0.443  0.00  0.00     0.020 A 
ATOM     29  C   UNL d   1      22.361 -19.284  -0.736  0.00  0.00     0.038 A 
ATOM     30  C   UNL d   1      21.528 -18.177  -0.898  0.00  0.00     0.068 A 
ATOM     31  C   UNL d   1      22.097 -16.902  -0.878  0.00  0.00     0.038 A 
ATOM     32  C   UNL d   1      23.475 -16.724  -0.644  0.00  0.00     0.020 A 
BRANCH  30  33
ATOM     33  O   UNL d   1      20.182 -18.433  -0.944  0.00  0.00    -0.351 OA
BRANCH  33  34
ATOM     34  C   UNL d   1      19.750 -19.672  -0.375  0.00  0.00     0.175 C 
BRANCH  34  35
ATOM     35  C   UNL d   1      19.835 -19.587   1.150  0.00  0.00     0.026 C 
BRANCH  35  36
ATOM     36  C   UNL d   1      18.826 -20.527   1.810  0.00  0.00    -0.002 C 
ATOM     37  C   UNL d   1      18.037 -21.310   0.774  0.00  0.00     0.005 C 
ENDBRANCH  35  36
ENDBRANCH  34  35
ENDBRANCH  33  34
ENDBRANCH  30  33
ENDBRANCH  25  27
ENDBRANCH  24  25
ENDBRANCH   1  24
TORSDOF 13
ENDMDL
MODEL 4
REMARK VINA RESULT:    -9.753      3.907      5.273
REMARK INTER + INTRA:         -15.512
REMARK INTER:                 -13.631
REMARK INTRA:                  -1.882
REMARK CONF_INDEPENDENT:        3.878
REMARK UNBOUND:                -1.882
REMARK  13 active torsions:
REMARK  status: ('A' for Active; 'I' for Inactive)
REMARK    1  A    between atoms: C_2  and  C_3 
REMARK    2  A    between atoms: C_3  and  C_4 
REMARK    3  A    between atoms: C_4  and  O_5 
REMARK    4  A    between atoms: O_5  and  C_6 
REMARK    5  A    between atoms: C_9  and  C_10 
REMARK    6  A    between atoms: C_10  and  O_12 
REMARK    7  A    between atoms: O_12  and  C_13 
REMARK    8  A    between atoms: C_16  and  C_17 
REMARK    9  A    between atoms: N_18  and  N_19 
REMARK   10  A    between atoms: N_19  and  C_20 
REMARK   11  A    between atoms: C_20  and  N_22 
REMARK   12  A    between atoms: N_22  and  C_23 
REMARK   13  A    between atoms: C_31  and  O_32 
ROOT
ATOM      1  C   UNL d   1      26.357 -15.863  -1.595  0.00  0.00     0.112 A 
ATOM      2  C   UNL d   1      25.752 -15.824  -2.869  0.00  0.00     0.041 A 
ATOM      3  C   UNL d   1      25.494 -14.597  -3.524  0.00  0.00     0.016 A 
ATOM      4  C   UNL d   1      25.771 -13.384  -2.888  0.00  0.00    -0.014 A 
ATOM      5  C   UNL d   1      26.405 -13.433  -1.630  0.00  0.00     0.052 A 
ATOM      6  C   UNL d   1      26.729 -14.658  -0.978  0.00  0.00     0.102 A 
ENDROOT
BRANCH   4   7
ATOM      7  C   UNL d   1      25.339 -12.078  -3.524  0.00  0.00     0.150 C 
ATOM      8  N   UNL d   1      25.922 -10.962  -3.219  0.00  0.00    -0.184 NA
BRANCH   8   9
ATOM      9  N   UNL d   1      25.518  -9.736  -3.746  0.00  0.00    -0.253 N 
ATOM     10  H   UNL d   1      25.242  -8.989  -3.119  0.00  0.00     0.191 HD
BRANCH   9  11
ATOM     11  C   UNL d   1      25.575  -9.581  -5.152  0.00  0.00     0.192 C 
ATOM     12  S   UNL d   1      25.595  -8.030  -5.842  0.00  0.00    -0.039 SA
BRANCH  11  13
ATOM     13  N   UNL d   1      25.565 -10.790  -5.888  0.00  0.00    -0.332 N 
ATOM     14  H   UNL d   1      24.678 -11.182  -6.178  0.00  0.00     0.168 HD
BRANCH  13  15
ATOM     15  C   UNL d   1      26.728 -11.418  -6.455  0.00  0.00     0.034 A 
ATOM     16  C   UNL d   1      27.417 -10.870  -7.546  0.00  0.00     0.029 A 
ATOM     17  C   UNL d   1      28.542 -11.531  -8.084  0.00  0.00     0.003 A 
ATOM     18  C   UNL d   1      29.009 -12.720  -7.520  0.00  0.00     0.007 A 
ATOM     19  C   UNL d   1      28.314 -13.293  -6.460  0.00  0.00    -0.060 A 
ATOM     20  C   UNL d   1      28.721 -14.600  -5.854  0.00  0.00     0.048 C 
ATOM     21  C   UNL d   1      27.175 -12.646  -5.960  0.00  0.00     0.036 A 
ENDBRANCH  13  15
ENDBRANCH  11  13
ENDBRANCH   9  11
ENDBRANCH   8   9
ENDBRANCH   4   7
BRANCH   6  22
ATOM     22  O   UNL d   1      27.389 -14.455   0.207  0.00  0.00    -0.353 OA
ATOM     23  C   UNL d   1      28.305 -15.411   0.710  0.00  0.00     0.210 C 
ENDBRANCH   6  22
BRANCH   1  24
ATOM     24  O   UNL d   1      26.671 -17.154  -1.079  0.00  0.00    -0.272 OA
BRANCH  24  25
ATOM     25  C   UNL d   1      25.908 -17.658  -0.026  0.00  0.00     0.298 C 
ATOM     26  O   UNL d   1      26.361 -18.169   0.999  0.00  0.00    -0.259 OA
BRANCH  25  27
ATOM     27  C   UNL d   1      24.439 -17.715  -0.375  0.00  0.00     0.040 A 
ATOM     28  C   UNL d   1      23.833 -18.949  -0.687  0.00  0.00     0.020 A 
ATOM     29  C   UNL d   1      22.453 -19.036  -0.954  0.00  0.00     0.038 A 
ATOM     30  C   UNL d   1      21.648 -17.901  -0.867  0.00  0.00     0.068 A 
ATOM     31  C   UNL d   1      22.254 -16.667  -0.625  0.00  0.00     0.038 A 
ATOM     32  C   UNL d   1      23.644 -16.568  -0.414  0.00  0.00     0.020 A 
BRANCH  30  33
ATOM     33  O   UNL d   1      20.294 -18.114  -0.908  0.00  0.00    -0.351 OA
BRANCH  33  34
ATOM     34  C   UNL d   1      19.850 -19.446  -0.637  0.00  0.00     0.175 C 
BRANCH  34  35
ATOM     35  C   UNL d   1      20.017 -19.742   0.855  0.00  0.00     0.026 C 
BRANCH  35  36
ATOM     36  C   UNL d   1      18.696 -20.197   1.475  0.00  0.00    -0.002 C 
ATOM     37  C   UNL d   1      18.019 -21.257   0.624  0.00  0.00     0.005 C 
ENDBRANCH  35  36
ENDBRANCH  34  35
ENDBRANCH  33  34
ENDBRANCH  30  33
ENDBRANCH  25  27
ENDBRANCH  24  25
ENDBRANCH   1  24
TORSDOF 13
ENDMDL
MODEL 5
REMARK VINA RESULT:    -9.634      2.762      4.886
REMARK INTER + INTRA:         -15.771
REMARK INTER:                 -13.512
REMARK INTRA:                  -2.260
REMARK CONF_INDEPENDENT:        3.878
REMARK UNBOUND:                -2.260
REMARK  13 active torsions:
REMARK  status: ('A' for Active; 'I' for Inactive)
REMARK    1  A    between atoms: C_2  and  C_3 
REMARK    2  A    between atoms: C_3  and  C_4 
REMARK    3  A    between atoms: C_4  and  O_5 
REMARK    4  A    between atoms: O_5  and  C_6 
REMARK    5  A    between atoms: C_9  and  C_10 
REMARK    6  A    between atoms: C_10  and  O_12 
REMARK    7  A    between atoms: O_12  and  C_13 
REMARK    8  A    between atoms: C_16  and  C_17 
REMARK    9  A    between atoms: N_18  and  N_19 
REMARK   10  A    between atoms: N_19  and  C_20 
REMARK   11  A    between atoms: C_20  and  N_22 
REMARK   12  A    between atoms: N_22  and  C_23 
REMARK   13  A    between atoms: C_31  and  O_32 
ROOT
ATOM      1  C   UNL d   1      26.936 -15.875  -1.893  0.00  0.00     0.112 A 
ATOM      2  C   UNL d   1      28.316 -16.017  -2.152  0.00  0.00     0.041 A 
ATOM      3  C   UNL d   1      28.868 -15.681  -3.411  0.00  0.00     0.016 A 
ATOM      4  C   UNL d   1      28.040 -15.264  -4.457  0.00  0.00    -0.014 A 
ATOM      5  C   UNL d   1      26.669 -15.092  -4.180  0.00  0.00     0.052 A 
ATOM      6  C   UNL d   1      26.101 -15.367  -2.902  0.00  0.00     0.102 A 
ENDROOT
BRANCH   4   7
ATOM      7  C   UNL d   1      28.614 -15.066  -5.845  0.00  0.00     0.150 C 
ATOM      8  N   UNL d   1      28.331 -14.011  -6.541  0.00  0.00    -0.184 NA
BRANCH   8   9
ATOM      9  N   UNL d   1      28.799 -13.821  -7.841  0.00  0.00    -0.253 N 
ATOM     10  H   UNL d   1      29.221 -14.597  -8.338  0.00  0.00     0.191 HD
BRANCH   9  11
ATOM     11  C   UNL d   1      28.603 -12.546  -8.424  0.00  0.00     0.192 C 
ATOM     12  S   UNL d   1      28.352 -12.401 -10.097  0.00  0.00    -0.039 SA
BRANCH  11  13
ATOM     13  N   UNL d   1      28.681 -11.458  -7.522  0.00  0.00    -0.332 N 
ATOM     14  H   UNL d   1      29.482 -10.842  -7.563  0.00  0.00     0.168 HD
BRANCH  13  15
ATOM     15  C   UNL d   1      27.606 -11.013  -6.676  0.00  0.00     0.034 A 
ATOM     16  C   UNL d   1      26.487 -10.336  -7.181  0.00  0.00     0.029 A 
ATOM     17  C   UNL d   1      25.465  -9.898  -6.311  0.00  0.00     0.003 A 
ATOM     18  C   UNL d   1      25.533 -10.160  -4.942  0.00  0.00     0.007 A 
ATOM     19  C   UNL d   1      26.655 -10.799  -4.422  0.00  0.00    -0.060 A 
ATOM     20  C   UNL d   1      26.821 -11.049  -2.955  0.00  0.00     0.048 C 
ATOM     21  C   UNL d   1      27.680 -11.195  -5.292  0.00  0.00     0.036 A 
ENDBRANCH  13  15
ENDBRANCH  11  13
ENDBRANCH   9  11
ENDBRANCH   8   9
ENDBRANCH   4   7
BRANCH   6  22
ATOM     22  O   UNL d   1      24.762 -15.074  -2.856  0.00  0.00    -0.353 OA
ATOM     23  C   UNL d   1      24.231 -13.956  -3.546  0.00  0.00     0.210 C 
ENDBRANCH   6  22
BRANCH   1  24
ATOM     24  O   UNL d   1      26.509 -16.137  -0.559  0.00  0.00    -0.272 OA
BRANCH  24  25
ATOM     25  C   UNL d   1      26.061 -17.418  -0.240  0.00  0.00     0.298 C 
ATOM     26  O   UNL d   1      26.785 -18.376   0.037  0.00  0.00    -0.259 OA
BRANCH  25  27
ATOM     27  C   UNL d   1      24.579 -17.572  -0.488  0.00  0.00     0.040 A 
ATOM     28  C   UNL d   1      24.017 -18.856  -0.643  0.00  0.00     0.020 A 
ATOM     29  C   UNL d   1      22.630 -19.029  -0.814  0.00  0.00     0.038 A 
ATOM     30  C   UNL d   1      21.776 -17.926  -0.783  0.00  0.00     0.068 A 
ATOM     31  C   UNL d   1      22.334 -16.649  -0.696  0.00  0.00     0.038 A 
ATOM     32  C   UNL d   1      23.727 -16.470  -0.584  0.00  0.00     0.020 A 
BRANCH  30  33
ATOM     33  O   UNL d   1      20.434 -18.201  -0.718  0.00  0.00    -0.351 OA
BRANCH  33  34
ATOM     34  C   UNL d   1      20.036 -19.523  -1.089  0.00  0.00     0.175 C 
BRANCH  34  35
ATOM     35  C   UNL d   1      20.030 -20.418   0.152  0.00  0.00     0.026 C 
BRANCH  35  36
ATOM     36  C   UNL d   1      18.818 -20.121   1.037  0.00  0.00    -0.002 C 
ATOM     37  C   UNL d   1      18.032 -21.384   1.343  0.00  0.00     0.005 C 
ENDBRANCH  35  36
ENDBRANCH  34  35
ENDBRANCH  33  34
ENDBRANCH  30  33
ENDBRANCH  25  27
ENDBRANCH  24  25
ENDBRANCH   1  24
TORSDOF 13
ENDMDL
MODEL 6
REMARK VINA RESULT:    -9.601      7.454     10.172
REMARK INTER + INTRA:         -15.303
REMARK INTER:                 -13.479
REMARK INTRA:                  -1.825
REMARK CONF_INDEPENDENT:        3.878
REMARK UNBOUND:                -1.825
REMARK  13 active torsions:
REMARK  status: ('A' for Active; 'I' for Inactive)
REMARK    1  A    between atoms: C_2  and  C_3 
REMARK    2  A    between atoms: C_3  and  C_4 
REMARK    3  A    between atoms: C_4  and  O_5 
REMARK    4  A    between atoms: O_5  and  C_6 
REMARK    5  A    between atoms: C_9  and  C_10 
REMARK    6  A    between atoms: C_10  and  O_12 
REMARK    7  A    between atoms: O_12  and  C_13 
REMARK    8  A    between atoms: C_16  and  C_17 
REMARK    9  A    between atoms: N_18  and  N_19 
REMARK   10  A    between atoms: N_19  and  C_20 
REMARK   11  A    between atoms: C_20  and  N_22 
REMARK   12  A    between atoms: N_22  and  C_23 
REMARK   13  A    between atoms: C_31  and  O_32 
ROOT
ATOM      1  C   UNL d   1      27.090 -14.814   0.107  0.00  0.00     0.112 A 
ATOM      2  C   UNL d   1      27.511 -15.174   1.405  0.00  0.00     0.041 A 
ATOM      3  C   UNL d   1      27.616 -14.212   2.438  0.00  0.00     0.016 A 
ATOM      4  C   UNL d   1      27.372 -12.862   2.174  0.00  0.00    -0.014 A 
ATOM      5  C   UNL d   1      26.920 -12.517   0.885  0.00  0.00     0.052 A 
ATOM      6  C   UNL d   1      26.749 -13.477  -0.154  0.00  0.00     0.102 A 
ENDROOT
BRANCH   4   7
ATOM      7  C   UNL d   1      27.648 -11.819   3.239  0.00  0.00     0.150 C 
ATOM      8  N   UNL d   1      27.447 -12.076   4.493  0.00  0.00    -0.184 NA
BRANCH   8   9
ATOM      9  N   UNL d   1      27.642 -11.125   5.494  0.00  0.00    -0.253 N 
ATOM     10  H   UNL d   1      27.104 -10.266   5.478  0.00  0.00     0.191 HD
BRANCH   9  11
ATOM     11  C   UNL d   1      28.554 -11.446   6.528  0.00  0.00     0.192 C 
ATOM     12  S   UNL d   1      29.688 -10.298   7.055  0.00  0.00    -0.039 SA
BRANCH  11  13
ATOM     13  N   UNL d   1      28.461 -12.771   7.018  0.00  0.00    -0.332 N 
ATOM     14  H   UNL d   1      28.304 -13.527   6.364  0.00  0.00     0.168 HD
BRANCH  13  15
ATOM     15  C   UNL d   1      28.783 -13.176   8.359  0.00  0.00     0.034 A 
ATOM     16  C   UNL d   1      28.152 -12.621   9.481  0.00  0.00     0.029 A 
ATOM     17  C   UNL d   1      28.514 -13.034  10.782  0.00  0.00     0.003 A 
ATOM     18  C   UNL d   1      29.480 -14.023  10.973  0.00  0.00     0.007 A 
ATOM     19  C   UNL d   1      30.140 -14.557   9.871  0.00  0.00    -0.060 A 
ATOM     20  C   UNL d   1      31.233 -15.571  10.011  0.00  0.00     0.048 C 
ATOM     21  C   UNL d   1      29.798 -14.111   8.587  0.00  0.00     0.036 A 
ENDBRANCH  13  15
ENDBRANCH  11  13
ENDBRANCH   9  11
ENDBRANCH   8   9
ENDBRANCH   4   7
BRANCH   6  22
ATOM     22  O   UNL d   1      26.248 -12.916  -1.301  0.00  0.00    -0.353 OA
ATOM     23  C   UNL d   1      26.917 -13.059  -2.541  0.00  0.00     0.210 C 
ENDBRANCH   6  22
BRANCH   1  24
ATOM     24  O   UNL d   1      26.913 -15.880  -0.822  0.00  0.00    -0.272 OA
BRANCH  24  25
ATOM     25  C   UNL d   1      26.571 -17.141  -0.336  0.00  0.00     0.298 C 
ATOM     26  O   UNL d   1      27.370 -18.041  -0.071  0.00  0.00    -0.259 OA
BRANCH  25  27
ATOM     27  C   UNL d   1      25.079 -17.373  -0.379  0.00  0.00     0.040 A 
ATOM     28  C   UNL d   1      24.207 -16.314  -0.706  0.00  0.00     0.020 A 
ATOM     29  C   UNL d   1      22.818 -16.521  -0.812  0.00  0.00     0.038 A 
ATOM     30  C   UNL d   1      22.283 -17.797  -0.643  0.00  0.00     0.068 A 
ATOM     31  C   UNL d   1      23.134 -18.834  -0.255  0.00  0.00     0.038 A 
ATOM     32  C   UNL d   1      24.516 -18.618  -0.090  0.00  0.00     0.020 A 
BRANCH  30  33
ATOM     33  O   UNL d   1      20.967 -17.954  -0.994  0.00  0.00    -0.351 OA
BRANCH  33  34
ATOM     34  C   UNL d   1      20.464 -19.292  -0.999  0.00  0.00     0.175 C 
BRANCH  34  35
ATOM     35  C   UNL d   1      19.498 -19.475   0.174  0.00  0.00     0.026 C 
BRANCH  35  36
ATOM     36  C   UNL d   1      19.447 -20.936   0.622  0.00  0.00    -0.002 C 
ATOM     37  C   UNL d   1      18.031 -21.361   0.969  0.00  0.00     0.005 C 
ENDBRANCH  35  36
ENDBRANCH  34  35
ENDBRANCH  33  34
ENDBRANCH  30  33
ENDBRANCH  25  27
ENDBRANCH  24  25
ENDBRANCH   1  24
TORSDOF 13
ENDMDL
MODEL 7
REMARK VINA RESULT:    -9.566      3.132      4.823
REMARK INTER + INTRA:         -16.012
REMARK INTER:                 -13.444
REMARK INTRA:                  -2.568
REMARK CONF_INDEPENDENT:        3.878
REMARK UNBOUND:                -2.568
REMARK  13 active torsions:
REMARK  status: ('A' for Active; 'I' for Inactive)
REMARK    1  A    between atoms: C_2  and  C_3 
REMARK    2  A    between atoms: C_3  and  C_4 
REMARK    3  A    between atoms: C_4  and  O_5 
REMARK    4  A    between atoms: O_5  and  C_6 
REMARK    5  A    between atoms: C_9  and  C_10 
REMARK    6  A    between atoms: C_10  and  O_12 
REMARK    7  A    between atoms: O_12  and  C_13 
REMARK    8  A    between atoms: C_16  and  C_17 
REMARK    9  A    between atoms: N_18  and  N_19 
REMARK   10  A    between atoms: N_19  and  C_20 
REMARK   11  A    between atoms: C_20  and  N_22 
REMARK   12  A    between atoms: N_22  and  C_23 
REMARK   13  A    between atoms: C_31  and  O_32 
ROOT
ATOM      1  C   UNL d   1      26.640 -15.781  -1.586  0.00  0.00     0.112 A 
ATOM      2  C   UNL d   1      25.582 -15.498  -2.476  0.00  0.00     0.041 A 
ATOM      3  C   UNL d   1      25.819 -15.265  -3.852  0.00  0.00     0.016 A 
ATOM      4  C   UNL d   1      27.125 -15.239  -4.349  0.00  0.00    -0.014 A 
ATOM      5  C   UNL d   1      28.172 -15.555  -3.461  0.00  0.00     0.052 A 
ATOM      6  C   UNL d   1      27.951 -15.852  -2.085  0.00  0.00     0.102 A 
ENDROOT
BRANCH   4   7
ATOM      7  C   UNL d   1      27.381 -14.825  -5.784  0.00  0.00     0.150 C 
ATOM      8  N   UNL d   1      28.581 -14.575  -6.203  0.00  0.00    -0.184 NA
BRANCH   8   9
ATOM      9  N   UNL d   1      28.848 -14.143  -7.501  0.00  0.00    -0.253 N 
ATOM     10  H   UNL d   1      28.966 -14.826  -8.241  0.00  0.00     0.191 HD
BRANCH   9  11
ATOM     11  C   UNL d   1      28.881 -12.746  -7.729  0.00  0.00     0.192 C 
ATOM     12  S   UNL d   1      28.746 -12.133  -9.306  0.00  0.00    -0.039 SA
BRANCH  11  13
ATOM     13  N   UNL d   1      29.078 -11.956  -6.571  0.00  0.00    -0.332 N 
ATOM     14  H   UNL d   1      29.891 -11.357  -6.516  0.00  0.00     0.168 HD
BRANCH  13  15
ATOM     15  C   UNL d   1      28.102 -11.762  -5.533  0.00  0.00     0.034 A 
ATOM     16  C   UNL d   1      26.824 -11.246  -5.793  0.00  0.00     0.029 A 
ATOM     17  C   UNL d   1      25.905 -11.053  -4.739  0.00  0.00     0.003 A 
ATOM     18  C   UNL d   1      26.237 -11.402  -3.429  0.00  0.00     0.007 A 
ATOM     19  C   UNL d   1      27.513 -11.882  -3.152  0.00  0.00    -0.060 A 
ATOM     20  C   UNL d   1      27.954 -12.210  -1.759  0.00  0.00     0.048 C 
ATOM     21  C   UNL d   1      28.429 -12.033  -4.201  0.00  0.00     0.036 A 
ENDBRANCH  13  15
ENDBRANCH  11  13
ENDBRANCH   9  11
ENDBRANCH   8   9
ENDBRANCH   4   7
BRANCH   6  22
ATOM     22  O   UNL d   1      29.112 -16.182  -1.433  0.00  0.00    -0.353 OA
ATOM     23  C   UNL d   1      29.278 -17.450  -0.824  0.00  0.00     0.210 C 
ENDBRANCH   6  22
BRANCH   1  24
ATOM     24  O   UNL d   1      26.275 -16.108  -0.248  0.00  0.00    -0.272 OA
BRANCH  24  25
ATOM     25  C   UNL d   1      25.857 -17.409   0.032  0.00  0.00     0.298 C 
ATOM     26  O   UNL d   1      26.596 -18.337   0.365  0.00  0.00    -0.259 OA
BRANCH  25  27
ATOM     27  C   UNL d   1      24.408 -17.624  -0.337  0.00  0.00     0.040 A 
ATOM     28  C   UNL d   1      23.910 -18.931  -0.520  0.00  0.00     0.020 A 
ATOM     29  C   UNL d   1      22.550 -19.159  -0.803  0.00  0.00     0.038 A 
ATOM     30  C   UNL d   1      21.656 -18.091  -0.859  0.00  0.00     0.068 A 
ATOM     31  C   UNL d   1      22.155 -16.792  -0.744  0.00  0.00     0.038 A 
ATOM     32  C   UNL d   1      23.526 -16.557  -0.520  0.00  0.00     0.020 A 
BRANCH  30  33
ATOM     33  O   UNL d   1      20.325 -18.417  -0.902  0.00  0.00    -0.351 OA
BRANCH  33  34
ATOM     34  C   UNL d   1      19.967 -19.704  -0.392  0.00  0.00     0.175 C 
BRANCH  34  35
ATOM     35  C   UNL d   1      19.904 -19.644   1.136  0.00  0.00     0.026 C 
BRANCH  35  36
ATOM     36  C   UNL d   1      18.950 -20.703   1.688  0.00  0.00    -0.002 C 
ATOM     37  C   UNL d   1      18.030 -21.240   0.606  0.00  0.00     0.005 C 
ENDBRANCH  35  36
ENDBRANCH  34  35
ENDBRANCH  33  34
ENDBRANCH  30  33
ENDBRANCH  25  27
ENDBRANCH  24  25
ENDBRANCH   1  24
TORSDOF 13
ENDMDL
MODEL 8
REMARK VINA RESULT:    -9.534      6.148      8.912
REMARK INTER + INTRA:         -15.473
REMARK INTER:                 -13.412
REMARK INTRA:                  -2.061
REMARK CONF_INDEPENDENT:        3.878
REMARK UNBOUND:                -2.061
REMARK  13 active torsions:
REMARK  status: ('A' for Active; 'I' for Inactive)
REMARK    1  A    between atoms: C_2  and  C_3 
REMARK    2  A    between atoms: C_3  and  C_4 
REMARK    3  A    between atoms: C_4  and  O_5 
REMARK    4  A    between atoms: O_5  and  C_6 
REMARK    5  A    between atoms: C_9  and  C_10 
REMARK    6  A    between atoms: C_10  and  O_12 
REMARK    7  A    between atoms: O_12  and  C_13 
REMARK    8  A    between atoms: C_16  and  C_17 
REMARK    9  A    between atoms: N_18  and  N_19 
REMARK   10  A    between atoms: N_19  and  C_20 
REMARK   11  A    between atoms: C_20  and  N_22 
REMARK   12  A    between atoms: N_22  and  C_23 
REMARK   13  A    between atoms: C_31  and  O_32 
ROOT
ATOM      1  C   UNL d   1      27.140 -15.605  -0.142  0.00  0.00     0.112 A 
ATOM      2  C   UNL d   1      27.420 -15.600   1.241  0.00  0.00     0.041 A 
ATOM      3  C   UNL d   1      27.582 -14.389   1.956  0.00  0.00     0.016 A 
ATOM      4  C   UNL d   1      27.537 -13.163   1.287  0.00  0.00    -0.014 A 
ATOM      5  C   UNL d   1      27.224 -13.175  -0.086  0.00  0.00     0.052 A 
ATOM      6  C   UNL d   1      26.998 -14.380  -0.814  0.00  0.00     0.102 A 
ENDROOT
BRANCH   4   7
ATOM      7  C   UNL d   1      27.876 -11.884   2.027  0.00  0.00     0.150 C 
ATOM      8  N   UNL d   1      26.978 -10.972   2.229  0.00  0.00    -0.184 NA
BRANCH   8   9
ATOM      9  N   UNL d   1      27.266  -9.762   2.860  0.00  0.00    -0.253 N 
ATOM     10  H   UNL d   1      26.907  -8.898   2.471  0.00  0.00     0.191 HD
BRANCH   9  11
ATOM     11  C   UNL d   1      28.009  -9.817   4.064  0.00  0.00     0.192 C 
ATOM     12  S   UNL d   1      29.521  -9.053   4.172  0.00  0.00    -0.039 SA
BRANCH  11  13
ATOM     13  N   UNL d   1      27.413 -10.575   5.100  0.00  0.00    -0.332 N 
ATOM     14  H   UNL d   1      26.485 -10.330   5.418  0.00  0.00     0.168 HD
BRANCH  13  15
ATOM     15  C   UNL d   1      27.928 -11.818   5.609  0.00  0.00     0.034 A 
ATOM     16  C   UNL d   1      27.728 -13.038   4.948  0.00  0.00     0.029 A 
ATOM     17  C   UNL d   1      28.233 -14.237   5.495  0.00  0.00     0.003 A 
ATOM     18  C   UNL d   1      28.968 -14.227   6.682  0.00  0.00     0.007 A 
ATOM     19  C   UNL d   1      29.144 -13.028   7.366  0.00  0.00    -0.060 A 
ATOM     20  C   UNL d   1      29.864 -12.958   8.677  0.00  0.00     0.048 C 
ATOM     21  C   UNL d   1      28.605 -11.850   6.832  0.00  0.00     0.036 A 
ENDBRANCH  13  15
ENDBRANCH  11  13
ENDBRANCH   9  11
ENDBRANCH   8   9
ENDBRANCH   4   7
BRANCH   6  22
ATOM     22  O   UNL d   1      26.656 -14.139  -2.120  0.00  0.00    -0.353 OA
ATOM     23  C   UNL d   1      25.303 -13.976  -2.507  0.00  0.00     0.210 C 
ENDBRANCH   6  22
BRANCH   1  24
ATOM     24  O   UNL d   1      26.887 -16.875  -0.735  0.00  0.00    -0.272 OA
BRANCH  24  25
ATOM     25  C   UNL d   1      26.177 -17.826  -0.004  0.00  0.00     0.298 C 
ATOM     26  O   UNL d   1      26.679 -18.687   0.721  0.00  0.00    -0.259 OA
BRANCH  25  27
ATOM     27  C   UNL d   1      24.711 -17.835  -0.370  0.00  0.00     0.040 A 
ATOM     28  C   UNL d   1      24.027 -19.059  -0.524  0.00  0.00     0.020 A 
ATOM     29  C   UNL d   1      22.648 -19.092  -0.804  0.00  0.00     0.038 A 
ATOM     30  C   UNL d   1      21.919 -17.906  -0.887  0.00  0.00     0.068 A 
ATOM     31  C   UNL d   1      22.604 -16.692  -0.801  0.00  0.00     0.038 A 
ATOM     32  C   UNL d   1      23.994 -16.655  -0.579  0.00  0.00     0.020 A 
BRANCH  30  33
ATOM     33  O   UNL d   1      20.555 -18.035  -0.925  0.00  0.00    -0.351 OA
BRANCH  33  34
ATOM     34  C   UNL d   1      20.046 -19.327  -1.263  0.00  0.00     0.175 C 
BRANCH  34  35
ATOM     35  C   UNL d   1      19.036 -19.768  -0.202  0.00  0.00     0.026 C 
BRANCH  35  36
ATOM     36  C   UNL d   1      19.641 -19.686   1.200  0.00  0.00    -0.002 C 
ATOM     37  C   UNL d   1      18.806 -20.452   2.211  0.00  0.00     0.005 C 
ENDBRANCH  35  36
ENDBRANCH  34  35
ENDBRANCH  33  34
ENDBRANCH  30  33
ENDBRANCH  25  27
ENDBRANCH  24  25
ENDBRANCH   1  24
TORSDOF 13
ENDMDL
MODEL 9
REMARK VINA RESULT:    -9.342      4.775      7.236
REMARK INTER + INTRA:         -15.401
REMARK INTER:                 -13.220
REMARK INTRA:                  -2.181
REMARK CONF_INDEPENDENT:        3.878
REMARK UNBOUND:                -2.181
REMARK  13 active torsions:
REMARK  status: ('A' for Active; 'I' for Inactive)
REMARK    1  A    between atoms: C_2  and  C_3 
REMARK    2  A    between atoms: C_3  and  C_4 
REMARK    3  A    between atoms: C_4  and  O_5 
REMARK    4  A    between atoms: O_5  and  C_6 
REMARK    5  A    between atoms: C_9  and  C_10 
REMARK    6  A    between atoms: C_10  and  O_12 
REMARK    7  A    between atoms: O_12  and  C_13 
REMARK    8  A    between atoms: C_16  and  C_17 
REMARK    9  A    between atoms: N_18  and  N_19 
REMARK   10  A    between atoms: N_19  and  C_20 
REMARK   11  A    between atoms: C_20  and  N_22 
REMARK   12  A    between atoms: N_22  and  C_23 
REMARK   13  A    between atoms: C_31  and  O_32 
ROOT
ATOM      1  C   UNL d   1      26.480 -16.054  -1.500  0.00  0.00     0.112 A 
ATOM      2  C   UNL d   1      25.844 -16.206  -2.751  0.00  0.00     0.041 A 
ATOM      3  C   UNL d   1      25.545 -15.088  -3.565  0.00  0.00     0.016 A 
ATOM      4  C   UNL d   1      25.810 -13.792  -3.113  0.00  0.00    -0.014 A 
ATOM      5  C   UNL d   1      26.475 -13.652  -1.878  0.00  0.00     0.052 A 
ATOM      6  C   UNL d   1      26.840 -14.768  -1.069  0.00  0.00     0.102 A 
ENDROOT
BRANCH   4   7
ATOM      7  C   UNL d   1      25.336 -12.597  -3.914  0.00  0.00     0.150 C 
ATOM      8  N   UNL d   1      25.951 -11.459  -3.843  0.00  0.00    -0.184 NA
BRANCH   8   9
ATOM      9  N   UNL d   1      25.513 -10.326  -4.527  0.00  0.00    -0.253 N 
ATOM     10  H   UNL d   1      24.774 -10.412  -5.216  0.00  0.00     0.191 HD
BRANCH   9  11
ATOM     11  C   UNL d   1      26.094  -9.085  -4.170  0.00  0.00     0.192 C 
ATOM     12  S   UNL d   1      27.256  -8.364  -5.177  0.00  0.00    -0.039 SA
BRANCH  11  13
ATOM     13  N   UNL d   1      25.665  -8.559  -2.929  0.00  0.00    -0.332 N 
ATOM     14  H   UNL d   1      24.780  -8.070  -2.881  0.00  0.00     0.168 HD
BRANCH  13  15
ATOM     15  C   UNL d   1      26.280  -8.839  -1.660  0.00  0.00     0.034 A 
ATOM     16  C   UNL d   1      27.218  -9.869  -1.494  0.00  0.00     0.029 A 
ATOM     17  C   UNL d   1      27.782 -10.122  -0.225  0.00  0.00     0.003 A 
ATOM     18  C   UNL d   1      27.444  -9.335   0.877  0.00  0.00     0.007 A 
ATOM     19  C   UNL d   1      26.489  -8.333   0.735  0.00  0.00    -0.060 A 
ATOM     20  C   UNL d   1      26.032  -7.498   1.891  0.00  0.00     0.048 C 
ATOM     21  C   UNL d   1      25.908  -8.116  -0.522  0.00  0.00     0.036 A 
ENDBRANCH  13  15
ENDBRANCH  11  13
ENDBRANCH   9  11
ENDBRANCH   8   9
ENDBRANCH   4   7
BRANCH   6  22
ATOM     22  O   UNL d   1      27.524 -14.388   0.058  0.00  0.00    -0.353 OA
ATOM     23  C   UNL d   1      26.920 -13.569   1.043  0.00  0.00     0.210 C 
ENDBRANCH   6  22
BRANCH   1  24
ATOM     24  O   UNL d   1      26.833 -17.254  -0.817  0.00  0.00    -0.272 OA
BRANCH  24  25
ATOM     25  C   UNL d   1      26.011 -17.702   0.216  0.00  0.00     0.298 C 
ATOM     26  O   UNL d   1      26.404 -18.199   1.273  0.00  0.00    -0.259 OA
BRANCH  25  27
ATOM     27  C   UNL d   1      24.557 -17.722  -0.193  0.00  0.00     0.040 A 
ATOM     28  C   UNL d   1      23.933 -18.941  -0.532  0.00  0.00     0.020 A 
ATOM     29  C   UNL d   1      22.564 -18.993  -0.856  0.00  0.00     0.038 A 
ATOM     30  C   UNL d   1      21.784 -17.838  -0.799  0.00  0.00     0.068 A 
ATOM     31  C   UNL d   1      22.411 -16.619  -0.529  0.00  0.00     0.038 A 
ATOM     32  C   UNL d   1      23.793 -16.556  -0.262  0.00  0.00     0.020 A 
BRANCH  30  33
ATOM     33  O   UNL d   1      20.428 -18.017  -0.897  0.00  0.00    -0.351 OA
BRANCH  33  34
ATOM     34  C   UNL d   1      19.983 -19.325  -1.263  0.00  0.00     0.175 C 
BRANCH  34  35
ATOM     35  C   UNL d   1      19.150 -19.915  -0.124  0.00  0.00     0.026 C 
BRANCH  35  36
ATOM     36  C   UNL d   1      20.045 -20.414   1.010  0.00  0.00    -0.002 C 
ATOM     37  C   UNL d   1      20.282 -19.330   2.048  0.00  0.00     0.005 C 
ENDBRANCH  35  36
ENDBRANCH  34  35
ENDBRANCH  33  34
ENDBRANCH  30  33
ENDBRANCH  25  27
ENDBRANCH  24  25
ENDBRANCH   1  24
TORSDOF 13
ENDMDL
