MODEL 1
REMARK VINA RESULT:    -9.017      0.000      0.000
REMARK INTER + INTRA:         -14.348
REMARK INTER:                 -12.298
REMARK INTRA:                  -2.050
REMARK CONF_INDEPENDENT:        3.281
REMARK UNBOUND:                -2.050
REMARK  11 active torsions:
REMARK  status: ('A' for Active; 'I' for Inactive)
REMARK    1  A    between atoms: C_2  and  C_3 
REMARK    2  A    between atoms: C_3  and  N_4 
REMARK    3  A    between atoms: C_5  and  S_6 
REMARK    4  A    between atoms: S_6  and  C_7 
REMARK    5  A    between atoms: C_7  and  C_8 
REMARK       I    between atoms: C_8  and  N_10 
REMARK    6  A    between atoms: N_10  and  C_11 
REMARK    7  A    between atoms: C_15  and  C_16 
REMARK    8  A    between atoms: C_16  and  O_18 
REMARK    9  A    between atoms: O_18  and  C_19 
REMARK   10  A    between atoms: C_26  and  C_27 
REMARK   11  A    between atoms: C_30  and  N_31 
ROOT
ATOM      1  S   UNL d   1      29.080 -14.986  -1.557  0.00  0.00    -0.081 SA
ENDROOT
BRANCH   1   2
ATOM      2  C   UNL d   1      27.739 -15.960  -0.988  0.00  0.00     0.192 A 
ATOM      3  N   UNL d   1      26.497 -16.252  -1.516  0.00  0.00    -0.304 N 
ATOM      4  C   UNL d   1      25.790 -16.918  -0.512  0.00  0.00     0.164 A 
ATOM      5  N   UNL d   1      26.574 -17.028   0.540  0.00  0.00    -0.128 NA
ATOM      6  N   UNL d   1      27.781 -16.454   0.238  0.00  0.00    -0.122 NA
BRANCH   3   7
ATOM      7  C   UNL d   1      25.904 -15.964  -2.810  0.00  0.00     0.159 C 
BRANCH   7   8
ATOM      8  C   UNL d   1      25.723 -14.518  -3.093  0.00  0.00    -0.017 C 
ATOM      9  C   UNL d   1      25.178 -14.007  -4.203  0.00  0.00     0.008 C 
ENDBRANCH   7   8
ENDBRANCH   3   7
BRANCH   4  10
ATOM     10  C   UNL d   1      24.412 -17.433  -0.585  0.00  0.00     0.012 A 
ATOM     11  C   UNL d   1      24.167 -18.816  -0.591  0.00  0.00     0.018 A 
ATOM     12  C   UNL d   1      22.874 -19.318  -0.808  0.00  0.00     0.037 A 
ATOM     13  C   UNL d   1      21.794 -18.435  -0.909  0.00  0.00     0.102 A 
ATOM     14  C   UNL d   1      22.016 -17.053  -0.888  0.00  0.00     0.037 A 
ATOM     15  C   UNL d   1      23.321 -16.562  -0.738  0.00  0.00     0.018 A 
BRANCH  13  16
ATOM     16  N   UNL d   1      20.420 -18.958  -0.962  0.00  0.00    -0.116 N 
ATOM     17  O   UNL d   1      19.492 -18.168  -0.742  0.00  0.00    -0.532 OA
ATOM     18  O   UNL d   1      20.269 -20.152  -1.265  0.00  0.00    -0.532 OA
ENDBRANCH  13  16
ENDBRANCH   4  10
ENDBRANCH   1   2
BRANCH   1  19
ATOM     19  C   UNL d   1      29.061 -14.607  -3.337  0.00  0.00     0.185 C 
BRANCH  19  20
ATOM     20  C   UNL d   1      29.101 -15.817  -4.273  0.00  0.00     0.232 C 
ATOM     21  O   UNL d   1      28.248 -16.000  -5.142  0.00  0.00    -0.272 OA
ATOM     22  N   UNL d   1      30.140 -16.739  -4.026  0.00  0.00    -0.320 N 
ATOM     23  H   UNL d   1      30.693 -16.755  -3.177  0.00  0.00     0.169 HD
BRANCH  22  24
ATOM     24  C   UNL d   1      30.414 -17.706  -4.987  0.00  0.00     0.094 C 
ATOM     25  S   UNL d   1      30.406 -19.370  -4.487  0.00  0.00    -0.075 SA
ATOM     26  C   UNL d   1      30.588 -19.793  -6.024  0.00  0.00    -0.008 C 
ATOM     27  C   UNL d   1      30.938 -18.947  -6.957  0.00  0.00    -0.026 C 
ATOM     28  C   UNL d   1      30.717 -20.404  -7.258  0.00  0.00     0.047 C 
ATOM     29  C   UNL d   1      30.709 -17.562  -6.352  0.00  0.00     0.080 C 
ATOM     30  C   UNL d   1      31.162 -19.952  -8.686  0.00  0.00     0.041 C 
ATOM     31  C   UNL d   1      30.812 -18.675  -8.410  0.00  0.00     0.010 C 
BRANCH  29  32
ATOM     32  C   UNL d   1      30.831 -16.286  -7.074  0.00  0.00     0.296 C 
ATOM     33  O   UNL d   1      30.017 -15.371  -7.005  0.00  0.00    -0.259 OA
BRANCH  32  34
ATOM     34  O   UNL d   1      31.889 -16.208  -7.924  0.00  0.00    -0.318 OA
BRANCH  34  35
ATOM     35  C   UNL d   1      32.966 -15.517  -7.300  0.00  0.00     0.174 C 
ATOM     36  C   UNL d   1      33.372 -14.393  -8.204  0.00  0.00     0.034 C 
ENDBRANCH  34  35
ENDBRANCH  32  34
ENDBRANCH  29  32
ENDBRANCH  22  24
ENDBRANCH  19  20
ENDBRANCH   1  19
TORSDOF 11
ENDMDL
MODEL 2
REMARK VINA RESULT:    -8.807      1.611      2.512
REMARK INTER + INTRA:         -14.550
REMARK INTER:                 -12.088
REMARK INTRA:                  -2.462
REMARK CONF_INDEPENDENT:        3.281
REMARK UNBOUND:                -2.462
REMARK  11 active torsions:
REMARK  status: ('A' for Active; 'I' for Inactive)
REMARK    1  A    between atoms: C_2  and  C_3 
REMARK    2  A    between atoms: C_3  and  N_4 
REMARK    3  A    between atoms: C_5  and  S_6 
REMARK    4  A    between atoms: S_6  and  C_7 
REMARK    5  A    between atoms: C_7  and  C_8 
REMARK       I    between atoms: C_8  and  N_10 
REMARK    6  A    between atoms: N_10  and  C_11 
REMARK    7  A    between atoms: C_15  and  C_16 
REMARK    8  A    between atoms: C_16  and  O_18 
REMARK    9  A    between atoms: O_18  and  C_19 
REMARK   10  A    between atoms: C_26  and  C_27 
REMARK   11  A    between atoms: C_30  and  N_31 
ROOT
ATOM      1  S   UNL d   1      28.762 -14.629  -2.133  0.00  0.00    -0.081 SA
ENDROOT
BRANCH   1   2
ATOM      2  C   UNL d   1      27.540 -15.709  -1.494  0.00  0.00     0.192 A 
ATOM      3  N   UNL d   1      26.272 -16.053  -1.920  0.00  0.00    -0.304 N 
ATOM      4  C   UNL d   1      25.703 -16.808  -0.892  0.00  0.00     0.164 A 
ATOM      5  N   UNL d   1      26.587 -16.916   0.077  0.00  0.00    -0.128 NA
ATOM      6  N   UNL d   1      27.726 -16.255  -0.304  0.00  0.00    -0.122 NA
BRANCH   3   7
ATOM      7  C   UNL d   1      25.544 -15.744  -3.138  0.00  0.00     0.159 C 
BRANCH   7   8
ATOM      8  C   UNL d   1      24.979 -14.371  -3.183  0.00  0.00    -0.017 C 
ATOM      9  C   UNL d   1      25.112 -13.511  -4.199  0.00  0.00     0.008 C 
ENDBRANCH   7   8
ENDBRANCH   3   7
BRANCH   4  10
ATOM     10  C   UNL d   1      24.356 -17.404  -0.864  0.00  0.00     0.012 A 
ATOM     11  C   UNL d   1      23.219 -16.604  -1.065  0.00  0.00     0.018 A 
ATOM     12  C   UNL d   1      21.929 -17.131  -0.895  0.00  0.00     0.037 A 
ATOM     13  C   UNL d   1      21.765 -18.495  -0.633  0.00  0.00     0.102 A 
ATOM     14  C   UNL d   1      22.886 -19.312  -0.446  0.00  0.00     0.037 A 
ATOM     15  C   UNL d   1      24.171 -18.761  -0.552  0.00  0.00     0.018 A 
BRANCH  13  16
ATOM     16  N   UNL d   1      20.416 -19.085  -0.626  0.00  0.00    -0.116 N 
ATOM     17  O   UNL d   1      20.046 -19.692  -1.640  0.00  0.00    -0.532 OA
ATOM     18  O   UNL d   1      19.745 -18.974   0.411  0.00  0.00    -0.532 OA
ENDBRANCH  13  16
ENDBRANCH   4  10
ENDBRANCH   1   2
BRANCH   1  19
ATOM     19  C   UNL d   1      28.486 -14.073  -3.844  0.00  0.00     0.185 C 
BRANCH  19  20
ATOM     20  C   UNL d   1      28.741 -15.120  -4.930  0.00  0.00     0.232 C 
ATOM     21  O   UNL d   1      28.004 -15.239  -5.910  0.00  0.00    -0.272 OA
ATOM     22  N   UNL d   1      29.834 -15.982  -4.696  0.00  0.00    -0.320 N 
ATOM     23  H   UNL d   1      30.295 -16.081  -3.798  0.00  0.00     0.169 HD
BRANCH  22  24
ATOM     24  C   UNL d   1      30.299 -16.767  -5.745  0.00  0.00     0.094 C 
ATOM     25  S   UNL d   1      30.595 -15.988  -7.270  0.00  0.00    -0.075 SA
ATOM     26  C   UNL d   1      31.220 -17.364  -7.809  0.00  0.00    -0.008 C 
ATOM     27  C   UNL d   1      31.063 -18.505  -7.191  0.00  0.00    -0.026 C 
ATOM     28  C   UNL d   1      31.818 -18.410  -8.488  0.00  0.00     0.047 C 
ATOM     29  C   UNL d   1      30.583 -18.141  -5.786  0.00  0.00     0.080 C 
ATOM     30  C   UNL d   1      31.909 -19.958  -8.297  0.00  0.00     0.041 C 
ATOM     31  C   UNL d   1      31.706 -19.824  -6.966  0.00  0.00     0.010 C 
BRANCH  29  32
ATOM     32  C   UNL d   1      30.402 -19.088  -4.675  0.00  0.00     0.296 C 
ATOM     33  O   UNL d   1      30.090 -20.266  -4.813  0.00  0.00    -0.259 OA
BRANCH  32  34
ATOM     34  O   UNL d   1      30.516 -18.543  -3.435  0.00  0.00    -0.318 OA
BRANCH  34  35
ATOM     35  C   UNL d   1      31.889 -18.434  -3.073  0.00  0.00     0.174 C 
ATOM     36  C   UNL d   1      32.096 -17.078  -2.470  0.00  0.00     0.034 C 
ENDBRANCH  34  35
ENDBRANCH  32  34
ENDBRANCH  29  32
ENDBRANCH  22  24
ENDBRANCH  19  20
ENDBRANCH   1  19
TORSDOF 11
ENDMDL
MODEL 3
REMARK VINA RESULT:    -8.500      5.217      8.105
REMARK INTER + INTRA:         -15.268
REMARK INTER:                 -11.782
REMARK INTRA:                  -3.487
REMARK CONF_INDEPENDENT:        3.281
REMARK UNBOUND:                -3.487
REMARK  11 active torsions:
REMARK  status: ('A' for Active; 'I' for Inactive)
REMARK    1  A    between atoms: C_2  and  C_3 
REMARK    2  A    between atoms: C_3  and  N_4 
REMARK    3  A    between atoms: C_5  and  S_6 
REMARK    4  A    between atoms: S_6  and  C_7 
REMARK    5  A    between atoms: C_7  and  C_8 
REMARK       I    between atoms: C_8  and  N_10 
REMARK    6  A    between atoms: N_10  and  C_11 
REMARK    7  A    between atoms: C_15  and  C_16 
REMARK    8  A    between atoms: C_16  and  O_18 
REMARK    9  A    between atoms: O_18  and  C_19 
REMARK   10  A    between atoms: C_26  and  C_27 
REMARK   11  A    between atoms: C_30  and  N_31 
ROOT
ATOM      1  S   UNL d   1      29.018 -14.737  -0.958  0.00  0.00    -0.081 SA
ENDROOT
BRANCH   1   2
ATOM      2  C   UNL d   1      27.705 -15.838  -0.596  0.00  0.00     0.192 A 
ATOM      3  N   UNL d   1      26.455 -16.028  -1.152  0.00  0.00    -0.304 N 
ATOM      4  C   UNL d   1      25.781 -16.915  -0.309  0.00  0.00     0.164 A 
ATOM      5  N   UNL d   1      26.590 -17.242   0.677  0.00  0.00    -0.128 NA
ATOM      6  N   UNL d   1      27.782 -16.592   0.487  0.00  0.00    -0.122 NA
BRANCH   3   7
ATOM      7  C   UNL d   1      25.829 -15.470  -2.337  0.00  0.00     0.159 C 
BRANCH   7   8
ATOM      8  C   UNL d   1      25.847 -13.986  -2.399  0.00  0.00    -0.017 C 
ATOM      9  C   UNL d   1      26.077 -13.259  -3.499  0.00  0.00     0.008 C 
ENDBRANCH   7   8
ENDBRANCH   3   7
BRANCH   4  10
ATOM     10  C   UNL d   1      24.409 -17.427  -0.468  0.00  0.00     0.012 A 
ATOM     11  C   UNL d   1      24.165 -18.809  -0.517  0.00  0.00     0.018 A 
ATOM     12  C   UNL d   1      22.886 -19.305  -0.816  0.00  0.00     0.037 A 
ATOM     13  C   UNL d   1      21.813 -18.418  -0.957  0.00  0.00     0.102 A 
ATOM     14  C   UNL d   1      22.033 -17.037  -0.895  0.00  0.00     0.037 A 
ATOM     15  C   UNL d   1      23.328 -16.551  -0.662  0.00  0.00     0.018 A 
BRANCH  13  16
ATOM     16  N   UNL d   1      20.444 -18.939  -1.098  0.00  0.00    -0.116 N 
ATOM     17  O   UNL d   1      19.508 -18.200  -0.762  0.00  0.00    -0.532 OA
ATOM     18  O   UNL d   1      20.305 -20.072  -1.582  0.00  0.00    -0.532 OA
ENDBRANCH  13  16
ENDBRANCH   4  10
ENDBRANCH   1   2
BRANCH   1  19
ATOM     19  C   UNL d   1      30.481 -14.897   0.112  0.00  0.00     0.185 C 
BRANCH  19  20
ATOM     20  C   UNL d   1      30.306 -14.410   1.552  0.00  0.00     0.232 C 
ATOM     21  O   UNL d   1      31.171 -13.752   2.130  0.00  0.00    -0.272 OA
ATOM     22  N   UNL d   1      29.117 -14.824   2.189  0.00  0.00    -0.320 N 
ATOM     23  H   UNL d   1      28.515 -15.562   1.842  0.00  0.00     0.169 HD
BRANCH  22  24
ATOM     24  C   UNL d   1      28.751 -14.207   3.381  0.00  0.00     0.094 C 
ATOM     25  S   UNL d   1      28.615 -15.201   4.799  0.00  0.00    -0.075 SA
ATOM     26  C   UNL d   1      28.385 -13.870   5.665  0.00  0.00    -0.008 C 
ATOM     27  C   UNL d   1      28.106 -12.712   5.127  0.00  0.00    -0.026 C 
ATOM     28  C   UNL d   1      28.195 -12.886   6.617  0.00  0.00     0.047 C 
ATOM     29  C   UNL d   1      28.460 -12.859   3.647  0.00  0.00     0.080 C 
ATOM     30  C   UNL d   1      27.782 -11.379   6.598  0.00  0.00     0.041 C 
ATOM     31  C   UNL d   1      28.246 -11.250   5.334  0.00  0.00     0.010 C 
BRANCH  29  32
ATOM     32  C   UNL d   1      28.448 -11.773   2.655  0.00  0.00     0.296 C 
ATOM     33  O   UNL d   1      29.423 -11.088   2.364  0.00  0.00    -0.259 OA
BRANCH  32  34
ATOM     34  O   UNL d   1      27.228 -11.499   2.122  0.00  0.00    -0.318 OA
BRANCH  34  35
ATOM     35  C   UNL d   1      27.099 -12.124   0.849  0.00  0.00     0.174 C 
ATOM     36  C   UNL d   1      26.281 -13.366   1.030  0.00  0.00     0.034 C 
ENDBRANCH  34  35
ENDBRANCH  32  34
ENDBRANCH  29  32
ENDBRANCH  22  24
ENDBRANCH  19  20
ENDBRANCH   1  19
TORSDOF 11
ENDMDL
MODEL 4
REMARK VINA RESULT:    -8.408      5.021      8.203
REMARK INTER + INTRA:         -14.529
REMARK INTER:                 -11.689
REMARK INTRA:                  -2.840
REMARK CONF_INDEPENDENT:        3.281
REMARK UNBOUND:                -2.840
REMARK  11 active torsions:
REMARK  status: ('A' for Active; 'I' for Inactive)
REMARK    1  A    between atoms: C_2  and  C_3 
REMARK    2  A    between atoms: C_3  and  N_4 
REMARK    3  A    between atoms: C_5  and  S_6 
REMARK    4  A    between atoms: S_6  and  C_7 
REMARK    5  A    between atoms: C_7  and  C_8 
REMARK       I    between atoms: C_8  and  N_10 
REMARK    6  A    between atoms: N_10  and  C_11 
REMARK    7  A    between atoms: C_15  and  C_16 
REMARK    8  A    between atoms: C_16  and  O_18 
REMARK    9  A    between atoms: O_18  and  C_19 
REMARK   10  A    between atoms: C_26  and  C_27 
REMARK   11  A    between atoms: C_30  and  N_31 
ROOT
ATOM      1  S   UNL d   1      31.362 -16.057   1.099  0.00  0.00    -0.081 SA
ENDROOT
BRANCH   1   2
ATOM      2  C   UNL d   1      30.795 -14.400   1.139  0.00  0.00     0.192 A 
ATOM      3  N   UNL d   1      29.622 -13.817   1.575  0.00  0.00    -0.304 N 
ATOM      4  C   UNL d   1      29.670 -12.483   1.166  0.00  0.00     0.164 A 
ATOM      5  N   UNL d   1      30.810 -12.285   0.540  0.00  0.00    -0.128 NA
ATOM      6  N   UNL d   1      31.511 -13.463   0.542  0.00  0.00    -0.122 NA
BRANCH   3   7
ATOM      7  C   UNL d   1      28.480 -14.360   2.291  0.00  0.00     0.159 C 
BRANCH   7   8
ATOM      8  C   UNL d   1      28.493 -14.100   3.753  0.00  0.00    -0.017 C 
ATOM      9  C   UNL d   1      27.527 -14.449   4.611  0.00  0.00     0.008 C 
ENDBRANCH   7   8
ENDBRANCH   3   7
BRANCH   4  10
ATOM     10  C   UNL d   1      28.647 -11.446   1.388  0.00  0.00     0.012 A 
ATOM     11  C   UNL d   1      27.895 -10.945   0.313  0.00  0.00     0.018 A 
ATOM     12  C   UNL d   1      27.026  -9.856   0.487  0.00  0.00     0.037 A 
ATOM     13  C   UNL d   1      26.817  -9.332   1.767  0.00  0.00     0.102 A 
ATOM     14  C   UNL d   1      27.545  -9.829   2.855  0.00  0.00     0.037 A 
ATOM     15  C   UNL d   1      28.461 -10.873   2.657  0.00  0.00     0.018 A 
BRANCH  13  16
ATOM     16  N   UNL d   1      25.781  -8.309   1.982  0.00  0.00    -0.116 N 
ATOM     17  O   UNL d   1      25.985  -7.454   2.855  0.00  0.00    -0.532 OA
ATOM     18  O   UNL d   1      24.780  -8.340   1.250  0.00  0.00    -0.532 OA
ENDBRANCH  13  16
ENDBRANCH   4  10
ENDBRANCH   1   2
BRANCH   1  19
ATOM     19  C   UNL d   1      30.973 -16.972  -0.425  0.00  0.00     0.185 C 
BRANCH  19  20
ATOM     20  C   UNL d   1      29.488 -17.064  -0.782  0.00  0.00     0.232 C 
ATOM     21  O   UNL d   1      29.103 -17.249  -1.938  0.00  0.00    -0.272 OA
ATOM     22  N   UNL d   1      28.594 -16.854   0.289  0.00  0.00    -0.320 N 
ATOM     23  H   UNL d   1      28.862 -16.453   1.181  0.00  0.00     0.169 HD
BRANCH  22  24
ATOM     24  C   UNL d   1      27.256 -17.190   0.115  0.00  0.00     0.094 C 
ATOM     25  S   UNL d   1      26.650 -18.573   0.974  0.00  0.00    -0.075 SA
ATOM     26  C   UNL d   1      25.178 -18.204   0.455  0.00  0.00    -0.008 C 
ATOM     27  C   UNL d   1      24.958 -17.350  -0.510  0.00  0.00    -0.026 C 
ATOM     28  C   UNL d   1      23.831 -18.082   0.164  0.00  0.00     0.047 C 
ATOM     29  C   UNL d   1      26.267 -16.576  -0.670  0.00  0.00     0.080 C 
ATOM     30  C   UNL d   1      22.984 -17.307  -0.895  0.00  0.00     0.041 C 
ATOM     31  C   UNL d   1      23.960 -16.379  -1.023  0.00  0.00     0.010 C 
BRANCH  29  32
ATOM     32  C   UNL d   1      26.466 -15.410  -1.544  0.00  0.00     0.296 C 
ATOM     33  O   UNL d   1      26.750 -14.285  -1.145  0.00  0.00    -0.259 OA
BRANCH  32  34
ATOM     34  O   UNL d   1      26.222 -15.635  -2.862  0.00  0.00    -0.318 OA
BRANCH  34  35
ATOM     35  C   UNL d   1      26.196 -14.401  -3.572  0.00  0.00     0.174 C 
ATOM     36  C   UNL d   1      24.811 -13.839  -3.458  0.00  0.00     0.034 C 
ENDBRANCH  34  35
ENDBRANCH  32  34
ENDBRANCH  29  32
ENDBRANCH  22  24
ENDBRANCH  19  20
ENDBRANCH   1  19
TORSDOF 11
ENDMDL
MODEL 5
REMARK VINA RESULT:    -8.307      4.876      8.082
REMARK INTER + INTRA:         -15.215
REMARK INTER:                 -11.588
REMARK INTRA:                  -3.626
REMARK CONF_INDEPENDENT:        3.281
REMARK UNBOUND:                -3.626
REMARK  11 active torsions:
REMARK  status: ('A' for Active; 'I' for Inactive)
REMARK    1  A    between atoms: C_2  and  C_3 
REMARK    2  A    between atoms: C_3  and  N_4 
REMARK    3  A    between atoms: C_5  and  S_6 
REMARK    4  A    between atoms: S_6  and  C_7 
REMARK    5  A    between atoms: C_7  and  C_8 
REMARK       I    between atoms: C_8  and  N_10 
REMARK    6  A    between atoms: N_10  and  C_11 
REMARK    7  A    between atoms: C_15  and  C_16 
REMARK    8  A    between atoms: C_16  and  O_18 
REMARK    9  A    between atoms: O_18  and  C_19 
REMARK   10  A    between atoms: C_26  and  C_27 
REMARK   11  A    between atoms: C_30  and  N_31 
ROOT
ATOM      1  S   UNL d   1      30.899 -15.616   0.625  0.00  0.00    -0.081 SA
ENDROOT
BRANCH   1   2
ATOM      2  C   UNL d   1      29.699 -14.483   1.208  0.00  0.00     0.192 A 
ATOM      3  N   UNL d   1      29.421 -13.165   0.903  0.00  0.00    -0.304 N 
ATOM      4  C   UNL d   1      28.476 -12.735   1.837  0.00  0.00     0.164 A 
ATOM      5  N   UNL d   1      28.199 -13.743   2.636  0.00  0.00    -0.128 NA
ATOM      6  N   UNL d   1      28.939 -14.825   2.235  0.00  0.00    -0.122 NA
BRANCH   3   7
ATOM      7  C   UNL d   1      29.946 -12.278  -0.122  0.00  0.00     0.159 C 
BRANCH   7   8
ATOM      8  C   UNL d   1      29.735 -12.756  -1.512  0.00  0.00    -0.017 C 
ATOM      9  C   UNL d   1      28.619 -12.583  -2.231  0.00  0.00     0.008 C 
ENDBRANCH   7   8
ENDBRANCH   3   7
BRANCH   4  10
ATOM     10  C   UNL d   1      27.865 -11.398   1.935  0.00  0.00     0.012 A 
ATOM     11  C   UNL d   1      27.614 -10.820   3.190  0.00  0.00     0.018 A 
ATOM     12  C   UNL d   1      26.900  -9.616   3.299  0.00  0.00     0.037 A 
ATOM     13  C   UNL d   1      26.529  -8.922   2.143  0.00  0.00     0.102 A 
ATOM     14  C   UNL d   1      26.785  -9.474   0.882  0.00  0.00     0.037 A 
ATOM     15  C   UNL d   1      27.440 -10.711   0.787  0.00  0.00     0.018 A 
BRANCH  13  16
ATOM     16  N   UNL d   1      25.935  -7.579   2.250  0.00  0.00    -0.116 N 
ATOM     17  O   UNL d   1      26.280  -6.870   3.206  0.00  0.00    -0.532 OA
ATOM     18  O   UNL d   1      25.155  -7.221   1.355  0.00  0.00    -0.532 OA
ENDBRANCH  13  16
ENDBRANCH   4  10
ENDBRANCH   1   2
BRANCH   1  19
ATOM     19  C   UNL d   1      30.439 -16.525  -0.883  0.00  0.00     0.185 C 
BRANCH  19  20
ATOM     20  C   UNL d   1      28.937 -16.671  -1.136  0.00  0.00     0.232 C 
ATOM     21  O   UNL d   1      28.466 -16.709  -2.273  0.00  0.00    -0.272 OA
ATOM     22  N   UNL d   1      28.128 -16.690   0.020  0.00  0.00    -0.320 N 
ATOM     23  H   UNL d   1      28.447 -16.409   0.940  0.00  0.00     0.169 HD
BRANCH  22  24
ATOM     24  C   UNL d   1      26.802 -17.094  -0.102  0.00  0.00     0.094 C 
ATOM     25  S   UNL d   1      26.332 -18.575   0.674  0.00  0.00    -0.075 SA
ATOM     26  C   UNL d   1      24.811 -18.258   0.275  0.00  0.00    -0.008 C 
ATOM     27  C   UNL d   1      24.482 -17.346  -0.602  0.00  0.00    -0.026 C 
ATOM     28  C   UNL d   1      23.444 -18.197   0.074  0.00  0.00     0.047 C 
ATOM     29  C   UNL d   1      25.732 -16.482  -0.774  0.00  0.00     0.080 C 
ATOM     30  C   UNL d   1      22.488 -17.394  -0.865  0.00  0.00     0.041 C 
ATOM     31  C   UNL d   1      23.400 -16.401  -0.973  0.00  0.00     0.010 C 
BRANCH  29  32
ATOM     32  C   UNL d   1      25.809 -15.241  -1.559  0.00  0.00     0.296 C 
ATOM     33  O   UNL d   1      26.210 -14.168  -1.122  0.00  0.00    -0.259 OA
BRANCH  32  34
ATOM     34  O   UNL d   1      25.307 -15.329  -2.820  0.00  0.00    -0.318 OA
BRANCH  34  35
ATOM     35  C   UNL d   1      26.036 -14.476  -3.697  0.00  0.00     0.174 C 
ATOM     36  C   UNL d   1      26.161 -15.177  -5.015  0.00  0.00     0.034 C 
ENDBRANCH  34  35
ENDBRANCH  32  34
ENDBRANCH  29  32
ENDBRANCH  22  24
ENDBRANCH  19  20
ENDBRANCH   1  19
TORSDOF 11
ENDMDL
MODEL 6
REMARK VINA RESULT:    -8.162      3.002      8.282
REMARK INTER + INTRA:         -14.481
REMARK INTER:                 -11.444
REMARK INTRA:                  -3.037
REMARK CONF_INDEPENDENT:        3.281
REMARK UNBOUND:                -3.037
REMARK  11 active torsions:
REMARK  status: ('A' for Active; 'I' for Inactive)
REMARK    1  A    between atoms: C_2  and  C_3 
REMARK    2  A    between atoms: C_3  and  N_4 
REMARK    3  A    between atoms: C_5  and  S_6 
REMARK    4  A    between atoms: S_6  and  C_7 
REMARK    5  A    between atoms: C_7  and  C_8 
REMARK       I    between atoms: C_8  and  N_10 
REMARK    6  A    between atoms: N_10  and  C_11 
REMARK    7  A    between atoms: C_15  and  C_16 
REMARK    8  A    between atoms: C_16  and  O_18 
REMARK    9  A    between atoms: O_18  and  C_19 
REMARK   10  A    between atoms: C_26  and  C_27 
REMARK   11  A    between atoms: C_30  and  N_31 
ROOT
ATOM      1  S   UNL d   1      30.072 -14.392  -1.858  0.00  0.00    -0.081 SA
ENDROOT
BRANCH   1   2
ATOM      2  C   UNL d   1      30.416 -15.789  -2.857  0.00  0.00     0.192 A 
ATOM      3  N   UNL d   1      30.407 -15.995  -4.222  0.00  0.00    -0.304 N 
ATOM      4  C   UNL d   1      30.574 -17.369  -4.414  0.00  0.00     0.164 A 
ATOM      5  N   UNL d   1      30.691 -17.937  -3.233  0.00  0.00    -0.128 NA
ATOM      6  N   UNL d   1      30.614 -16.959  -2.275  0.00  0.00    -0.122 NA
BRANCH   3   7
ATOM      7  C   UNL d   1      30.239 -15.080  -5.338  0.00  0.00     0.159 C 
BRANCH   7   8
ATOM      8  C   UNL d   1      28.871 -15.063  -5.916  0.00  0.00    -0.017 C 
ATOM      9  C   UNL d   1      28.327 -14.042  -6.589  0.00  0.00     0.008 C 
ENDBRANCH   7   8
ENDBRANCH   3   7
BRANCH   4  10
ATOM     10  C   UNL d   1      30.626 -18.089  -5.697  0.00  0.00     0.012 A 
ATOM     11  C   UNL d   1      30.349 -19.465  -5.754  0.00  0.00     0.018 A 
ATOM     12  C   UNL d   1      30.539 -20.190  -6.941  0.00  0.00     0.037 A 
ATOM     13  C   UNL d   1      30.900 -19.519  -8.114  0.00  0.00     0.102 A 
ATOM     14  C   UNL d   1      31.162 -18.144  -8.082  0.00  0.00     0.037 A 
ATOM     15  C   UNL d   1      31.035 -17.442  -6.875  0.00  0.00     0.018 A 
BRANCH  13  16
ATOM     16  N   UNL d   1      30.931 -20.243  -9.395  0.00  0.00    -0.116 N 
ATOM     17  O   UNL d   1      31.834 -21.073  -9.567  0.00  0.00    -0.532 OA
ATOM     18  O   UNL d   1      30.027 -20.009 -10.212  0.00  0.00    -0.532 OA
ENDBRANCH  13  16
ENDBRANCH   4  10
ENDBRANCH   1   2
BRANCH   1  19
ATOM     19  C   UNL d   1      29.755 -14.754  -0.103  0.00  0.00     0.185 C 
BRANCH  19  20
ATOM     20  C   UNL d   1      28.420 -15.437   0.203  0.00  0.00     0.232 C 
ATOM     21  O   UNL d   1      27.674 -15.043   1.100  0.00  0.00    -0.272 OA
ATOM     22  N   UNL d   1      28.138 -16.585  -0.567  0.00  0.00    -0.320 N 
ATOM     23  H   UNL d   1      28.827 -17.078  -1.123  0.00  0.00     0.169 HD
BRANCH  22  24
ATOM     24  C   UNL d   1      26.844 -17.096  -0.551  0.00  0.00     0.094 C 
ATOM     25  S   UNL d   1      26.568 -18.573   0.321  0.00  0.00    -0.075 SA
ATOM     26  C   UNL d   1      24.997 -18.394   0.053  0.00  0.00    -0.008 C 
ATOM     27  C   UNL d   1      24.517 -17.550  -0.824  0.00  0.00    -0.026 C 
ATOM     28  C   UNL d   1      23.617 -18.449  -0.023  0.00  0.00     0.047 C 
ATOM     29  C   UNL d   1      25.672 -16.600  -1.143  0.00  0.00     0.080 C 
ATOM     30  C   UNL d   1      22.518 -17.766  -0.898  0.00  0.00     0.041 C 
ATOM     31  C   UNL d   1      23.332 -16.711  -1.128  0.00  0.00     0.010 C 
BRANCH  29  32
ATOM     32  C   UNL d   1      25.576 -15.393  -1.978  0.00  0.00     0.296 C 
ATOM     33  O   UNL d   1      25.782 -14.253  -1.574  0.00  0.00    -0.259 OA
BRANCH  32  34
ATOM     34  O   UNL d   1      25.143 -15.609  -3.248  0.00  0.00    -0.318 OA
BRANCH  34  35
ATOM     35  C   UNL d   1      26.063 -15.049  -4.180  0.00  0.00     0.174 C 
ATOM     36  C   UNL d   1      25.615 -13.651  -4.480  0.00  0.00     0.034 C 
ENDBRANCH  34  35
ENDBRANCH  32  34
ENDBRANCH  29  32
ENDBRANCH  22  24
ENDBRANCH  19  20
ENDBRANCH   1  19
TORSDOF 11
ENDMDL
MODEL 7
REMARK VINA RESULT:    -7.696      4.815      8.016
REMARK INTER + INTRA:         -14.540
REMARK INTER:                 -10.978
REMARK INTRA:                  -3.562
REMARK CONF_INDEPENDENT:        3.281
REMARK UNBOUND:                -3.562
REMARK  11 active torsions:
REMARK  status: ('A' for Active; 'I' for Inactive)
REMARK    1  A    between atoms: C_2  and  C_3 
REMARK    2  A    between atoms: C_3  and  N_4 
REMARK    3  A    between atoms: C_5  and  S_6 
REMARK    4  A    between atoms: S_6  and  C_7 
REMARK    5  A    between atoms: C_7  and  C_8 
REMARK       I    between atoms: C_8  and  N_10 
REMARK    6  A    between atoms: N_10  and  C_11 
REMARK    7  A    between atoms: C_15  and  C_16 
REMARK    8  A    between atoms: C_16  and  O_18 
REMARK    9  A    between atoms: O_18  and  C_19 
REMARK   10  A    between atoms: C_26  and  C_27 
REMARK   11  A    between atoms: C_30  and  N_31 
ROOT
ATOM      1  S   UNL d   1      29.118 -13.107  -5.140  0.00  0.00    -0.081 SA
ENDROOT
BRANCH   1   2
ATOM      2  C   UNL d   1      28.863 -12.586  -3.488  0.00  0.00     0.192 A 
ATOM      3  N   UNL d   1      28.042 -11.633  -2.917  0.00  0.00    -0.304 N 
ATOM      4  C   UNL d   1      28.426 -11.536  -1.577  0.00  0.00     0.164 A 
ATOM      5  N   UNL d   1      29.403 -12.391  -1.366  0.00  0.00    -0.128 NA
ATOM      6  N   UNL d   1      29.658 -13.051  -2.540  0.00  0.00    -0.122 NA
BRANCH   3   7
ATOM      7  C   UNL d   1      26.985 -10.808  -3.474  0.00  0.00     0.159 C 
BRANCH   7   8
ATOM      8  C   UNL d   1      25.776 -11.562  -3.895  0.00  0.00    -0.017 C 
ATOM      9  C   UNL d   1      25.684 -12.334  -4.984  0.00  0.00     0.008 C 
ENDBRANCH   7   8
ENDBRANCH   3   7
BRANCH   4  10
ATOM     10  C   UNL d   1      27.852 -10.651  -0.549  0.00  0.00     0.012 A 
ATOM     11  C   UNL d   1      27.650  -9.286  -0.815  0.00  0.00     0.018 A 
ATOM     12  C   UNL d   1      27.245  -8.407   0.201  0.00  0.00     0.037 A 
ATOM     13  C   UNL d   1      26.928  -8.908   1.468  0.00  0.00     0.102 A 
ATOM     14  C   UNL d   1      27.106 -10.268   1.748  0.00  0.00     0.037 A 
ATOM     15  C   UNL d   1      27.576 -11.127   0.743  0.00  0.00     0.018 A 
BRANCH  13  16
ATOM     16  N   UNL d   1      26.338  -8.020   2.484  0.00  0.00    -0.116 N 
ATOM     17  O   UNL d   1      25.530  -7.162   2.102  0.00  0.00    -0.532 OA
ATOM     18  O   UNL d   1      26.655  -8.209   3.668  0.00  0.00    -0.532 OA
ENDBRANCH  13  16
ENDBRANCH   4  10
ENDBRANCH   1   2
BRANCH   1  19
ATOM     19  C   UNL d   1      28.445 -14.748  -5.547  0.00  0.00     0.185 C 
BRANCH  19  20
ATOM     20  C   UNL d   1      27.243 -15.197  -4.713  0.00  0.00     0.232 C 
ATOM     21  O   UNL d   1      26.206 -15.614  -5.230  0.00  0.00    -0.272 OA
ATOM     22  N   UNL d   1      27.382 -15.037  -3.318  0.00  0.00    -0.320 N 
ATOM     23  H   UNL d   1      28.101 -14.471  -2.881  0.00  0.00     0.169 HD
BRANCH  22  24
ATOM     24  C   UNL d   1      26.467 -15.667  -2.481  0.00  0.00     0.094 C 
ATOM     25  S   UNL d   1      24.777 -15.372  -2.761  0.00  0.00    -0.075 SA
ATOM     26  C   UNL d   1      24.439 -16.478  -1.650  0.00  0.00    -0.008 C 
ATOM     27  C   UNL d   1      25.330 -16.942  -0.814  0.00  0.00    -0.026 C 
ATOM     28  C   UNL d   1      23.897 -17.393  -0.765  0.00  0.00     0.047 C 
ATOM     29  C   UNL d   1      26.683 -16.539  -1.402  0.00  0.00     0.080 C 
ATOM     30  C   UNL d   1      24.422 -18.204   0.463  0.00  0.00     0.041 C 
ATOM     31  C   UNL d   1      25.687 -18.139  -0.013  0.00  0.00     0.010 C 
BRANCH  29  32
ATOM     32  C   UNL d   1      27.995 -16.957  -0.887  0.00  0.00     0.296 C 
ATOM     33  O   UNL d   1      28.255 -18.088  -0.489  0.00  0.00    -0.259 OA
BRANCH  32  34
ATOM     34  O   UNL d   1      28.915 -15.961  -0.789  0.00  0.00    -0.318 OA
BRANCH  34  35
ATOM     35  C   UNL d   1      29.060 -15.562   0.571  0.00  0.00     0.174 C 
ATOM     36  C   UNL d   1      27.849 -14.761   0.943  0.00  0.00     0.034 C 
ENDBRANCH  34  35
ENDBRANCH  32  34
ENDBRANCH  29  32
ENDBRANCH  22  24
ENDBRANCH  19  20
ENDBRANCH   1  19
TORSDOF 11
ENDMDL
MODEL 8
REMARK VINA RESULT:    -7.415      5.013      7.989
REMARK INTER + INTRA:         -14.518
REMARK INTER:                 -10.696
REMARK INTRA:                  -3.822
REMARK CONF_INDEPENDENT:        3.281
REMARK UNBOUND:                -3.822
REMARK  11 active torsions:
REMARK  status: ('A' for Active; 'I' for Inactive)
REMARK    1  A    between atoms: C_2  and  C_3 
REMARK    2  A    between atoms: C_3  and  N_4 
REMARK    3  A    between atoms: C_5  and  S_6 
REMARK    4  A    between atoms: S_6  and  C_7 
REMARK    5  A    between atoms: C_7  and  C_8 
REMARK       I    between atoms: C_8  and  N_10 
REMARK    6  A    between atoms: N_10  and  C_11 
REMARK    7  A    between atoms: C_15  and  C_16 
REMARK    8  A    between atoms: C_16  and  O_18 
REMARK    9  A    between atoms: O_18  and  C_19 
REMARK   10  A    between atoms: C_26  and  C_27 
REMARK   11  A    between atoms: C_30  and  N_31 
ROOT
ATOM      1  S   UNL d   1      28.963 -11.870  -6.296  0.00  0.00    -0.081 SA
ENDROOT
BRANCH   1   2
ATOM      2  C   UNL d   1      28.846 -11.410  -4.610  0.00  0.00     0.192 A 
ATOM      3  N   UNL d   1      27.859 -10.788  -3.870  0.00  0.00    -0.304 N 
ATOM      4  C   UNL d   1      28.421 -10.512  -2.621  0.00  0.00     0.164 A 
ATOM      5  N   UNL d   1      29.658 -10.958  -2.618  0.00  0.00    -0.128 NA
ATOM      6  N   UNL d   1      29.912 -11.529  -3.838  0.00  0.00    -0.122 NA
BRANCH   3   7
ATOM      7  C   UNL d   1      26.496 -10.411  -4.199  0.00  0.00     0.159 C 
BRANCH   7   8
ATOM      8  C   UNL d   1      25.903 -11.176  -5.325  0.00  0.00    -0.017 C 
ATOM      9  C   UNL d   1      25.655 -10.690  -6.547  0.00  0.00     0.008 C 
ENDBRANCH   7   8
ENDBRANCH   3   7
BRANCH   4  10
ATOM     10  C   UNL d   1      27.769  -9.848  -1.479  0.00  0.00     0.012 A 
ATOM     11  C   UNL d   1      27.080  -8.637  -1.657  0.00  0.00     0.018 A 
ATOM     12  C   UNL d   1      26.583  -7.922  -0.555  0.00  0.00     0.037 A 
ATOM     13  C   UNL d   1      26.673  -8.473   0.728  0.00  0.00     0.102 A 
ATOM     14  C   UNL d   1      27.341  -9.688   0.923  0.00  0.00     0.037 A 
ATOM     15  C   UNL d   1      27.893 -10.361  -0.177  0.00  0.00     0.018 A 
BRANCH  13  16
ATOM     16  N   UNL d   1      26.003  -7.812   1.860  0.00  0.00    -0.116 N 
ATOM     17  O   UNL d   1      26.353  -8.132   3.004  0.00  0.00    -0.532 OA
ATOM     18  O   UNL d   1      25.155  -6.945   1.600  0.00  0.00    -0.532 OA
ENDBRANCH  13  16
ENDBRANCH   4  10
ENDBRANCH   1   2
BRANCH   1  19
ATOM     19  C   UNL d   1      28.943 -13.661  -6.614  0.00  0.00     0.185 C 
BRANCH  19  20
ATOM     20  C   UNL d   1      28.140 -14.502  -5.619  0.00  0.00     0.232 C 
ATOM     21  O   UNL d   1      27.233 -15.254  -5.979  0.00  0.00    -0.272 OA
ATOM     22  N   UNL d   1      28.465 -14.305  -4.260  0.00  0.00    -0.320 N 
ATOM     23  H   UNL d   1      29.014 -13.525  -3.916  0.00  0.00     0.169 HD
BRANCH  22  24
ATOM     24  C   UNL d   1      27.989 -15.216  -3.323  0.00  0.00     0.094 C 
ATOM     25  S   UNL d   1      29.125 -16.331  -2.627  0.00  0.00    -0.075 SA
ATOM     26  C   UNL d   1      27.970 -16.829  -1.632  0.00  0.00    -0.008 C 
ATOM     27  C   UNL d   1      26.706 -16.545  -1.811  0.00  0.00    -0.026 C 
ATOM     28  C   UNL d   1      27.165 -17.402  -0.664  0.00  0.00     0.047 C 
ATOM     29  C   UNL d   1      26.690 -15.397  -2.821  0.00  0.00     0.080 C 
ATOM     30  C   UNL d   1      25.628 -17.482  -0.395  0.00  0.00     0.041 C 
ATOM     31  C   UNL d   1      25.429 -16.336  -1.086  0.00  0.00     0.010 C 
BRANCH  29  32
ATOM     32  C   UNL d   1      25.498 -14.642  -3.234  0.00  0.00     0.296 C 
ATOM     33  O   UNL d   1      24.906 -14.808  -4.296  0.00  0.00    -0.259 OA
BRANCH  32  34
ATOM     34  O   UNL d   1      25.125 -13.650  -2.382  0.00  0.00    -0.318 OA
BRANCH  34  35
ATOM     35  C   UNL d   1      26.258 -12.868  -2.018  0.00  0.00     0.174 C 
ATOM     36  C   UNL d   1      26.655 -13.260  -0.627  0.00  0.00     0.034 C 
ENDBRANCH  34  35
ENDBRANCH  32  34
ENDBRANCH  29  32
ENDBRANCH  22  24
ENDBRANCH  19  20
ENDBRANCH   1  19
TORSDOF 11
ENDMDL
MODEL 9
REMARK VINA RESULT:    -7.223      4.822      7.959
REMARK INTER + INTRA:         -14.342
REMARK INTER:                 -10.504
REMARK INTRA:                  -3.838
REMARK CONF_INDEPENDENT:        3.281
REMARK UNBOUND:                -3.838
REMARK  11 active torsions:
REMARK  status: ('A' for Active; 'I' for Inactive)
REMARK    1  A    between atoms: C_2  and  C_3 
REMARK    2  A    between atoms: C_3  and  N_4 
REMARK    3  A    between atoms: C_5  and  S_6 
REMARK    4  A    between atoms: S_6  and  C_7 
REMARK    5  A    between atoms: C_7  and  C_8 
REMARK       I    between atoms: C_8  and  N_10 
REMARK    6  A    between atoms: N_10  and  C_11 
REMARK    7  A    between atoms: C_15  and  C_16 
REMARK    8  A    between atoms: C_16  and  O_18 
REMARK    9  A    between atoms: O_18  and  C_19 
REMARK   10  A    between atoms: C_26  and  C_27 
REMARK   11  A    between atoms: C_30  and  N_31 
ROOT
ATOM      1  S   UNL d   1      30.570 -13.825  -3.572  0.00  0.00    -0.081 SA
ENDROOT
BRANCH   1   2
ATOM      2  C   UNL d   1      29.302 -12.841  -2.872  0.00  0.00     0.192 A 
ATOM      3  N   UNL d   1      29.304 -11.834  -1.928  0.00  0.00    -0.304 N 
ATOM      4  C   UNL d   1      27.965 -11.568  -1.633  0.00  0.00     0.164 A 
ATOM      5  N   UNL d   1      27.216 -12.360  -2.371  0.00  0.00    -0.128 NA
ATOM      6  N   UNL d   1      28.041 -13.130  -3.148  0.00  0.00    -0.122 NA
BRANCH   3   7
ATOM      7  C   UNL d   1      30.389 -11.127  -1.270  0.00  0.00     0.159 C 
BRANCH   7   8
ATOM      8  C   UNL d   1      30.829 -11.736   0.011  0.00  0.00    -0.017 C 
ATOM      9  C   UNL d   1      30.887 -13.048   0.267  0.00  0.00     0.008 C 
ENDBRANCH   7   8
ENDBRANCH   3   7
BRANCH   4  10
ATOM     10  C   UNL d   1      27.443 -10.575  -0.678  0.00  0.00     0.012 A 
ATOM     11  C   UNL d   1      27.046  -9.302  -1.119  0.00  0.00     0.018 A 
ATOM     12  C   UNL d   1      26.688  -8.301  -0.201  0.00  0.00     0.037 A 
ATOM     13  C   UNL d   1      26.616  -8.603   1.163  0.00  0.00     0.102 A 
ATOM     14  C   UNL d   1      26.991  -9.872   1.620  0.00  0.00     0.037 A 
ATOM     15  C   UNL d   1      27.411 -10.844   0.700  0.00  0.00     0.018 A 
BRANCH  13  16
ATOM     16  N   UNL d   1      26.076  -7.611   2.107  0.00  0.00    -0.116 N 
ATOM     17  O   UNL d   1      26.598  -7.537   3.227  0.00  0.00    -0.532 OA
ATOM     18  O   UNL d   1      25.155  -6.881   1.711  0.00  0.00    -0.532 OA
ENDBRANCH  13  16
ENDBRANCH   4  10
ENDBRANCH   1   2
BRANCH   1  19
ATOM     19  C   UNL d   1      30.732 -15.496  -2.869  0.00  0.00     0.185 C 
BRANCH  19  20
ATOM     20  C   UNL d   1      29.422 -16.263  -2.675  0.00  0.00     0.232 C 
ATOM     21  O   UNL d   1      29.249 -17.391  -3.139  0.00  0.00    -0.272 OA
ATOM     22  N   UNL d   1      28.407 -15.563  -1.990  0.00  0.00    -0.320 N 
ATOM     23  H   UNL d   1      28.421 -14.563  -1.823  0.00  0.00     0.169 HD
BRANCH  22  24
ATOM     24  C   UNL d   1      27.301 -16.272  -1.532  0.00  0.00     0.094 C 
ATOM     25  S   UNL d   1      27.564 -17.486  -0.317  0.00  0.00    -0.075 SA
ATOM     26  C   UNL d   1      25.974 -17.668  -0.208  0.00  0.00    -0.008 C 
ATOM     27  C   UNL d   1      25.142 -17.191  -1.096  0.00  0.00    -0.026 C 
ATOM     28  C   UNL d   1      24.660 -17.987   0.085  0.00  0.00     0.047 C 
ATOM     29  C   UNL d   1      25.950 -16.172  -1.900  0.00  0.00     0.080 C 
ATOM     30  C   UNL d   1      23.278 -17.771  -0.610  0.00  0.00     0.041 C 
ATOM     31  C   UNL d   1      23.756 -16.689  -1.265  0.00  0.00     0.010 C 
BRANCH  29  32
ATOM     32  C   UNL d   1      25.405 -15.271  -2.927  0.00  0.00     0.296 C 
ATOM     33  O   UNL d   1      24.792 -14.235  -2.686  0.00  0.00    -0.259 OA
BRANCH  32  34
ATOM     34  O   UNL d   1      25.545 -15.709  -4.206  0.00  0.00    -0.318 OA
BRANCH  34  35
ATOM     35  C   UNL d   1      26.169 -14.706  -5.001  0.00  0.00     0.174 C 
ATOM     36  C   UNL d   1      27.534 -15.200  -5.371  0.00  0.00     0.034 C 
ENDBRANCH  34  35
ENDBRANCH  32  34
ENDBRANCH  29  32
ENDBRANCH  22  24
ENDBRANCH  19  20
ENDBRANCH   1  19
TORSDOF 11
ENDMDL
