MODEL 1
REMARK VINA RESULT:    -8.428      0.000      0.000
REMARK INTER + INTRA:         -12.078
REMARK INTER:                 -10.516
REMARK INTRA:                  -1.562
REMARK CONF_INDEPENDENT:        2.088
REMARK UNBOUND:                -1.562
REMARK  7 active torsions:
REMARK  status: ('A' for Active; 'I' for Inactive)
REMARK    1  A    between atoms: C_2  and  C_3 
REMARK    2  A    between atoms: C_8  and  N_9 
REMARK       I    between atoms: N_9  and  C_10 
REMARK    3  A    between atoms: C_10  and  C_12 
REMARK    4  A    between atoms: C_12  and  S_13 
REMARK    5  A    between atoms: S_13  and  C_14 
REMARK    6  A    between atoms: N_24  and  C_25 
REMARK    7  A    between atoms: C_29  and  O_30 
ROOT
ATOM      1  C   UNL d   1      27.326 -16.523  -1.877  0.00  0.00     0.281 A 
ATOM      2  N   UNL d   1      26.834 -17.524  -0.892  0.00  0.00    -0.232 NA
ATOM      3  C   UNL d   1      25.592 -17.432  -0.594  0.00  0.00     0.185 A 
ATOM      4  N   UNL d   1      24.945 -18.238   0.323  0.00  0.00    -0.129 NA
ATOM      5  N   UNL d   1      23.719 -17.918   0.344  0.00  0.00    -0.152 NA
ATOM      6  C   UNL d   1      23.507 -16.900  -0.549  0.00  0.00     0.071 A 
ATOM      7  C   UNL d   1      22.155 -16.336  -0.807  0.00  0.00     0.073 C 
ATOM      8  C   UNL d   1      24.617 -16.526  -1.152  0.00  0.00     0.085 A 
ATOM      9  C   UNL d   1      25.014 -15.578  -2.172  0.00  0.00     0.141 A 
ATOM     10  N   UNL d   1      24.147 -14.825  -2.775  0.00  0.00    -0.283 NA
ATOM     11  N   UNL d   1      26.362 -15.563  -2.473  0.00  0.00    -0.298 N 
ATOM     12  H   UNL d   1      23.190 -14.943  -2.459  0.00  0.00     0.188 HD
ENDROOT
BRANCH   1  13
ATOM     13  S   UNL d   1      28.717 -15.516  -1.181  0.00  0.00    -0.111 SA
BRANCH  13  14
ATOM     14  C   UNL d   1      28.692 -15.975   0.605  0.00  0.00     0.181 C 
BRANCH  14  15
ATOM     15  C   UNL d   1      27.955 -14.854   1.353  0.00  0.00     0.231 C 
ATOM     16  N   UNL d   1      28.477 -14.439   2.583  0.00  0.00    -0.326 N 
ATOM     17  H   UNL d   1      28.936 -15.146   3.141  0.00  0.00     0.169 HD
ATOM     18  O   UNL d   1      26.919 -14.395   0.865  0.00  0.00    -0.272 OA
BRANCH  16  19
ATOM     19  C   UNL d   1      28.111 -13.223   3.268  0.00  0.00     0.041 C 
ATOM     20  C   UNL d   1      27.707 -12.105   2.513  0.00  0.00     0.030 C 
ATOM     21  C   UNL d   1      27.346 -10.893   3.137  0.00  0.00     0.002 C 
ATOM     22  C   UNL d   1      27.405 -10.765   4.519  0.00  0.00     0.001 C 
ATOM     23  C   UNL d   1      27.817 -11.850   5.279  0.00  0.00     0.009 C 
ATOM     24  C   UNL d   1      28.061 -13.100   4.675  0.00  0.00    -0.032 C 
BRANCH  24  25
ATOM     25  C   UNL d   1      28.166 -14.297   5.581  0.00  0.00     0.036 C 
ATOM     26  C   UNL d   1      29.553 -14.825   5.855  0.00  0.00     0.010 C 
ENDBRANCH  24  25
ENDBRANCH  16  19
ENDBRANCH  14  15
ENDBRANCH  13  14
ENDBRANCH   1  13
BRANCH  11  27
ATOM     27  C   UNL d   1      26.806 -14.696  -3.491  0.00  0.00     0.041 A 
ATOM     28  C   UNL d   1      26.507 -13.326  -3.422  0.00  0.00     0.030 A 
ATOM     29  C   UNL d   1      26.740 -12.491  -4.508  0.00  0.00     0.005 A 
ATOM     30  C   UNL d   1      27.349 -13.007  -5.649  0.00  0.00     0.037 A 
ATOM     31  C   UNL d   1      27.690 -14.360  -5.722  0.00  0.00     0.070 A 
ATOM     32  C   UNL d   1      27.420 -15.196  -4.640  0.00  0.00     0.066 A 
BRANCH  31  33
ATOM     33  O   UNL d   1      28.240 -14.781  -6.904  0.00  0.00    -0.356 OA
ATOM     34  C   UNL d   1      29.654 -14.965  -6.895  0.00  0.00     0.210 C 
ENDBRANCH  31  33
ENDBRANCH  11  27
TORSDOF 7
ENDMDL
MODEL 2
REMARK VINA RESULT:    -8.107      2.584      5.239
REMARK INTER + INTRA:         -12.460
REMARK INTER:                 -10.195
REMARK INTRA:                  -2.265
REMARK CONF_INDEPENDENT:        2.088
REMARK UNBOUND:                -2.265
REMARK  7 active torsions:
REMARK  status: ('A' for Active; 'I' for Inactive)
REMARK    1  A    between atoms: C_2  and  C_3 
REMARK    2  A    between atoms: C_8  and  N_9 
REMARK       I    between atoms: N_9  and  C_10 
REMARK    3  A    between atoms: C_10  and  C_12 
REMARK    4  A    between atoms: C_12  and  S_13 
REMARK    5  A    between atoms: S_13  and  C_14 
REMARK    6  A    between atoms: N_24  and  C_25 
REMARK    7  A    between atoms: C_29  and  O_30 
ROOT
ATOM      1  C   UNL d   1      26.287 -14.685   0.192  0.00  0.00     0.281 A 
ATOM      2  N   UNL d   1      27.034 -13.414  -0.014  0.00  0.00    -0.232 NA
ATOM      3  C   UNL d   1      26.992 -12.944  -1.204  0.00  0.00     0.185 A 
ATOM      4  N   UNL d   1      27.645 -11.798  -1.616  0.00  0.00    -0.129 NA
ATOM      5  N   UNL d   1      27.358 -11.587  -2.832  0.00  0.00    -0.152 NA
ATOM      6  C   UNL d   1      26.511 -12.572  -3.268  0.00  0.00     0.071 A 
ATOM      7  C   UNL d   1      25.937 -12.578  -4.641  0.00  0.00     0.073 C 
ATOM      8  C   UNL d   1      26.255 -13.462  -2.331  0.00  0.00     0.085 A 
ATOM      9  C   UNL d   1      25.445 -14.652  -2.177  0.00  0.00     0.141 A 
ATOM     10  N   UNL d   1      24.683 -15.084  -3.134  0.00  0.00    -0.283 NA
ATOM     11  N   UNL d   1      25.519 -15.263  -0.941  0.00  0.00    -0.298 N 
ATOM     12  H   UNL d   1      24.721 -14.536  -3.988  0.00  0.00     0.188 HD
ENDROOT
BRANCH   1  13
ATOM     13  S   UNL d   1      27.397 -16.029   0.821  0.00  0.00    -0.111 SA
BRANCH  13  14
ATOM     14  C   UNL d   1      29.068 -15.259   0.700  0.00  0.00     0.181 C 
BRANCH  14  15
ATOM     15  C   UNL d   1      29.291 -14.450   1.987  0.00  0.00     0.231 C 
ATOM     16  N   UNL d   1      28.160 -13.992   2.672  0.00  0.00    -0.326 N 
ATOM     17  H   UNL d   1      27.354 -13.755   2.108  0.00  0.00     0.169 HD
ATOM     18  O   UNL d   1      30.446 -14.204   2.342  0.00  0.00    -0.272 OA
BRANCH  16  19
ATOM     19  C   UNL d   1      28.160 -13.494   4.026  0.00  0.00     0.041 C 
ATOM     20  C   UNL d   1      28.522 -14.359   5.076  0.00  0.00     0.030 C 
ATOM     21  C   UNL d   1      28.532 -13.920   6.416  0.00  0.00     0.002 C 
ATOM     22  C   UNL d   1      28.156 -12.621   6.737  0.00  0.00     0.001 C 
ATOM     23  C   UNL d   1      27.780 -11.758   5.718  0.00  0.00     0.009 C 
ATOM     24  C   UNL d   1      27.885 -12.150   4.368  0.00  0.00    -0.032 C 
BRANCH  24  25
ATOM     25  C   UNL d   1      27.792 -11.068   3.325  0.00  0.00     0.036 C 
ATOM     26  C   UNL d   1      26.726 -11.231   2.269  0.00  0.00     0.010 C 
ENDBRANCH  24  25
ENDBRANCH  16  19
ENDBRANCH  14  15
ENDBRANCH  13  14
ENDBRANCH   1  13
BRANCH  11  27
ATOM     27  C   UNL d   1      24.718 -16.399  -0.712  0.00  0.00     0.041 A 
ATOM     28  C   UNL d   1      25.321 -17.653  -0.527  0.00  0.00     0.030 A 
ATOM     29  C   UNL d   1      24.559 -18.815  -0.516  0.00  0.00     0.005 A 
ATOM     30  C   UNL d   1      23.172 -18.724  -0.614  0.00  0.00     0.037 A 
ATOM     31  C   UNL d   1      22.551 -17.481  -0.759  0.00  0.00     0.070 A 
ATOM     32  C   UNL d   1      23.328 -16.325  -0.803  0.00  0.00     0.066 A 
BRANCH  31  33
ATOM     33  O   UNL d   1      21.188 -17.501  -0.895  0.00  0.00    -0.356 OA
ATOM     34  C   UNL d   1      20.587 -18.794  -0.896  0.00  0.00     0.210 C 
ENDBRANCH  31  33
ENDBRANCH  11  27
TORSDOF 7
ENDMDL
MODEL 3
REMARK VINA RESULT:    -7.853      2.640      7.408
REMARK INTER + INTRA:         -12.161
REMARK INTER:                  -9.941
REMARK INTRA:                  -2.221
REMARK CONF_INDEPENDENT:        2.088
REMARK UNBOUND:                -2.221
REMARK  7 active torsions:
REMARK  status: ('A' for Active; 'I' for Inactive)
REMARK    1  A    between atoms: C_2  and  C_3 
REMARK    2  A    between atoms: C_8  and  N_9 
REMARK       I    between atoms: N_9  and  C_10 
REMARK    3  A    between atoms: C_10  and  C_12 
REMARK    4  A    between atoms: C_12  and  S_13 
REMARK    5  A    between atoms: S_13  and  C_14 
REMARK    6  A    between atoms: N_24  and  C_25 
REMARK    7  A    between atoms: C_29  and  O_30 
ROOT
ATOM      1  C   UNL d   1      27.677 -13.497   1.897  0.00  0.00     0.281 A 
ATOM      2  N   UNL d   1      27.781 -14.707   2.758  0.00  0.00    -0.232 NA
ATOM      3  C   UNL d   1      28.032 -14.478   3.992  0.00  0.00     0.185 A 
ATOM      4  N   UNL d   1      28.204 -15.458   4.951  0.00  0.00    -0.129 NA
ATOM      5  N   UNL d   1      28.388 -14.897   6.071  0.00  0.00    -0.152 NA
ATOM      6  C   UNL d   1      28.342 -13.538   5.902  0.00  0.00     0.071 A 
ATOM      7  C   UNL d   1      28.463 -12.589   7.043  0.00  0.00     0.073 C 
ATOM      8  C   UNL d   1      28.151 -13.196   4.645  0.00  0.00     0.085 A 
ATOM      9  C   UNL d   1      27.983 -11.979   3.879  0.00  0.00     0.141 A 
ATOM     10  N   UNL d   1      27.974 -10.814   4.448  0.00  0.00    -0.283 NA
ATOM     11  N   UNL d   1      27.802 -12.154   2.521  0.00  0.00    -0.298 N 
ATOM     12  H   UNL d   1      28.112 -10.831   5.454  0.00  0.00     0.188 HD
ENDROOT
BRANCH   1  13
ATOM     13  S   UNL d   1      28.898 -13.550   0.504  0.00  0.00    -0.111 SA
BRANCH  13  14
ATOM     14  C   UNL d   1      29.486 -15.297   0.551  0.00  0.00     0.181 C 
BRANCH  14  15
ATOM     15  C   UNL d   1      28.409 -16.158  -0.125  0.00  0.00     0.231 C 
ATOM     16  N   UNL d   1      27.229 -16.402   0.586  0.00  0.00    -0.326 N 
ATOM     17  H   UNL d   1      27.312 -16.467   1.592  0.00  0.00     0.169 HD
ATOM     18  O   UNL d   1      28.639 -16.631  -1.241  0.00  0.00    -0.272 OA
BRANCH  16  19
ATOM     19  C   UNL d   1      26.009 -16.917   0.012  0.00  0.00     0.041 C 
ATOM     20  C   UNL d   1      25.390 -18.034   0.604  0.00  0.00     0.030 C 
ATOM     21  C   UNL d   1      24.201 -18.576   0.076  0.00  0.00     0.002 C 
ATOM     22  C   UNL d   1      23.622 -18.034  -1.066  0.00  0.00     0.001 C 
ATOM     23  C   UNL d   1      24.227 -16.943  -1.673  0.00  0.00     0.009 C 
ATOM     24  C   UNL d   1      25.345 -16.319  -1.083  0.00  0.00    -0.032 C 
BRANCH  24  25
ATOM     25  C   UNL d   1      25.731 -14.959  -1.601  0.00  0.00     0.036 C 
ATOM     26  C   UNL d   1      25.513 -14.704  -3.072  0.00  0.00     0.010 C 
ENDBRANCH  24  25
ENDBRANCH  16  19
ENDBRANCH  14  15
ENDBRANCH  13  14
ENDBRANCH   1  13
BRANCH  11  27
ATOM     27  C   UNL d   1      27.585 -11.011   1.726  0.00  0.00     0.041 A 
ATOM     28  C   UNL d   1      28.601 -10.550   0.874  0.00  0.00     0.030 A 
ATOM     29  C   UNL d   1      28.497  -9.314   0.248  0.00  0.00     0.005 A 
ATOM     30  C   UNL d   1      27.337  -8.560   0.409  0.00  0.00     0.037 A 
ATOM     31  C   UNL d   1      26.299  -9.021   1.223  0.00  0.00     0.070 A 
ATOM     32  C   UNL d   1      26.428 -10.246   1.874  0.00  0.00     0.066 A 
BRANCH  31  33
ATOM     33  O   UNL d   1      25.222  -8.185   1.356  0.00  0.00    -0.356 OA
ATOM     34  C   UNL d   1      25.154  -7.113   0.418  0.00  0.00     0.210 C 
ENDBRANCH  31  33
ENDBRANCH  11  27
TORSDOF 7
ENDMDL
MODEL 4
REMARK VINA RESULT:    -7.553      3.284      7.217
REMARK INTER + INTRA:         -12.270
REMARK INTER:                  -9.641
REMARK INTRA:                  -2.629
REMARK CONF_INDEPENDENT:        2.088
REMARK UNBOUND:                -2.629
REMARK  7 active torsions:
REMARK  status: ('A' for Active; 'I' for Inactive)
REMARK    1  A    between atoms: C_2  and  C_3 
REMARK    2  A    between atoms: C_8  and  N_9 
REMARK       I    between atoms: N_9  and  C_10 
REMARK    3  A    between atoms: C_10  and  C_12 
REMARK    4  A    between atoms: C_12  and  S_13 
REMARK    5  A    between atoms: S_13  and  C_14 
REMARK    6  A    between atoms: N_24  and  C_25 
REMARK    7  A    between atoms: C_29  and  O_30 
ROOT
ATOM      1  C   UNL d   1      26.316 -14.943   0.134  0.00  0.00     0.281 A 
ATOM      2  N   UNL d   1      27.111 -13.701  -0.065  0.00  0.00    -0.232 NA
ATOM      3  C   UNL d   1      26.994 -13.157  -1.218  0.00  0.00     0.185 A 
ATOM      4  N   UNL d   1      27.672 -12.022  -1.621  0.00  0.00    -0.129 NA
ATOM      5  N   UNL d   1      27.293 -11.723  -2.792  0.00  0.00    -0.152 NA
ATOM      6  C   UNL d   1      26.357 -12.635  -3.206  0.00  0.00     0.071 A 
ATOM      7  C   UNL d   1      25.668 -12.528  -4.521  0.00  0.00     0.073 C 
ATOM      8  C   UNL d   1      26.134 -13.567  -2.303  0.00  0.00     0.085 A 
ATOM      9  C   UNL d   1      25.276 -14.722  -2.145  0.00  0.00     0.141 A 
ATOM     10  N   UNL d   1      24.412 -15.056  -3.053  0.00  0.00    -0.283 NA
ATOM     11  N   UNL d   1      25.422 -15.411  -0.957  0.00  0.00    -0.298 N 
ATOM     12  H   UNL d   1      24.407 -14.459  -3.874  0.00  0.00     0.188 HD
ENDROOT
BRANCH   1  13
ATOM     13  S   UNL d   1      27.399 -16.377   0.584  0.00  0.00    -0.111 SA
BRANCH  13  14
ATOM     14  C   UNL d   1      28.975 -15.979  -0.287  0.00  0.00     0.181 C 
BRANCH  14  15
ATOM     15  C   UNL d   1      28.696 -16.065  -1.795  0.00  0.00     0.231 C 
ATOM     16  N   UNL d   1      29.043 -14.964  -2.585  0.00  0.00    -0.326 N 
ATOM     17  H   UNL d   1      28.968 -14.053  -2.151  0.00  0.00     0.169 HD
ATOM     18  O   UNL d   1      28.147 -17.075  -2.241  0.00  0.00    -0.272 OA
BRANCH  16  19
ATOM     19  C   UNL d   1      29.139 -14.977  -4.025  0.00  0.00     0.041 C 
ATOM     20  C   UNL d   1      28.596 -13.906  -4.760  0.00  0.00     0.030 C 
ATOM     21  C   UNL d   1      28.661 -13.878  -6.168  0.00  0.00     0.002 C 
ATOM     22  C   UNL d   1      29.243 -14.926  -6.870  0.00  0.00     0.001 C 
ATOM     23  C   UNL d   1      29.769 -15.998  -6.165  0.00  0.00     0.009 C 
ATOM     24  C   UNL d   1      29.819 -15.979  -4.756  0.00  0.00    -0.032 C 
BRANCH  24  25
ATOM     25  C   UNL d   1      30.697 -16.997  -4.080  0.00  0.00     0.036 C 
ATOM     26  C   UNL d   1      30.470 -18.443  -4.448  0.00  0.00     0.010 C 
ENDBRANCH  24  25
ENDBRANCH  16  19
ENDBRANCH  14  15
ENDBRANCH  13  14
ENDBRANCH   1  13
BRANCH  11  27
ATOM     27  C   UNL d   1      24.582 -16.517  -0.722  0.00  0.00     0.041 A 
ATOM     28  C   UNL d   1      25.141 -17.791  -0.533  0.00  0.00     0.030 A 
ATOM     29  C   UNL d   1      24.338 -18.925  -0.517  0.00  0.00     0.005 A 
ATOM     30  C   UNL d   1      22.956 -18.786  -0.612  0.00  0.00     0.037 A 
ATOM     31  C   UNL d   1      22.378 -17.522  -0.762  0.00  0.00     0.070 A 
ATOM     32  C   UNL d   1      23.195 -16.394  -0.811  0.00  0.00     0.066 A 
BRANCH  31  33
ATOM     33  O   UNL d   1      21.015 -17.495  -0.895  0.00  0.00    -0.356 OA
ATOM     34  C   UNL d   1      20.370 -18.766  -0.895  0.00  0.00     0.210 C 
ENDBRANCH  31  33
ENDBRANCH  11  27
TORSDOF 7
ENDMDL
MODEL 5
REMARK VINA RESULT:    -7.506      1.592      2.220
REMARK INTER + INTRA:         -12.330
REMARK INTER:                  -9.594
REMARK INTRA:                  -2.736
REMARK CONF_INDEPENDENT:        2.088
REMARK UNBOUND:                -2.736
REMARK  7 active torsions:
REMARK  status: ('A' for Active; 'I' for Inactive)
REMARK    1  A    between atoms: C_2  and  C_3 
REMARK    2  A    between atoms: C_8  and  N_9 
REMARK       I    between atoms: N_9  and  C_10 
REMARK    3  A    between atoms: C_10  and  C_12 
REMARK    4  A    between atoms: C_12  and  S_13 
REMARK    5  A    between atoms: S_13  and  C_14 
REMARK    6  A    between atoms: N_24  and  C_25 
REMARK    7  A    between atoms: C_29  and  O_30 
ROOT
ATOM      1  C   UNL d   1      28.161 -15.677  -1.178  0.00  0.00     0.281 A 
ATOM      2  N   UNL d   1      28.078 -16.610  -0.021  0.00  0.00    -0.232 NA
ATOM      3  C   UNL d   1      26.949 -17.195   0.127  0.00  0.00     0.185 A 
ATOM      4  N   UNL d   1      26.650 -18.070   1.155  0.00  0.00    -0.129 NA
ATOM      5  N   UNL d   1      25.473 -18.505   0.981  0.00  0.00    -0.152 NA
ATOM      6  C   UNL d   1      24.953 -17.946  -0.157  0.00  0.00     0.071 A 
ATOM      7  C   UNL d   1      23.603 -18.302  -0.673  0.00  0.00     0.073 C 
ATOM      8  C   UNL d   1      25.791 -17.108  -0.730  0.00  0.00     0.085 A 
ATOM      9  C   UNL d   1      25.834 -16.278  -1.916  0.00  0.00     0.141 A 
ATOM     10  N   UNL d   1      24.855 -16.259  -2.767  0.00  0.00    -0.283 NA
ATOM     11  N   UNL d   1      26.992 -15.545  -2.085  0.00  0.00    -0.298 N 
ATOM     12  H   UNL d   1      24.067 -16.849  -2.521  0.00  0.00     0.188 HD
ENDROOT
BRANCH   1  13
ATOM     13  S   UNL d   1      28.607 -13.963  -0.634  0.00  0.00    -0.111 SA
BRANCH  13  14
ATOM     14  C   UNL d   1      27.032 -13.352   0.104  0.00  0.00     0.181 C 
BRANCH  14  15
ATOM     15  C   UNL d   1      27.165 -13.480   1.630  0.00  0.00     0.231 C 
ATOM     16  N   UNL d   1      28.162 -14.325   2.128  0.00  0.00    -0.326 N 
ATOM     17  H   UNL d   1      28.384 -15.141   1.573  0.00  0.00     0.169 HD
ATOM     18  O   UNL d   1      26.370 -12.870   2.348  0.00  0.00    -0.272 OA
BRANCH  16  19
ATOM     19  C   UNL d   1      28.630 -14.337   3.493  0.00  0.00     0.041 C 
ATOM     20  C   UNL d   1      27.781 -14.825   4.505  0.00  0.00     0.030 C 
ATOM     21  C   UNL d   1      28.190 -14.851   5.854  0.00  0.00     0.002 C 
ATOM     22  C   UNL d   1      29.440 -14.366   6.223  0.00  0.00     0.001 C 
ATOM     23  C   UNL d   1      30.284 -13.866   5.243  0.00  0.00     0.009 C 
ATOM     24  C   UNL d   1      29.933 -13.949   3.880  0.00  0.00    -0.032 C 
BRANCH  24  25
ATOM     25  C   UNL d   1      31.022 -13.707   2.869  0.00  0.00     0.036 C 
ATOM     26  C   UNL d   1      31.409 -14.874   1.993  0.00  0.00     0.010 C 
ENDBRANCH  24  25
ENDBRANCH  16  19
ENDBRANCH  14  15
ENDBRANCH  13  14
ENDBRANCH   1  13
BRANCH  11  27
ATOM     27  C   UNL d   1      27.115 -14.754  -3.244  0.00  0.00     0.041 A 
ATOM     28  C   UNL d   1      26.471 -13.508  -3.311  0.00  0.00     0.030 A 
ATOM     29  C   UNL d   1      26.394 -12.810  -4.510  0.00  0.00     0.005 A 
ATOM     30  C   UNL d   1      27.032 -13.318  -5.639  0.00  0.00     0.037 A 
ATOM     31  C   UNL d   1      27.711 -14.538  -5.582  0.00  0.00     0.070 A 
ATOM     32  C   UNL d   1      27.752 -15.247  -4.383  0.00  0.00     0.066 A 
BRANCH  31  33
ATOM     33  O   UNL d   1      28.264 -14.975  -6.757  0.00  0.00    -0.356 OA
ATOM     34  C   UNL d   1      29.657 -14.715  -6.917  0.00  0.00     0.210 C 
ENDBRANCH  31  33
ENDBRANCH  11  27
TORSDOF 7
ENDMDL
MODEL 6
REMARK VINA RESULT:    -6.898      3.145      5.738
REMARK INTER + INTRA:         -12.171
REMARK INTER:                  -8.987
REMARK INTRA:                  -3.185
REMARK CONF_INDEPENDENT:        2.088
REMARK UNBOUND:                -3.185
REMARK  7 active torsions:
REMARK  status: ('A' for Active; 'I' for Inactive)
REMARK    1  A    between atoms: C_2  and  C_3 
REMARK    2  A    between atoms: C_8  and  N_9 
REMARK       I    between atoms: N_9  and  C_10 
REMARK    3  A    between atoms: C_10  and  C_12 
REMARK    4  A    between atoms: C_12  and  S_13 
REMARK    5  A    between atoms: S_13  and  C_14 
REMARK    6  A    between atoms: N_24  and  C_25 
REMARK    7  A    between atoms: C_29  and  O_30 
ROOT
ATOM      1  C   UNL d   1      27.275 -12.314  -3.584  0.00  0.00     0.281 A 
ATOM      2  N   UNL d   1      26.633 -12.029  -2.271  0.00  0.00    -0.232 NA
ATOM      3  C   UNL d   1      27.126 -12.663  -1.274  0.00  0.00     0.185 A 
ATOM      4  N   UNL d   1      26.655 -12.571   0.022  0.00  0.00    -0.129 NA
ATOM      5  N   UNL d   1      27.392 -13.283   0.768  0.00  0.00    -0.152 NA
ATOM      6  C   UNL d   1      28.370 -13.864   0.005  0.00  0.00     0.071 A 
ATOM      7  C   UNL d   1      29.438 -14.717   0.596  0.00  0.00     0.073 C 
ATOM      8  C   UNL d   1      28.262 -13.552  -1.270  0.00  0.00     0.085 A 
ATOM      9  C   UNL d   1      28.980 -13.810  -2.500  0.00  0.00     0.141 A 
ATOM     10  N   UNL d   1      30.069 -14.515  -2.517  0.00  0.00    -0.283 NA
ATOM     11  N   UNL d   1      28.443 -13.230  -3.632  0.00  0.00    -0.298 N 
ATOM     12  H   UNL d   1      30.354 -14.878  -1.612  0.00  0.00     0.188 HD
ENDROOT
BRANCH   1  13
ATOM     13  S   UNL d   1      26.046 -12.954  -4.813  0.00  0.00    -0.111 SA
BRANCH  13  14
ATOM     14  C   UNL d   1      24.720 -13.646  -3.735  0.00  0.00     0.181 C 
BRANCH  14  15
ATOM     15  C   UNL d   1      25.258 -14.952  -3.132  0.00  0.00     0.231 C 
ATOM     16  N   UNL d   1      25.455 -14.998  -1.748  0.00  0.00    -0.326 N 
ATOM     17  H   UNL d   1      25.729 -14.133  -1.301  0.00  0.00     0.169 HD
ATOM     18  O   UNL d   1      25.530 -15.888  -3.888  0.00  0.00    -0.272 OA
BRANCH  16  19
ATOM     19  C   UNL d   1      25.656 -16.204  -0.981  0.00  0.00     0.041 C 
ATOM     20  C   UNL d   1      26.936 -16.486  -0.467  0.00  0.00     0.030 C 
ATOM     21  C   UNL d   1      27.181 -17.655   0.282  0.00  0.00     0.002 C 
ATOM     22  C   UNL d   1      26.165 -18.575   0.511  0.00  0.00     0.001 C 
ATOM     23  C   UNL d   1      24.902 -18.323  -0.002  0.00  0.00     0.009 C 
ATOM     24  C   UNL d   1      24.616 -17.102  -0.646  0.00  0.00    -0.032 C 
BRANCH  24  25
ATOM     25  C   UNL d   1      23.167 -16.758  -0.866  0.00  0.00     0.036 C 
ATOM     26  C   UNL d   1      22.155 -17.822  -0.520  0.00  0.00     0.010 C 
ENDBRANCH  24  25
ENDBRANCH  16  19
ENDBRANCH  14  15
ENDBRANCH  13  14
ENDBRANCH   1  13
BRANCH  11  27
ATOM     27  C   UNL d   1      29.121 -13.405  -4.855  0.00  0.00     0.041 A 
ATOM     28  C   UNL d   1      29.459 -12.286  -5.632  0.00  0.00     0.030 A 
ATOM     29  C   UNL d   1      29.928 -12.438  -6.931  0.00  0.00     0.005 A 
ATOM     30  C   UNL d   1      30.137 -13.718  -7.438  0.00  0.00     0.037 A 
ATOM     31  C   UNL d   1      29.842 -14.844  -6.665  0.00  0.00     0.070 A 
ATOM     32  C   UNL d   1      29.340 -14.680  -5.376  0.00  0.00     0.066 A 
BRANCH  31  33
ATOM     33  O   UNL d   1      30.036 -16.058  -7.270  0.00  0.00    -0.356 OA
ATOM     34  C   UNL d   1      31.238 -16.738  -6.917  0.00  0.00     0.210 C 
ENDBRANCH  31  33
ENDBRANCH  11  27
TORSDOF 7
ENDMDL
MODEL 7
REMARK VINA RESULT:    -6.794      4.490      7.101
REMARK INTER + INTRA:         -12.125
REMARK INTER:                  -8.882
REMARK INTRA:                  -3.242
REMARK CONF_INDEPENDENT:        2.088
REMARK UNBOUND:                -3.242
REMARK  7 active torsions:
REMARK  status: ('A' for Active; 'I' for Inactive)
REMARK    1  A    between atoms: C_2  and  C_3 
REMARK    2  A    between atoms: C_8  and  N_9 
REMARK       I    between atoms: N_9  and  C_10 
REMARK    3  A    between atoms: C_10  and  C_12 
REMARK    4  A    between atoms: C_12  and  S_13 
REMARK    5  A    between atoms: S_13  and  C_14 
REMARK    6  A    between atoms: N_24  and  C_25 
REMARK    7  A    between atoms: C_29  and  O_30 
ROOT
ATOM      1  C   UNL d   1      30.602 -15.692  -5.203  0.00  0.00     0.281 A 
ATOM      2  N   UNL d   1      30.205 -15.154  -3.873  0.00  0.00    -0.232 NA
ATOM      3  C   UNL d   1      30.192 -16.008  -2.921  0.00  0.00     0.185 A 
ATOM      4  N   UNL d   1      29.820 -15.726  -1.620  0.00  0.00    -0.129 NA
ATOM      5  N   UNL d   1      29.967 -16.774  -0.923  0.00  0.00    -0.152 NA
ATOM      6  C   UNL d   1      30.440 -17.780  -1.724  0.00  0.00     0.071 A 
ATOM      7  C   UNL d   1      30.776 -19.129  -1.193  0.00  0.00     0.073 C 
ATOM      8  C   UNL d   1      30.583 -17.397  -2.976  0.00  0.00     0.085 A 
ATOM      9  C   UNL d   1      31.054 -17.963  -4.223  0.00  0.00     0.141 A 
ATOM     10  N   UNL d   1      31.516 -19.173  -4.288  0.00  0.00    -0.283 NA
ATOM     11  N   UNL d   1      31.004 -17.118  -5.314  0.00  0.00    -0.298 N 
ATOM     12  H   UNL d   1      31.500 -19.682  -3.409  0.00  0.00     0.188 HD
ENDROOT
BRANCH   1  13
ATOM     13  S   UNL d   1      29.277 -15.414  -6.468  0.00  0.00    -0.111 SA
BRANCH  13  14
ATOM     14  C   UNL d   1      28.112 -14.286  -5.591  0.00  0.00     0.181 C 
BRANCH  14  15
ATOM     15  C   UNL d   1      27.137 -15.167  -4.796  0.00  0.00     0.231 C 
ATOM     16  N   UNL d   1      27.312 -15.245  -3.410  0.00  0.00    -0.326 N 
ATOM     17  H   UNL d   1      28.262 -15.180  -3.069  0.00  0.00     0.169 HD
ATOM     18  O   UNL d   1      26.270 -15.796  -5.408  0.00  0.00    -0.272 OA
BRANCH  16  19
ATOM     19  C   UNL d   1      26.334 -15.760  -2.482  0.00  0.00     0.041 C 
ATOM     20  C   UNL d   1      26.737 -16.700  -1.513  0.00  0.00     0.030 C 
ATOM     21  C   UNL d   1      25.817 -17.236  -0.588  0.00  0.00     0.002 C 
ATOM     22  C   UNL d   1      24.478 -16.868  -0.629  0.00  0.00     0.001 C 
ATOM     23  C   UNL d   1      24.059 -15.957  -1.587  0.00  0.00     0.009 C 
ATOM     24  C   UNL d   1      24.991 -15.323  -2.434  0.00  0.00    -0.032 C 
BRANCH  24  25
ATOM     25  C   UNL d   1      24.521 -14.115  -3.198  0.00  0.00     0.036 C 
ATOM     26  C   UNL d   1      25.413 -12.898  -3.162  0.00  0.00     0.010 C 
ENDBRANCH  24  25
ENDBRANCH  16  19
ENDBRANCH  14  15
ENDBRANCH  13  14
ENDBRANCH   1  13
BRANCH  11  27
ATOM     27  C   UNL d   1      31.492 -17.594  -6.547  0.00  0.00     0.041 A 
ATOM     28  C   UNL d   1      32.522 -16.903  -7.204  0.00  0.00     0.030 A 
ATOM     29  C   UNL d   1      32.870 -17.221  -8.511  0.00  0.00     0.005 A 
ATOM     30  C   UNL d   1      32.240 -18.288  -9.147  0.00  0.00     0.037 A 
ATOM     31  C   UNL d   1      31.239 -19.012  -8.494  0.00  0.00     0.070 A 
ATOM     32  C   UNL d   1      30.874 -18.663  -7.196  0.00  0.00     0.066 A 
BRANCH  31  33
ATOM     33  O   UNL d   1      30.647 -20.011  -9.221  0.00  0.00    -0.356 OA
ATOM     34  C   UNL d   1      31.538 -20.871  -9.928  0.00  0.00     0.210 C 
ENDBRANCH  31  33
ENDBRANCH  11  27
TORSDOF 7
ENDMDL
MODEL 8
REMARK VINA RESULT:    -6.533      3.326      7.562
REMARK INTER + INTRA:         -12.063
REMARK INTER:                  -8.621
REMARK INTRA:                  -3.441
REMARK CONF_INDEPENDENT:        2.088
REMARK UNBOUND:                -3.441
REMARK  7 active torsions:
REMARK  status: ('A' for Active; 'I' for Inactive)
REMARK    1  A    between atoms: C_2  and  C_3 
REMARK    2  A    between atoms: C_8  and  N_9 
REMARK       I    between atoms: N_9  and  C_10 
REMARK    3  A    between atoms: C_10  and  C_12 
REMARK    4  A    between atoms: C_12  and  S_13 
REMARK    5  A    between atoms: S_13  and  C_14 
REMARK    6  A    between atoms: N_24  and  C_25 
REMARK    7  A    between atoms: C_29  and  O_30 
ROOT
ATOM      1  C   UNL d   1      27.180 -15.459  -2.479  0.00  0.00     0.281 A 
ATOM      2  N   UNL d   1      28.035 -14.387  -3.057  0.00  0.00    -0.232 NA
ATOM      3  C   UNL d   1      28.102 -13.311  -2.367  0.00  0.00     0.185 A 
ATOM      4  N   UNL d   1      28.810 -12.184  -2.740  0.00  0.00    -0.129 NA
ATOM      5  N   UNL d   1      28.710 -11.323  -1.816  0.00  0.00    -0.152 NA
ATOM      6  C   UNL d   1      27.944 -11.840  -0.804  0.00  0.00     0.071 A 
ATOM      7  C   UNL d   1      27.687 -11.096   0.459  0.00  0.00     0.073 C 
ATOM      8  C   UNL d   1      27.510 -13.053  -1.076  0.00  0.00     0.085 A 
ATOM      9  C   UNL d   1      26.730 -14.083  -0.423  0.00  0.00     0.141 A 
ATOM     10  N   UNL d   1      26.275 -13.929   0.782  0.00  0.00    -0.283 NA
ATOM     11  N   UNL d   1      26.540 -15.238  -1.156  0.00  0.00    -0.298 N 
ATOM     12  H   UNL d   1      26.492 -13.034   1.207  0.00  0.00     0.188 HD
ENDROOT
BRANCH   1  13
ATOM     13  S   UNL d   1      25.827 -15.950  -3.647  0.00  0.00    -0.111 SA
BRANCH  13  14
ATOM     14  C   UNL d   1      26.057 -14.772  -5.046  0.00  0.00     0.181 C 
BRANCH  14  15
ATOM     15  C   UNL d   1      25.506 -13.412  -4.592  0.00  0.00     0.231 C 
ATOM     16  N   UNL d   1      26.399 -12.337  -4.526  0.00  0.00    -0.326 N 
ATOM     17  H   UNL d   1      27.354 -12.557  -4.278  0.00  0.00     0.169 HD
ATOM     18  O   UNL d   1      24.318 -13.330  -4.269  0.00  0.00    -0.272 OA
BRANCH  16  19
ATOM     19  C   UNL d   1      26.015 -10.950  -4.421  0.00  0.00     0.041 C 
ATOM     20  C   UNL d   1      25.907 -10.362  -3.146  0.00  0.00     0.030 C 
ATOM     21  C   UNL d   1      25.531  -9.012  -2.993  0.00  0.00     0.002 C 
ATOM     22  C   UNL d   1      25.228  -8.232  -4.103  0.00  0.00     0.001 C 
ATOM     23  C   UNL d   1      25.312  -8.798  -5.366  0.00  0.00     0.009 C 
ATOM     24  C   UNL d   1      25.806 -10.107  -5.537  0.00  0.00    -0.032 C 
BRANCH  24  25
ATOM     25  C   UNL d   1      26.189 -10.526  -6.931  0.00  0.00     0.036 C 
ATOM     26  C   UNL d   1      27.410 -11.402  -7.067  0.00  0.00     0.010 C 
ENDBRANCH  24  25
ENDBRANCH  16  19
ENDBRANCH  14  15
ENDBRANCH  13  14
ENDBRANCH   1  13
BRANCH  11  27
ATOM     27  C   UNL d   1      25.830 -16.297  -0.558  0.00  0.00     0.041 A 
ATOM     28  C   UNL d   1      26.528 -17.380  -0.001  0.00  0.00     0.030 A 
ATOM     29  C   UNL d   1      25.856 -18.530   0.397  0.00  0.00     0.005 A 
ATOM     30  C   UNL d   1      24.467 -18.575   0.312  0.00  0.00     0.037 A 
ATOM     31  C   UNL d   1      23.752 -17.491  -0.204  0.00  0.00     0.070 A 
ATOM     32  C   UNL d   1      24.438 -16.356  -0.632  0.00  0.00     0.066 A 
BRANCH  31  33
ATOM     33  O   UNL d   1      22.394 -17.652  -0.291  0.00  0.00    -0.356 OA
ATOM     34  C   UNL d   1      21.931 -19.000  -0.287  0.00  0.00     0.210 C 
ENDBRANCH  31  33
ENDBRANCH  11  27
TORSDOF 7
ENDMDL
MODEL 9
REMARK VINA RESULT:    -6.208      3.611      7.636
REMARK INTER + INTRA:         -12.086
REMARK INTER:                  -8.296
REMARK INTRA:                  -3.789
REMARK CONF_INDEPENDENT:        2.088
REMARK UNBOUND:                -3.789
REMARK  7 active torsions:
REMARK  status: ('A' for Active; 'I' for Inactive)
REMARK    1  A    between atoms: C_2  and  C_3 
REMARK    2  A    between atoms: C_8  and  N_9 
REMARK       I    between atoms: N_9  and  C_10 
REMARK    3  A    between atoms: C_10  and  C_12 
REMARK    4  A    between atoms: C_12  and  S_13 
REMARK    5  A    between atoms: S_13  and  C_14 
REMARK    6  A    between atoms: N_24  and  C_25 
REMARK    7  A    between atoms: C_29  and  O_30 
ROOT
ATOM      1  C   UNL d   1      29.213 -15.359  -1.999  0.00  0.00     0.281 A 
ATOM      2  N   UNL d   1      30.091 -14.275  -2.521  0.00  0.00    -0.232 NA
ATOM      3  C   UNL d   1      29.576 -13.104  -2.509  0.00  0.00     0.185 A 
ATOM      4  N   UNL d   1      30.205 -11.967  -2.981  0.00  0.00    -0.129 NA
ATOM      5  N   UNL d   1      29.445 -10.974  -2.778  0.00  0.00    -0.152 NA
ATOM      6  C   UNL d   1      28.297 -11.407  -2.168  0.00  0.00     0.071 A 
ATOM      7  C   UNL d   1      27.222 -10.471  -1.739  0.00  0.00     0.073 C 
ATOM      8  C   UNL d   1      28.288 -12.711  -1.988  0.00  0.00     0.085 A 
ATOM      9  C   UNL d   1      27.418 -13.705  -1.395  0.00  0.00     0.141 A 
ATOM     10  N   UNL d   1      26.303 -13.375  -0.819  0.00  0.00    -0.283 NA
ATOM     11  N   UNL d   1      27.874 -15.007  -1.459  0.00  0.00    -0.298 N 
ATOM     12  H   UNL d   1      26.092 -12.383  -0.839  0.00  0.00     0.188 HD
ENDROOT
BRANCH   1  13
ATOM     13  S   UNL d   1      28.943 -16.682  -3.268  0.00  0.00    -0.111 SA
BRANCH  13  14
ATOM     14  C   UNL d   1      29.514 -15.871  -4.822  0.00  0.00     0.181 C 
BRANCH  14  15
ATOM     15  C   UNL d   1      28.372 -14.967  -5.310  0.00  0.00     0.231 C 
ATOM     16  N   UNL d   1      28.564 -13.582  -5.246  0.00  0.00    -0.326 N 
ATOM     17  H   UNL d   1      29.135 -13.240  -4.484  0.00  0.00     0.169 HD
ATOM     18  O   UNL d   1      27.324 -15.489  -5.698  0.00  0.00    -0.272 OA
BRANCH  16  19
ATOM     19  C   UNL d   1      27.752 -12.603  -5.925  0.00  0.00     0.041 C 
ATOM     20  C   UNL d   1      28.107 -12.199  -7.226  0.00  0.00     0.030 C 
ATOM     21  C   UNL d   1      27.348 -11.241  -7.928  0.00  0.00     0.002 C 
ATOM     22  C   UNL d   1      26.238 -10.649  -7.338  0.00  0.00     0.001 C 
ATOM     23  C   UNL d   1      25.881 -11.021  -6.051  0.00  0.00     0.009 C 
ATOM     24  C   UNL d   1      26.560 -12.064  -5.389  0.00  0.00    -0.032 C 
BRANCH  24  25
ATOM     25  C   UNL d   1      25.913 -12.638  -4.157  0.00  0.00     0.036 C 
ATOM     26  C   UNL d   1      25.178 -13.946  -4.321  0.00  0.00     0.010 C 
ENDBRANCH  24  25
ENDBRANCH  16  19
ENDBRANCH  14  15
ENDBRANCH  13  14
ENDBRANCH   1  13
BRANCH  11  27
ATOM     27  C   UNL d   1      27.096 -16.015  -0.859  0.00  0.00     0.041 A 
ATOM     28  C   UNL d   1      27.650 -16.818   0.151  0.00  0.00     0.030 A 
ATOM     29  C   UNL d   1      26.985 -17.950   0.605  0.00  0.00     0.005 A 
ATOM     30  C   UNL d   1      25.720 -18.247   0.105  0.00  0.00     0.037 A 
ATOM     31  C   UNL d   1      25.135 -17.438  -0.873  0.00  0.00     0.070 A 
ATOM     32  C   UNL d   1      25.826 -16.324  -1.346  0.00  0.00     0.066 A 
BRANCH  31  33
ATOM     33  O   UNL d   1      23.910 -17.841  -1.335  0.00  0.00    -0.356 OA
ATOM     34  C   UNL d   1      22.909 -18.036  -0.339  0.00  0.00     0.210 C 
ENDBRANCH  31  33
ENDBRANCH  11  27
TORSDOF 7
ENDMDL
