MODEL 1
REMARK VINA RESULT:   -25.982      0.000      0.000
REMARK INTER + INTRA:         -27.523
REMARK INTER:                 -26.877
REMARK INTRA:                  -0.646
REMARK CONF_INDEPENDENT:        0.895
REMARK UNBOUND:                -0.646
REMARK  3 active torsions:
REMARK  status: ('A' for Active; 'I' for Inactive)
REMARK    1  A    between atoms: C_5  and  C_6 
REMARK    2  A    between atoms: C_6  and  N_8 
REMARK       I    between atoms: N_8  and  C_9 
REMARK    3  A    between atoms: C_9  and  C_11 
ROOT
ATOM      1  N   UNL d   1      24.510 -15.309  -2.243  0.00  0.00    -0.348 N 
ATOM      2  C   UNL d   1      23.322 -15.768  -1.706  0.00  0.00     0.253 C 
ATOM      3  O   UNL d   1      22.298 -15.093  -1.638  0.00  0.00    -0.268 OA
ATOM      4  H   UNL d   1      25.273 -15.962  -2.314  0.00  0.00     0.163 HD
ENDROOT
BRANCH   2   5
ATOM      5  C   UNL d   1      23.297 -17.172  -1.215  0.00  0.00     0.046 A 
ATOM      6  C   UNL d   1      24.473 -17.843  -0.834  0.00  0.00     0.018 A 
ATOM      7  C   UNL d   1      24.424 -19.140  -0.304  0.00  0.00     0.003 A 
ATOM      8  C   UNL d   1      23.211 -19.819  -0.145  0.00  0.00     0.032 A 
ATOM      9  C   UNL d   1      22.053 -19.139  -0.530  0.00  0.00     0.062 A 
ATOM     10  N   UNL d   1      20.735 -19.514  -0.498  0.00  0.00    -0.278 N 
ATOM     11  C   UNL d   1      22.063 -17.843  -1.046  0.00  0.00     0.027 A 
ATOM     12  N   UNL d   1      19.889 -18.577  -0.953  0.00  0.00    -0.186 NA
ATOM     13  H   UNL d   1      20.350 -20.398  -0.182  0.00  0.00     0.189 HD
ATOM     14  C   UNL d   1      20.695 -17.558  -1.270  0.00  0.00     0.153 A 
ENDBRANCH   2   5
BRANCH   1  15
ATOM     15  C   UNL d   1      24.667 -13.965  -2.838  0.00  0.00     0.121 C 
ATOM     16  C   UNL d   1      23.590 -13.700  -3.897  0.00  0.00     0.038 C 
BRANCH  15  17
ATOM     17  C   UNL d   1      26.066 -13.812  -3.447  0.00  0.00     0.005 A 
ATOM     18  C   UNL d   1      27.065 -12.899  -3.157  0.00  0.00     0.018 A 
ATOM     19  C   UNL d   1      28.247 -13.085  -3.925  0.00  0.00     0.015 A 
ATOM     20  C   UNL d   1      28.148 -14.143  -4.798  0.00  0.00    -0.021 A 
ATOM     21  C   UNL d   1      29.191 -14.626  -5.753  0.00  0.00     0.056 C 
ATOM     22  S   UNL d   1      26.611 -14.888  -4.696  0.00  0.00    -0.098 SA
ENDBRANCH  15  17
ENDBRANCH   1  15
TORSDOF 3
ENDMDL
MODEL 2
REMARK VINA RESULT:   -25.730      1.701      2.030
REMARK INTER + INTRA:         -27.352
REMARK INTER:                 -26.625
REMARK INTRA:                  -0.728
REMARK CONF_INDEPENDENT:        0.895
REMARK UNBOUND:                -0.728
REMARK  3 active torsions:
REMARK  status: ('A' for Active; 'I' for Inactive)
REMARK    1  A    between atoms: C_5  and  C_6 
REMARK    2  A    between atoms: C_6  and  N_8 
REMARK       I    between atoms: N_8  and  C_9 
REMARK    3  A    between atoms: C_9  and  C_11 
ROOT
ATOM      1  N   UNL d   1      24.530 -15.298  -2.158  0.00  0.00    -0.348 N 
ATOM      2  C   UNL d   1      23.326 -15.770  -1.668  0.00  0.00     0.253 C 
ATOM      3  O   UNL d   1      22.295 -15.102  -1.632  0.00  0.00    -0.268 OA
ATOM      4  H   UNL d   1      25.299 -15.946  -2.205  0.00  0.00     0.163 HD
ENDROOT
BRANCH   2   5
ATOM      5  C   UNL d   1      23.293 -17.178  -1.189  0.00  0.00     0.046 A 
ATOM      6  C   UNL d   1      24.463 -17.856  -0.804  0.00  0.00     0.018 A 
ATOM      7  C   UNL d   1      24.407 -19.157  -0.286  0.00  0.00     0.003 A 
ATOM      8  C   UNL d   1      23.190 -19.833  -0.143  0.00  0.00     0.032 A 
ATOM      9  C   UNL d   1      22.038 -19.147  -0.531  0.00  0.00     0.062 A 
ATOM     10  N   UNL d   1      20.718 -19.519  -0.514  0.00  0.00    -0.278 N 
ATOM     11  C   UNL d   1      22.056 -17.847  -1.036  0.00  0.00     0.027 A 
ATOM     12  N   UNL d   1      19.879 -18.575  -0.968  0.00  0.00    -0.186 NA
ATOM     13  H   UNL d   1      20.328 -20.404  -0.209  0.00  0.00     0.189 HD
ATOM     14  C   UNL d   1      20.691 -17.556  -1.270  0.00  0.00     0.153 A 
ENDBRANCH   2   5
BRANCH   1  15
ATOM     15  C   UNL d   1      24.700 -13.949  -2.736  0.00  0.00     0.121 C 
ATOM     16  C   UNL d   1      24.725 -14.004  -4.269  0.00  0.00     0.038 C 
BRANCH  15  17
ATOM     17  C   UNL d   1      25.981 -13.298  -2.202  0.00  0.00     0.005 A 
ATOM     18  C   UNL d   1      26.660 -12.177  -2.650  0.00  0.00     0.018 A 
ATOM     19  C   UNL d   1      27.812 -11.863  -1.878  0.00  0.00     0.015 A 
ATOM     20  C   UNL d   1      28.008 -12.744  -0.840  0.00  0.00    -0.021 A 
ATOM     21  C   UNL d   1      29.110 -12.719   0.168  0.00  0.00     0.056 C 
ATOM     22  S   UNL d   1      26.804 -13.960  -0.825  0.00  0.00    -0.098 SA
ENDBRANCH  15  17
ENDBRANCH   1  15
TORSDOF 3
ENDMDL
