MODEL 1
REMARK VINA RESULT:   -10.282      0.000      0.000
REMARK INTER + INTRA:         -16.051
REMARK INTER:                 -13.861
REMARK INTRA:                  -2.189
REMARK CONF_INDEPENDENT:        3.580
REMARK UNBOUND:                -2.189
REMARK  12 active torsions:
REMARK  status: ('A' for Active; 'I' for Inactive)
REMARK    1  A    between atoms: C_2  and  C_3 
REMARK    2  A    between atoms: C_3  and  C_4 
REMARK    3  A    between atoms: C_4  and  O_5 
REMARK    4  A    between atoms: O_5  and  C_6 
REMARK    5  A    between atoms: C_11  and  C_12 
REMARK       I    between atoms: C_12  and  N_14 
REMARK    6  A    between atoms: N_14  and  C_15 
REMARK    7  A    between atoms: C_15  and  N_17 
REMARK    8  A    between atoms: N_17  and  N_18 
REMARK       I    between atoms: N_18  and  C_19 
REMARK    9  A    between atoms: C_19  and  C_21 
REMARK   10  A    between atoms: C_24  and  N_25 
REMARK       I    between atoms: N_25  and  C_26 
REMARK   11  A    between atoms: C_26  and  C_28 
REMARK   12  A    between atoms: C_28  and  C_29 
ROOT
ATOM      1  N   UNL d   1      29.660 -16.959  -0.137  0.00  0.00    -0.273 N 
ATOM      2  H   UNL d   1      30.206 -16.825   0.711  0.00  0.00     0.189 HD
ENDROOT
BRANCH   1   3
ATOM      3  C   UNL d   1      30.157 -17.424  -1.376  0.00  0.00     0.193 C 
ATOM      4  S   UNL d   1      31.069 -18.842  -1.415  0.00  0.00    -0.039 SA
BRANCH   3   5
ATOM      5  N   UNL d   1      29.843 -16.637  -2.517  0.00  0.00    -0.298 N 
ATOM      6  C   UNL d   1      30.019 -17.021  -3.880  0.00  0.00     0.260 C 
ATOM      7  O   UNL d   1      30.056 -18.199  -4.238  0.00  0.00    -0.267 OA
ATOM      8  H   UNL d   1      29.649 -15.655  -2.375  0.00  0.00     0.171 HD
BRANCH   6   9
ATOM      9  C   UNL d   1      30.141 -16.015  -5.008  0.00  0.00     0.065 A 
ATOM     10  C   UNL d   1      31.466 -15.683  -5.410  0.00  0.00     0.020 A 
ATOM     11  C   UNL d   1      31.743 -14.817  -6.477  0.00  0.00     0.001 A 
ATOM     12  C   UNL d   1      30.693 -14.253  -7.181  0.00  0.00     0.003 A 
ATOM     13  C   UNL d   1      29.383 -14.488  -6.750  0.00  0.00     0.038 A 
ATOM     14  C   UNL d   1      29.100 -15.352  -5.662  0.00  0.00     0.084 A 
BRANCH  14  15
ATOM     15  O   UNL d   1      27.775 -15.567  -5.429  0.00  0.00    -0.350 OA
BRANCH  15  16
ATOM     16  C   UNL d   1      27.044 -14.491  -4.837  0.00  0.00     0.175 C 
BRANCH  16  17
ATOM     17  C   UNL d   1      25.727 -15.119  -4.398  0.00  0.00     0.026 C 
BRANCH  17  18
ATOM     18  C   UNL d   1      24.907 -14.163  -3.551  0.00  0.00    -0.002 C 
ATOM     19  C   UNL d   1      25.747 -12.963  -3.165  0.00  0.00     0.005 C 
ENDBRANCH  17  18
ENDBRANCH  16  17
ENDBRANCH  15  16
ENDBRANCH  14  15
ENDBRANCH   6   9
ENDBRANCH   3   5
ENDBRANCH   1   3
BRANCH   1  20
ATOM     20  N   UNL d   1      28.213 -16.960   0.093  0.00  0.00    -0.264 N 
ATOM     21  C   UNL d   1      27.290 -16.825  -0.932  0.00  0.00     0.270 C 
ATOM     22  O   UNL d   1      27.564 -16.450  -2.078  0.00  0.00    -0.266 OA
ATOM     23  H   UNL d   1      27.943 -17.345   0.999  0.00  0.00     0.190 HD
BRANCH  21  24
ATOM     24  C   UNL d   1      25.870 -17.182  -0.661  0.00  0.00     0.033 A 
ATOM     25  C   UNL d   1      25.548 -18.155   0.309  0.00  0.00     0.019 A 
ATOM     26  C   UNL d   1      24.213 -18.568   0.529  0.00  0.00     0.030 A 
ATOM     27  C   UNL d   1      23.174 -17.967  -0.185  0.00  0.00     0.034 A 
ATOM     28  C   UNL d   1      23.533 -17.047  -1.184  0.00  0.00     0.030 A 
ATOM     29  C   UNL d   1      24.849 -16.645  -1.422  0.00  0.00     0.019 A 
BRANCH  27  30
ATOM     30  N   UNL d   1      21.807 -18.269   0.117  0.00  0.00    -0.327 N 
ATOM     31  C   UNL d   1      20.976 -18.946  -0.766  0.00  0.00     0.222 C 
ATOM     32  O   UNL d   1      21.323 -19.305  -1.890  0.00  0.00    -0.273 OA
ATOM     33  H   UNL d   1      21.398 -17.843   0.941  0.00  0.00     0.169 HD
BRANCH  31  34
ATOM     34  C   UNL d   1      19.543 -19.219  -0.334  0.00  0.00     0.107 C 
BRANCH  34  35
ATOM     35  C   UNL d   1      19.539 -20.364   0.720  0.00  0.00    -0.014 C 
ATOM     36  C   UNL d   1      19.569 -19.820   2.159  0.00  0.00     0.010 C 
ATOM     37  C   UNL d   1      18.321 -21.270   0.568  0.00  0.00     0.010 C 
ENDBRANCH  34  35
ENDBRANCH  31  34
ENDBRANCH  27  30
ENDBRANCH  21  24
ENDBRANCH   1  20
TORSDOF 12
ENDMDL
MODEL 2
REMARK VINA RESULT:    -9.651      2.243      3.080
REMARK INTER + INTRA:         -15.702
REMARK INTER:                 -13.231
REMARK INTRA:                  -2.471
REMARK CONF_INDEPENDENT:        3.580
REMARK UNBOUND:                -2.471
REMARK  12 active torsions:
REMARK  status: ('A' for Active; 'I' for Inactive)
REMARK    1  A    between atoms: C_2  and  C_3 
REMARK    2  A    between atoms: C_3  and  C_4 
REMARK    3  A    between atoms: C_4  and  O_5 
REMARK    4  A    between atoms: O_5  and  C_6 
REMARK    5  A    between atoms: C_11  and  C_12 
REMARK       I    between atoms: C_12  and  N_14 
REMARK    6  A    between atoms: N_14  and  C_15 
REMARK    7  A    between atoms: C_15  and  N_17 
REMARK    8  A    between atoms: N_17  and  N_18 
REMARK       I    between atoms: N_18  and  C_19 
REMARK    9  A    between atoms: C_19  and  C_21 
REMARK   10  A    between atoms: C_24  and  N_25 
REMARK       I    between atoms: N_25  and  C_26 
REMARK   11  A    between atoms: C_26  and  C_28 
REMARK   12  A    between atoms: C_28  and  C_29 
ROOT
ATOM      1  N   UNL d   1      28.098 -14.957  -2.257  0.00  0.00    -0.273 N 
ATOM      2  H   UNL d   1      28.478 -14.412  -1.486  0.00  0.00     0.189 HD
ENDROOT
BRANCH   1   3
ATOM      3  C   UNL d   1      28.621 -15.013  -3.568  0.00  0.00     0.193 C 
ATOM      4  S   UNL d   1      29.708 -16.240  -3.967  0.00  0.00    -0.039 SA
BRANCH   3   5
ATOM      5  N   UNL d   1      28.182 -14.002  -4.467  0.00  0.00    -0.298 N 
ATOM      6  C   UNL d   1      28.080 -14.122  -5.884  0.00  0.00     0.260 C 
ATOM      7  O   UNL d   1      27.949 -15.208  -6.451  0.00  0.00    -0.267 OA
ATOM      8  H   UNL d   1      28.103 -13.058  -4.114  0.00  0.00     0.171 HD
BRANCH   6   9
ATOM      9  C   UNL d   1      28.089 -12.924  -6.813  0.00  0.00     0.065 A 
ATOM     10  C   UNL d   1      28.531 -13.167  -8.144  0.00  0.00     0.020 A 
ATOM     11  C   UNL d   1      28.539 -12.176  -9.137  0.00  0.00     0.001 A 
ATOM     12  C   UNL d   1      28.100 -10.901  -8.824  0.00  0.00     0.003 A 
ATOM     13  C   UNL d   1      27.748 -10.611  -7.501  0.00  0.00     0.038 A 
ATOM     14  C   UNL d   1      27.753 -11.607  -6.492  0.00  0.00     0.084 A 
BRANCH  14  15
ATOM     15  O   UNL d   1      27.283 -11.198  -5.280  0.00  0.00    -0.350 OA
BRANCH  15  16
ATOM     16  C   UNL d   1      25.914 -11.493  -4.990  0.00  0.00     0.175 C 
BRANCH  16  17
ATOM     17  C   UNL d   1      25.886 -11.732  -3.485  0.00  0.00     0.026 C 
BRANCH  17  18
ATOM     18  C   UNL d   1      25.575 -13.181  -3.156  0.00  0.00    -0.002 C 
ATOM     19  C   UNL d   1      25.021 -13.882  -4.379  0.00  0.00     0.005 C 
ENDBRANCH  17  18
ENDBRANCH  16  17
ENDBRANCH  15  16
ENDBRANCH  14  15
ENDBRANCH   6   9
ENDBRANCH   3   5
ENDBRANCH   1   3
BRANCH   1  20
ATOM     20  N   UNL d   1      27.136 -15.977  -1.832  0.00  0.00    -0.264 N 
ATOM     21  C   UNL d   1      26.256 -15.786  -0.778  0.00  0.00     0.270 C 
ATOM     22  O   UNL d   1      26.344 -14.874   0.053  0.00  0.00    -0.266 OA
ATOM     23  H   UNL d   1      26.972 -16.703  -2.530  0.00  0.00     0.190 HD
BRANCH  21  24
ATOM     24  C   UNL d   1      25.100 -16.714  -0.640  0.00  0.00     0.033 A 
ATOM     25  C   UNL d   1      23.802 -16.303  -1.009  0.00  0.00     0.019 A 
ATOM     26  C   UNL d   1      22.677 -17.138  -0.814  0.00  0.00     0.030 A 
ATOM     27  C   UNL d   1      22.848 -18.424  -0.296  0.00  0.00     0.034 A 
ATOM     28  C   UNL d   1      24.143 -18.780   0.117  0.00  0.00     0.030 A 
ATOM     29  C   UNL d   1      25.258 -17.957  -0.055  0.00  0.00     0.019 A 
BRANCH  27  30
ATOM     30  N   UNL d   1      21.746 -19.335  -0.218  0.00  0.00    -0.327 N 
ATOM     31  C   UNL d   1      20.448 -18.972  -0.551  0.00  0.00     0.222 C 
ATOM     32  O   UNL d   1      20.125 -17.837  -0.898  0.00  0.00    -0.273 OA
ATOM     33  H   UNL d   1      21.902 -20.228   0.235  0.00  0.00     0.169 HD
BRANCH  31  34
ATOM     34  C   UNL d   1      19.359 -20.029  -0.438  0.00  0.00     0.107 C 
BRANCH  34  35
ATOM     35  C   UNL d   1      18.801 -20.032   1.014  0.00  0.00    -0.014 C 
ATOM     36  C   UNL d   1      18.042 -21.332   1.334  0.00  0.00     0.010 C 
ATOM     37  C   UNL d   1      19.908 -19.849   2.047  0.00  0.00     0.010 C 
ENDBRANCH  34  35
ENDBRANCH  31  34
ENDBRANCH  27  30
ENDBRANCH  21  24
ENDBRANCH   1  20
TORSDOF 12
ENDMDL
MODEL 3
REMARK VINA RESULT:    -9.510      1.480      2.018
REMARK INTER + INTRA:         -15.973
REMARK INTER:                 -13.090
REMARK INTRA:                  -2.884
REMARK CONF_INDEPENDENT:        3.580
REMARK UNBOUND:                -2.884
REMARK  12 active torsions:
REMARK  status: ('A' for Active; 'I' for Inactive)
REMARK    1  A    between atoms: C_2  and  C_3 
REMARK    2  A    between atoms: C_3  and  C_4 
REMARK    3  A    between atoms: C_4  and  O_5 
REMARK    4  A    between atoms: O_5  and  C_6 
REMARK    5  A    between atoms: C_11  and  C_12 
REMARK       I    between atoms: C_12  and  N_14 
REMARK    6  A    between atoms: N_14  and  C_15 
REMARK    7  A    between atoms: C_15  and  N_17 
REMARK    8  A    between atoms: N_17  and  N_18 
REMARK       I    between atoms: N_18  and  C_19 
REMARK    9  A    between atoms: C_19  and  C_21 
REMARK   10  A    between atoms: C_24  and  N_25 
REMARK       I    between atoms: N_25  and  C_26 
REMARK   11  A    between atoms: C_26  and  C_28 
REMARK   12  A    between atoms: C_28  and  C_29 
ROOT
ATOM      1  N   UNL d   1      29.881 -16.841  -0.024  0.00  0.00    -0.273 N 
ATOM      2  H   UNL d   1      30.351 -17.585   0.487  0.00  0.00     0.189 HD
ENDROOT
BRANCH   1   3
ATOM      3  C   UNL d   1      30.447 -16.065  -1.061  0.00  0.00     0.193 C 
ATOM      4  S   UNL d   1      31.328 -14.682  -0.663  0.00  0.00    -0.039 SA
BRANCH   3   5
ATOM      5  N   UNL d   1      30.220 -16.521  -2.387  0.00  0.00    -0.298 N 
ATOM      6  C   UNL d   1      30.973 -17.518  -3.076  0.00  0.00     0.260 C 
ATOM      7  O   UNL d   1      31.618 -18.386  -2.488  0.00  0.00    -0.267 OA
ATOM      8  H   UNL d   1      29.594 -15.983  -2.971  0.00  0.00     0.171 HD
BRANCH   6   9
ATOM      9  C   UNL d   1      31.017 -17.615  -4.588  0.00  0.00     0.065 A 
ATOM     10  C   UNL d   1      31.914 -18.579  -5.128  0.00  0.00     0.020 A 
ATOM     11  C   UNL d   1      32.025 -18.832  -6.503  0.00  0.00     0.001 A 
ATOM     12  C   UNL d   1      31.232 -18.120  -7.387  0.00  0.00     0.003 A 
ATOM     13  C   UNL d   1      30.410 -17.102  -6.893  0.00  0.00     0.038 A 
ATOM     14  C   UNL d   1      30.307 -16.835  -5.504  0.00  0.00     0.084 A 
BRANCH  14  15
ATOM     15  O   UNL d   1      29.386 -15.888  -5.168  0.00  0.00    -0.350 OA
BRANCH  15  16
ATOM     16  C   UNL d   1      28.984 -14.988  -6.203  0.00  0.00     0.175 C 
BRANCH  16  17
ATOM     17  C   UNL d   1      27.778 -14.257  -5.625  0.00  0.00     0.026 C 
BRANCH  17  18
ATOM     18  C   UNL d   1      26.606 -15.197  -5.408  0.00  0.00    -0.002 C 
ATOM     19  C   UNL d   1      26.052 -15.019  -4.009  0.00  0.00     0.005 C 
ENDBRANCH  17  18
ENDBRANCH  16  17
ENDBRANCH  15  16
ENDBRANCH  14  15
ENDBRANCH   6   9
ENDBRANCH   3   5
ENDBRANCH   1   3
BRANCH   1  20
ATOM     20  N   UNL d   1      28.427 -16.840   0.151  0.00  0.00    -0.264 N 
ATOM     21  C   UNL d   1      27.543 -16.800  -0.916  0.00  0.00     0.270 C 
ATOM     22  O   UNL d   1      27.858 -16.518  -2.078  0.00  0.00    -0.266 OA
ATOM     23  H   UNL d   1      28.125 -17.151   1.075  0.00  0.00     0.190 HD
BRANCH  21  24
ATOM     24  C   UNL d   1      26.116 -17.150  -0.669  0.00  0.00     0.033 A 
ATOM     25  C   UNL d   1      25.086 -16.260  -1.039  0.00  0.00     0.019 A 
ATOM     26  C   UNL d   1      23.730 -16.534  -0.744  0.00  0.00     0.030 A 
ATOM     27  C   UNL d   1      23.383 -17.736  -0.122  0.00  0.00     0.034 A 
ATOM     28  C   UNL d   1      24.436 -18.571   0.287  0.00  0.00     0.030 A 
ATOM     29  C   UNL d   1      25.780 -18.302   0.016  0.00  0.00     0.019 A 
BRANCH  27  30
ATOM     30  N   UNL d   1      22.009 -18.097   0.062  0.00  0.00    -0.327 N 
ATOM     31  C   UNL d   1      21.317 -18.895  -0.838  0.00  0.00     0.222 C 
ATOM     32  O   UNL d   1      21.803 -19.324  -1.884  0.00  0.00    -0.273 OA
ATOM     33  H   UNL d   1      21.492 -17.630   0.798  0.00  0.00     0.169 HD
BRANCH  31  34
ATOM     34  C   UNL d   1      19.862 -19.221  -0.533  0.00  0.00     0.107 C 
BRANCH  34  35
ATOM     35  C   UNL d   1      19.805 -20.298   0.589  0.00  0.00    -0.014 C 
ATOM     36  C   UNL d   1      20.052 -19.689   1.981  0.00  0.00     0.010 C 
ATOM     37  C   UNL d   1      18.466 -21.027   0.607  0.00  0.00     0.010 C 
ENDBRANCH  34  35
ENDBRANCH  31  34
ENDBRANCH  27  30
ENDBRANCH  21  24
ENDBRANCH   1  20
TORSDOF 12
ENDMDL
MODEL 4
REMARK VINA RESULT:    -9.486      1.281      1.603
REMARK INTER + INTRA:         -16.290
REMARK INTER:                 -13.066
REMARK INTRA:                  -3.224
REMARK CONF_INDEPENDENT:        3.580
REMARK UNBOUND:                -3.224
REMARK  12 active torsions:
REMARK  status: ('A' for Active; 'I' for Inactive)
REMARK    1  A    between atoms: C_2  and  C_3 
REMARK    2  A    between atoms: C_3  and  C_4 
REMARK    3  A    between atoms: C_4  and  O_5 
REMARK    4  A    between atoms: O_5  and  C_6 
REMARK    5  A    between atoms: C_11  and  C_12 
REMARK       I    between atoms: C_12  and  N_14 
REMARK    6  A    between atoms: N_14  and  C_15 
REMARK    7  A    between atoms: C_15  and  N_17 
REMARK    8  A    between atoms: N_17  and  N_18 
REMARK       I    between atoms: N_18  and  C_19 
REMARK    9  A    between atoms: C_19  and  C_21 
REMARK   10  A    between atoms: C_24  and  N_25 
REMARK       I    between atoms: N_25  and  C_26 
REMARK   11  A    between atoms: C_26  and  C_28 
REMARK   12  A    between atoms: C_28  and  C_29 
ROOT
ATOM      1  N   UNL d   1      28.793 -16.036   0.087  0.00  0.00    -0.273 N 
ATOM      2  H   UNL d   1      29.248 -15.690   0.930  0.00  0.00     0.189 HD
ENDROOT
BRANCH   1   3
ATOM      3  C   UNL d   1      29.431 -16.319  -1.142  0.00  0.00     0.193 C 
ATOM      4  S   UNL d   1      30.792 -17.315  -1.149  0.00  0.00    -0.039 SA
BRANCH   3   5
ATOM      5  N   UNL d   1      28.862 -15.724  -2.300  0.00  0.00    -0.298 N 
ATOM      6  C   UNL d   1      29.296 -15.916  -3.645  0.00  0.00     0.260 C 
ATOM      7  O   UNL d   1      29.915 -16.918  -4.006  0.00  0.00    -0.267 OA
ATOM      8  H   UNL d   1      28.214 -14.959  -2.169  0.00  0.00     0.171 HD
BRANCH   6   9
ATOM      9  C   UNL d   1      29.004 -14.922  -4.752  0.00  0.00     0.065 A 
ATOM     10  C   UNL d   1      29.645 -15.168  -6.000  0.00  0.00     0.020 A 
ATOM     11  C   UNL d   1      29.428 -14.377  -7.137  0.00  0.00     0.001 A 
ATOM     12  C   UNL d   1      28.555 -13.305  -7.059  0.00  0.00     0.003 A 
ATOM     13  C   UNL d   1      27.983 -12.985  -5.823  0.00  0.00     0.038 A 
ATOM     14  C   UNL d   1      28.212 -13.775  -4.668  0.00  0.00     0.084 A 
BRANCH  14  15
ATOM     15  O   UNL d   1      27.502 -13.401  -3.566  0.00  0.00    -0.350 OA
BRANCH  15  16
ATOM     16  C   UNL d   1      26.515 -12.385  -3.753  0.00  0.00     0.175 C 
BRANCH  16  17
ATOM     17  C   UNL d   1      25.288 -13.132  -4.261  0.00  0.00     0.026 C 
BRANCH  17  18
ATOM     18  C   UNL d   1      25.184 -14.517  -3.647  0.00  0.00    -0.002 C 
ATOM     19  C   UNL d   1      25.568 -15.566  -4.670  0.00  0.00     0.005 C 
ENDBRANCH  17  18
ENDBRANCH  16  17
ENDBRANCH  15  16
ENDBRANCH  14  15
ENDBRANCH   6   9
ENDBRANCH   3   5
ENDBRANCH   1   3
BRANCH   1  20
ATOM     20  N   UNL d   1      27.445 -16.558   0.324  0.00  0.00    -0.264 N 
ATOM     21  C   UNL d   1      26.342 -16.150  -0.410  0.00  0.00     0.270 C 
ATOM     22  O   UNL d   1      26.319 -15.156  -1.146  0.00  0.00    -0.266 OA
ATOM     23  H   UNL d   1      27.430 -17.428   0.858  0.00  0.00     0.190 HD
BRANCH  21  24
ATOM     24  C   UNL d   1      25.101 -16.969  -0.343  0.00  0.00     0.033 A 
ATOM     25  C   UNL d   1      25.173 -18.364  -0.145  0.00  0.00     0.019 A 
ATOM     26  C   UNL d   1      24.013 -19.175  -0.157  0.00  0.00     0.030 A 
ATOM     27  C   UNL d   1      22.756 -18.586  -0.311  0.00  0.00     0.034 A 
ATOM     28  C   UNL d   1      22.724 -17.205  -0.566  0.00  0.00     0.030 A 
ATOM     29  C   UNL d   1      23.863 -16.398  -0.574  0.00  0.00     0.019 A 
BRANCH  27  30
ATOM     30  N   UNL d   1      21.561 -19.366  -0.189  0.00  0.00    -0.327 N 
ATOM     31  C   UNL d   1      20.340 -18.953  -0.705  0.00  0.00     0.222 C 
ATOM     32  O   UNL d   1      20.168 -17.873  -1.270  0.00  0.00    -0.273 OA
ATOM     33  H   UNL d   1      21.583 -20.174   0.422  0.00  0.00     0.169 HD
BRANCH  31  34
ATOM     34  C   UNL d   1      19.139 -19.870  -0.524  0.00  0.00     0.107 C 
BRANCH  34  35
ATOM     35  C   UNL d   1      19.313 -20.682   0.792  0.00  0.00    -0.014 C 
ATOM     36  C   UNL d   1      19.563 -19.767   2.003  0.00  0.00     0.010 C 
ATOM     37  C   UNL d   1      18.096 -21.554   1.084  0.00  0.00     0.010 C 
ENDBRANCH  34  35
ENDBRANCH  31  34
ENDBRANCH  27  30
ENDBRANCH  21  24
ENDBRANCH   1  20
TORSDOF 12
ENDMDL
MODEL 5
REMARK VINA RESULT:    -9.177      1.479      3.380
REMARK INTER + INTRA:         -16.132
REMARK INTER:                 -12.756
REMARK INTRA:                  -3.376
REMARK CONF_INDEPENDENT:        3.580
REMARK UNBOUND:                -3.376
REMARK  12 active torsions:
REMARK  status: ('A' for Active; 'I' for Inactive)
REMARK    1  A    between atoms: C_2  and  C_3 
REMARK    2  A    between atoms: C_3  and  C_4 
REMARK    3  A    between atoms: C_4  and  O_5 
REMARK    4  A    between atoms: O_5  and  C_6 
REMARK    5  A    between atoms: C_11  and  C_12 
REMARK       I    between atoms: C_12  and  N_14 
REMARK    6  A    between atoms: N_14  and  C_15 
REMARK    7  A    between atoms: C_15  and  N_17 
REMARK    8  A    between atoms: N_17  and  N_18 
REMARK       I    between atoms: N_18  and  C_19 
REMARK    9  A    between atoms: C_19  and  C_21 
REMARK   10  A    between atoms: C_24  and  N_25 
REMARK       I    between atoms: N_25  and  C_26 
REMARK   11  A    between atoms: C_26  and  C_28 
REMARK   12  A    between atoms: C_28  and  C_29 
ROOT
ATOM      1  N   UNL d   1      29.739 -16.117   0.420  0.00  0.00    -0.273 N 
ATOM      2  H   UNL d   1      30.151 -16.716   1.133  0.00  0.00     0.189 HD
ENDROOT
BRANCH   1   3
ATOM      3  C   UNL d   1      30.433 -15.499  -0.644  0.00  0.00     0.193 C 
ATOM      4  S   UNL d   1      32.092 -15.231  -0.497  0.00  0.00    -0.039 SA
BRANCH   3   5
ATOM      5  N   UNL d   1      29.657 -15.140  -1.780  0.00  0.00    -0.298 N 
ATOM      6  C   UNL d   1      28.773 -14.024  -1.877  0.00  0.00     0.260 C 
ATOM      7  O   UNL d   1      28.892 -13.020  -1.174  0.00  0.00    -0.267 OA
ATOM      8  H   UNL d   1      29.570 -15.817  -2.526  0.00  0.00     0.171 HD
BRANCH   6   9
ATOM      9  C   UNL d   1      27.635 -13.963  -2.877  0.00  0.00     0.065 A 
ATOM     10  C   UNL d   1      26.643 -12.971  -2.636  0.00  0.00     0.020 A 
ATOM     11  C   UNL d   1      25.563 -12.748  -3.501  0.00  0.00     0.001 A 
ATOM     12  C   UNL d   1      25.442 -13.518  -4.646  0.00  0.00     0.003 A 
ATOM     13  C   UNL d   1      26.350 -14.561  -4.860  0.00  0.00     0.038 A 
ATOM     14  C   UNL d   1      27.435 -14.797  -3.979  0.00  0.00     0.084 A 
BRANCH  14  15
ATOM     15  O   UNL d   1      28.295 -15.777  -4.377  0.00  0.00    -0.350 OA
BRANCH  15  16
ATOM     16  C   UNL d   1      29.230 -15.433  -5.401  0.00  0.00     0.175 C 
BRANCH  16  17
ATOM     17  C   UNL d   1      30.450 -16.300  -5.112  0.00  0.00     0.026 C 
BRANCH  17  18
ATOM     18  C   UNL d   1      30.526 -17.488  -6.053  0.00  0.00    -0.002 C 
ATOM     19  C   UNL d   1      30.799 -17.013  -7.465  0.00  0.00     0.005 C 
ENDBRANCH  17  18
ENDBRANCH  16  17
ENDBRANCH  15  16
ENDBRANCH  14  15
ENDBRANCH   6   9
ENDBRANCH   3   5
ENDBRANCH   1   3
BRANCH   1  20
ATOM     20  N   UNL d   1      28.277 -16.201   0.362  0.00  0.00    -0.264 N 
ATOM     21  C   UNL d   1      27.603 -16.831  -0.672  0.00  0.00     0.270 C 
ATOM     22  O   UNL d   1      28.117 -17.160  -1.747  0.00  0.00    -0.266 OA
ATOM     23  H   UNL d   1      27.820 -16.018   1.256  0.00  0.00     0.190 HD
BRANCH  21  24
ATOM     24  C   UNL d   1      26.166 -17.171  -0.479  0.00  0.00     0.033 A 
ATOM     25  C   UNL d   1      25.780 -18.149   0.460  0.00  0.00     0.019 A 
ATOM     26  C   UNL d   1      24.430 -18.545   0.605  0.00  0.00     0.030 A 
ATOM     27  C   UNL d   1      23.438 -17.921  -0.155  0.00  0.00     0.034 A 
ATOM     28  C   UNL d   1      23.861 -16.996  -1.123  0.00  0.00     0.030 A 
ATOM     29  C   UNL d   1      25.193 -16.610  -1.287  0.00  0.00     0.019 A 
BRANCH  27  30
ATOM     30  N   UNL d   1      22.053 -18.207   0.071  0.00  0.00    -0.327 N 
ATOM     31  C   UNL d   1      21.276 -18.918  -0.834  0.00  0.00     0.222 C 
ATOM     32  O   UNL d   1      21.692 -19.324  -1.918  0.00  0.00    -0.273 OA
ATOM     33  H   UNL d   1      21.595 -17.746   0.849  0.00  0.00     0.169 HD
BRANCH  31  34
ATOM     34  C   UNL d   1      19.817 -19.170  -0.483  0.00  0.00     0.107 C 
BRANCH  34  35
ATOM     35  C   UNL d   1      19.740 -20.276   0.609  0.00  0.00    -0.014 C 
ATOM     36  C   UNL d   1      20.012 -19.714   2.015  0.00  0.00     0.010 C 
ATOM     37  C   UNL d   1      18.382 -20.970   0.617  0.00  0.00     0.010 C 
ENDBRANCH  34  35
ENDBRANCH  31  34
ENDBRANCH  27  30
ENDBRANCH  21  24
ENDBRANCH   1  20
TORSDOF 12
ENDMDL
MODEL 6
REMARK VINA RESULT:    -9.030      2.104      3.425
REMARK INTER + INTRA:         -15.740
REMARK INTER:                 -12.609
REMARK INTRA:                  -3.130
REMARK CONF_INDEPENDENT:        3.580
REMARK UNBOUND:                -3.130
REMARK  12 active torsions:
REMARK  status: ('A' for Active; 'I' for Inactive)
REMARK    1  A    between atoms: C_2  and  C_3 
REMARK    2  A    between atoms: C_3  and  C_4 
REMARK    3  A    between atoms: C_4  and  O_5 
REMARK    4  A    between atoms: O_5  and  C_6 
REMARK    5  A    between atoms: C_11  and  C_12 
REMARK       I    between atoms: C_12  and  N_14 
REMARK    6  A    between atoms: N_14  and  C_15 
REMARK    7  A    between atoms: C_15  and  N_17 
REMARK    8  A    between atoms: N_17  and  N_18 
REMARK       I    between atoms: N_18  and  C_19 
REMARK    9  A    between atoms: C_19  and  C_21 
REMARK   10  A    between atoms: C_24  and  N_25 
REMARK       I    between atoms: N_25  and  C_26 
REMARK   11  A    between atoms: C_26  and  C_28 
REMARK   12  A    between atoms: C_28  and  C_29 
ROOT
ATOM      1  N   UNL d   1      28.893 -16.765  -1.772  0.00  0.00    -0.273 N 
ATOM      2  H   UNL d   1      29.712 -17.174  -1.327  0.00  0.00     0.189 HD
ENDROOT
BRANCH   1   3
ATOM      3  C   UNL d   1      28.876 -16.097  -3.017  0.00  0.00     0.193 C 
ATOM      4  S   UNL d   1      29.882 -16.642  -4.256  0.00  0.00    -0.039 SA
BRANCH   3   5
ATOM      5  N   UNL d   1      27.992 -14.988  -3.126  0.00  0.00    -0.298 N 
ATOM      6  C   UNL d   1      27.402 -14.497  -4.327  0.00  0.00     0.260 C 
ATOM      7  O   UNL d   1      27.240 -15.202  -5.324  0.00  0.00    -0.267 OA
ATOM      8  H   UNL d   1      27.905 -14.374  -2.328  0.00  0.00     0.171 HD
BRANCH   6   9
ATOM      9  C   UNL d   1      26.891 -13.077  -4.470  0.00  0.00     0.065 A 
ATOM     10  C   UNL d   1      26.852 -12.556  -5.795  0.00  0.00     0.020 A 
ATOM     11  C   UNL d   1      26.349 -11.283  -6.098  0.00  0.00     0.001 A 
ATOM     12  C   UNL d   1      25.864 -10.485  -5.075  0.00  0.00     0.003 A 
ATOM     13  C   UNL d   1      25.976 -10.934  -3.755  0.00  0.00     0.038 A 
ATOM     14  C   UNL d   1      26.498 -12.215  -3.444  0.00  0.00     0.084 A 
BRANCH  14  15
ATOM     15  O   UNL d   1      26.442 -12.553  -2.125  0.00  0.00    -0.350 OA
BRANCH  15  16
ATOM     16  C   UNL d   1      27.421 -11.961  -1.269  0.00  0.00     0.175 C 
BRANCH  16  17
ATOM     17  C   UNL d   1      27.060 -12.459   0.126  0.00  0.00     0.026 C 
BRANCH  17  18
ATOM     18  C   UNL d   1      28.224 -13.182   0.780  0.00  0.00    -0.002 C 
ATOM     19  C   UNL d   1      29.496 -12.928  -0.002  0.00  0.00     0.005 C 
ENDBRANCH  17  18
ENDBRANCH  16  17
ENDBRANCH  15  16
ENDBRANCH  14  15
ENDBRANCH   6   9
ENDBRANCH   3   5
ENDBRANCH   1   3
BRANCH   1  20
ATOM     20  N   UNL d   1      27.627 -17.213  -1.188  0.00  0.00    -0.264 N 
ATOM     21  C   UNL d   1      26.598 -16.340  -0.870  0.00  0.00     0.270 C 
ATOM     22  O   UNL d   1      26.715 -15.110  -0.806  0.00  0.00    -0.266 OA
ATOM     23  H   UNL d   1      27.455 -18.213  -1.298  0.00  0.00     0.190 HD
BRANCH  21  24
ATOM     24  C   UNL d   1      25.243 -16.902  -0.614  0.00  0.00     0.033 A 
ATOM     25  C   UNL d   1      25.093 -18.143   0.039  0.00  0.00     0.019 A 
ATOM     26  C   UNL d   1      23.821 -18.735   0.223  0.00  0.00     0.030 A 
ATOM     27  C   UNL d   1      22.674 -18.060  -0.198  0.00  0.00     0.034 A 
ATOM     28  C   UNL d   1      22.861 -16.856  -0.899  0.00  0.00     0.030 A 
ATOM     29  C   UNL d   1      24.113 -16.272  -1.101  0.00  0.00     0.019 A 
BRANCH  27  30
ATOM     30  N   UNL d   1      21.370 -18.573   0.099  0.00  0.00    -0.327 N 
ATOM     31  C   UNL d   1      20.591 -19.230  -0.843  0.00  0.00     0.222 C 
ATOM     32  O   UNL d   1      20.928 -19.391  -2.016  0.00  0.00    -0.273 OA
ATOM     33  H   UNL d   1      20.950 -18.315   0.984  0.00  0.00     0.169 HD
BRANCH  31  34
ATOM     34  C   UNL d   1      19.224 -19.742  -0.411  0.00  0.00     0.107 C 
BRANCH  34  35
ATOM     35  C   UNL d   1      19.406 -20.753   0.758  0.00  0.00    -0.014 C 
ATOM     36  C   UNL d   1      19.780 -20.048   2.074  0.00  0.00     0.010 C 
ATOM     37  C   UNL d   1      18.146 -21.581   0.991  0.00  0.00     0.010 C 
ENDBRANCH  34  35
ENDBRANCH  31  34
ENDBRANCH  27  30
ENDBRANCH  21  24
ENDBRANCH   1  20
TORSDOF 12
ENDMDL
MODEL 7
REMARK VINA RESULT:    -8.843      4.790      6.809
REMARK INTER + INTRA:         -15.529
REMARK INTER:                 -12.422
REMARK INTRA:                  -3.106
REMARK CONF_INDEPENDENT:        3.580
REMARK UNBOUND:                -3.106
REMARK  12 active torsions:
REMARK  status: ('A' for Active; 'I' for Inactive)
REMARK    1  A    between atoms: C_2  and  C_3 
REMARK    2  A    between atoms: C_3  and  C_4 
REMARK    3  A    between atoms: C_4  and  O_5 
REMARK    4  A    between atoms: O_5  and  C_6 
REMARK    5  A    between atoms: C_11  and  C_12 
REMARK       I    between atoms: C_12  and  N_14 
REMARK    6  A    between atoms: N_14  and  C_15 
REMARK    7  A    between atoms: C_15  and  N_17 
REMARK    8  A    between atoms: N_17  and  N_18 
REMARK       I    between atoms: N_18  and  C_19 
REMARK    9  A    between atoms: C_19  and  C_21 
REMARK   10  A    between atoms: C_24  and  N_25 
REMARK       I    between atoms: N_25  and  C_26 
REMARK   11  A    between atoms: C_26  and  C_28 
REMARK   12  A    between atoms: C_28  and  C_29 
ROOT
ATOM      1  N   UNL d   1      27.808 -13.796  -0.871  0.00  0.00    -0.273 N 
ATOM      2  H   UNL d   1      28.291 -14.020  -1.739  0.00  0.00     0.189 HD
ENDROOT
BRANCH   1   3
ATOM      3  C   UNL d   1      28.046 -12.663  -0.061  0.00  0.00     0.193 C 
ATOM      4  S   UNL d   1      27.664 -11.133  -0.657  0.00  0.00    -0.039 SA
BRANCH   3   5
ATOM      5  N   UNL d   1      28.606 -12.911   1.222  0.00  0.00    -0.298 N 
ATOM      6  C   UNL d   1      28.120 -13.842   2.187  0.00  0.00     0.260 C 
ATOM      7  O   UNL d   1      27.442 -14.823   1.880  0.00  0.00    -0.267 OA
ATOM      8  H   UNL d   1      29.295 -12.258   1.571  0.00  0.00     0.171 HD
BRANCH   6   9
ATOM      9  C   UNL d   1      28.425 -13.724   3.668  0.00  0.00     0.065 A 
ATOM     10  C   UNL d   1      28.049 -14.836   4.474  0.00  0.00     0.020 A 
ATOM     11  C   UNL d   1      28.318 -14.905   5.849  0.00  0.00     0.001 A 
ATOM     12  C   UNL d   1      28.979 -13.855   6.463  0.00  0.00     0.003 A 
ATOM     13  C   UNL d   1      29.277 -12.711   5.714  0.00  0.00     0.038 A 
ATOM     14  C   UNL d   1      28.993 -12.632   4.328  0.00  0.00     0.084 A 
BRANCH  14  15
ATOM     15  O   UNL d   1      29.440 -11.500   3.713  0.00  0.00    -0.350 OA
BRANCH  15  16
ATOM     16  C   UNL d   1      28.921 -10.260   4.197  0.00  0.00     0.175 C 
BRANCH  16  17
ATOM     17  C   UNL d   1      27.408 -10.419   4.110  0.00  0.00     0.026 C 
BRANCH  17  18
ATOM     18  C   UNL d   1      26.802  -9.461   3.101  0.00  0.00    -0.002 C 
ATOM     19  C   UNL d   1      25.917 -10.219   2.134  0.00  0.00     0.005 C 
ENDBRANCH  17  18
ENDBRANCH  16  17
ENDBRANCH  15  16
ENDBRANCH  14  15
ENDBRANCH   6   9
ENDBRANCH   3   5
ENDBRANCH   1   3
BRANCH   1  20
ATOM     20  N   UNL d   1      26.580 -14.569  -0.670  0.00  0.00    -0.264 N 
ATOM     21  C   UNL d   1      26.025 -15.367  -1.659  0.00  0.00     0.270 C 
ATOM     22  O   UNL d   1      26.344 -15.327  -2.854  0.00  0.00    -0.266 OA
ATOM     23  H   UNL d   1      26.331 -14.696   0.311  0.00  0.00     0.190 HD
BRANCH  21  24
ATOM     24  C   UNL d   1      24.996 -16.369  -1.268  0.00  0.00     0.033 A 
ATOM     25  C   UNL d   1      23.628 -16.025  -1.258  0.00  0.00     0.019 A 
ATOM     26  C   UNL d   1      22.639 -16.935  -0.815  0.00  0.00     0.030 A 
ATOM     27  C   UNL d   1      23.006 -18.226  -0.430  0.00  0.00     0.034 A 
ATOM     28  C   UNL d   1      24.380 -18.517  -0.393  0.00  0.00     0.030 A 
ATOM     29  C   UNL d   1      25.366 -17.621  -0.812  0.00  0.00     0.019 A 
BRANCH  27  30
ATOM     30  N   UNL d   1      22.012 -19.206  -0.110  0.00  0.00    -0.327 N 
ATOM     31  C   UNL d   1      20.708 -19.132  -0.580  0.00  0.00     0.222 C 
ATOM     32  O   UNL d   1      20.283 -18.207  -1.270  0.00  0.00    -0.273 OA
ATOM     33  H   UNL d   1      22.235 -19.893   0.602  0.00  0.00     0.169 HD
BRANCH  31  34
ATOM     34  C   UNL d   1      19.740 -20.237  -0.182  0.00  0.00     0.107 C 
BRANCH  34  35
ATOM     35  C   UNL d   1      19.115 -19.893   1.201  0.00  0.00    -0.014 C 
ATOM     36  C   UNL d   1      18.033 -20.909   1.610  0.00  0.00     0.010 C 
ATOM     37  C   UNL d   1      20.169 -19.836   2.301  0.00  0.00     0.010 C 
ENDBRANCH  34  35
ENDBRANCH  31  34
ENDBRANCH  27  30
ENDBRANCH  21  24
ENDBRANCH   1  20
TORSDOF 12
ENDMDL
MODEL 8
REMARK VINA RESULT:    -8.621      3.980      5.927
REMARK INTER + INTRA:         -15.399
REMARK INTER:                 -12.200
REMARK INTRA:                  -3.199
REMARK CONF_INDEPENDENT:        3.580
REMARK UNBOUND:                -3.199
REMARK  12 active torsions:
REMARK  status: ('A' for Active; 'I' for Inactive)
REMARK    1  A    between atoms: C_2  and  C_3 
REMARK    2  A    between atoms: C_3  and  C_4 
REMARK    3  A    between atoms: C_4  and  O_5 
REMARK    4  A    between atoms: O_5  and  C_6 
REMARK    5  A    between atoms: C_11  and  C_12 
REMARK       I    between atoms: C_12  and  N_14 
REMARK    6  A    between atoms: N_14  and  C_15 
REMARK    7  A    between atoms: C_15  and  N_17 
REMARK    8  A    between atoms: N_17  and  N_18 
REMARK       I    between atoms: N_18  and  C_19 
REMARK    9  A    between atoms: C_19  and  C_21 
REMARK   10  A    between atoms: C_24  and  N_25 
REMARK       I    between atoms: N_25  and  C_26 
REMARK   11  A    between atoms: C_26  and  C_28 
REMARK   12  A    between atoms: C_28  and  C_29 
ROOT
ATOM      1  N   UNL d   1      28.689 -15.191  -1.571  0.00  0.00    -0.273 N 
ATOM      2  H   UNL d   1      28.493 -14.711  -2.447  0.00  0.00     0.189 HD
ENDROOT
BRANCH   1   3
ATOM      3  C   UNL d   1      29.691 -14.834  -0.639  0.00  0.00     0.193 C 
ATOM      4  S   UNL d   1      31.312 -15.035  -1.059  0.00  0.00    -0.039 SA
BRANCH   3   5
ATOM      5  N   UNL d   1      29.238 -14.327   0.609  0.00  0.00    -0.298 N 
ATOM      6  C   UNL d   1      29.933 -14.405   1.852  0.00  0.00     0.260 C 
ATOM      7  O   UNL d   1      31.157 -14.531   1.921  0.00  0.00    -0.267 OA
ATOM      8  H   UNL d   1      28.270 -14.044   0.681  0.00  0.00     0.171 HD
BRANCH   6   9
ATOM      9  C   UNL d   1      29.233 -14.306   3.193  0.00  0.00     0.065 A 
ATOM     10  C   UNL d   1      30.032 -14.578   4.339  0.00  0.00     0.020 A 
ATOM     11  C   UNL d   1      29.547 -14.468   5.650  0.00  0.00     0.001 A 
ATOM     12  C   UNL d   1      28.234 -14.079   5.855  0.00  0.00     0.003 A 
ATOM     13  C   UNL d   1      27.400 -13.896   4.747  0.00  0.00     0.038 A 
ATOM     14  C   UNL d   1      27.885 -14.020   3.420  0.00  0.00     0.084 A 
BRANCH  14  15
ATOM     15  O   UNL d   1      26.982 -13.706   2.448  0.00  0.00    -0.350 OA
BRANCH  15  16
ATOM     16  C   UNL d   1      26.657 -12.323   2.296  0.00  0.00     0.175 C 
BRANCH  16  17
ATOM     17  C   UNL d   1      27.563 -11.839   1.171  0.00  0.00     0.026 C 
BRANCH  17  18
ATOM     18  C   UNL d   1      28.377 -10.629   1.591  0.00  0.00    -0.002 C 
ATOM     19  C   UNL d   1      27.938 -10.161   2.963  0.00  0.00     0.005 C 
ENDBRANCH  17  18
ENDBRANCH  16  17
ENDBRANCH  15  16
ENDBRANCH  14  15
ENDBRANCH   6   9
ENDBRANCH   3   5
ENDBRANCH   1   3
BRANCH   1  20
ATOM     20  N   UNL d   1      27.624 -16.106  -1.154  0.00  0.00    -0.264 N 
ATOM     21  C   UNL d   1      26.462 -15.671  -0.536  0.00  0.00     0.270 C 
ATOM     22  O   UNL d   1      26.303 -14.543  -0.054  0.00  0.00    -0.266 OA
ATOM     23  H   UNL d   1      27.673 -17.023  -1.599  0.00  0.00     0.190 HD
BRANCH  21  24
ATOM     24  C   UNL d   1      25.303 -16.604  -0.465  0.00  0.00     0.033 A 
ATOM     25  C   UNL d   1      25.496 -17.963  -0.141  0.00  0.00     0.019 A 
ATOM     26  C   UNL d   1      24.422 -18.884  -0.145  0.00  0.00     0.030 A 
ATOM     27  C   UNL d   1      23.127 -18.440  -0.420  0.00  0.00     0.034 A 
ATOM     28  C   UNL d   1      22.979 -17.095  -0.798  0.00  0.00     0.030 A 
ATOM     29  C   UNL d   1      24.034 -16.181  -0.814  0.00  0.00     0.019 A 
BRANCH  27  30
ATOM     30  N   UNL d   1      22.007 -19.324  -0.296  0.00  0.00    -0.327 N 
ATOM     31  C   UNL d   1      20.723 -18.967  -0.685  0.00  0.00     0.222 C 
ATOM     32  O   UNL d   1      20.428 -17.857  -1.127  0.00  0.00    -0.273 OA
ATOM     33  H   UNL d   1      22.136 -20.181   0.229  0.00  0.00     0.169 HD
BRANCH  31  34
ATOM     34  C   UNL d   1      19.612 -19.993  -0.515  0.00  0.00     0.107 C 
BRANCH  34  35
ATOM     35  C   UNL d   1      19.037 -19.887   0.927  0.00  0.00    -0.014 C 
ATOM     36  C   UNL d   1      18.216 -21.131   1.310  0.00  0.00     0.010 C 
ATOM     37  C   UNL d   1      20.139 -19.693   1.963  0.00  0.00     0.010 C 
ENDBRANCH  34  35
ENDBRANCH  31  34
ENDBRANCH  27  30
ENDBRANCH  21  24
ENDBRANCH   1  20
TORSDOF 12
ENDMDL
MODEL 9
REMARK VINA RESULT:    -8.550      2.007      3.387
REMARK INTER + INTRA:         -15.847
REMARK INTER:                 -12.129
REMARK INTRA:                  -3.717
REMARK CONF_INDEPENDENT:        3.580
REMARK UNBOUND:                -3.717
REMARK  12 active torsions:
REMARK  status: ('A' for Active; 'I' for Inactive)
REMARK    1  A    between atoms: C_2  and  C_3 
REMARK    2  A    between atoms: C_3  and  C_4 
REMARK    3  A    between atoms: C_4  and  O_5 
REMARK    4  A    between atoms: O_5  and  C_6 
REMARK    5  A    between atoms: C_11  and  C_12 
REMARK       I    between atoms: C_12  and  N_14 
REMARK    6  A    between atoms: N_14  and  C_15 
REMARK    7  A    between atoms: C_15  and  N_17 
REMARK    8  A    between atoms: N_17  and  N_18 
REMARK       I    between atoms: N_18  and  C_19 
REMARK    9  A    between atoms: C_19  and  C_21 
REMARK   10  A    between atoms: C_24  and  N_25 
REMARK       I    between atoms: N_25  and  C_26 
REMARK   11  A    between atoms: C_26  and  C_28 
REMARK   12  A    between atoms: C_28  and  C_29 
ROOT
ATOM      1  N   UNL d   1      29.260 -15.520   0.690  0.00  0.00    -0.273 N 
ATOM      2  H   UNL d   1      29.737 -16.228   1.246  0.00  0.00     0.189 HD
ENDROOT
BRANCH   1   3
ATOM      3  C   UNL d   1      29.878 -14.601  -0.187  0.00  0.00     0.193 C 
ATOM      4  S   UNL d   1      31.487 -14.170   0.077  0.00  0.00    -0.039 SA
BRANCH   3   5
ATOM      5  N   UNL d   1      29.072 -14.099  -1.245  0.00  0.00    -0.298 N 
ATOM      6  C   UNL d   1      29.042 -12.752  -1.714  0.00  0.00     0.260 C 
ATOM      7  O   UNL d   1      29.986 -11.975  -1.562  0.00  0.00    -0.267 OA
ATOM      8  H   UNL d   1      28.322 -14.684  -1.586  0.00  0.00     0.171 HD
BRANCH   6   9
ATOM      9  C   UNL d   1      27.863 -12.172  -2.469  0.00  0.00     0.065 A 
ATOM     10  C   UNL d   1      27.942 -10.786  -2.785  0.00  0.00     0.020 A 
ATOM     11  C   UNL d   1      26.962 -10.117  -3.532  0.00  0.00     0.001 A 
ATOM     12  C   UNL d   1      25.862 -10.823  -3.990  0.00  0.00     0.003 A 
ATOM     13  C   UNL d   1      25.712 -12.162  -3.616  0.00  0.00     0.038 A 
ATOM     14  C   UNL d   1      26.695 -12.837  -2.849  0.00  0.00     0.084 A 
BRANCH  14  15
ATOM     15  O   UNL d   1      26.461 -14.166  -2.656  0.00  0.00    -0.350 OA
BRANCH  15  16
ATOM     16  C   UNL d   1      25.649 -14.823  -3.632  0.00  0.00     0.175 C 
BRANCH  16  17
ATOM     17  C   UNL d   1      26.642 -15.579  -4.507  0.00  0.00     0.026 C 
BRANCH  17  18
ATOM     18  C   UNL d   1      27.128 -14.727  -5.665  0.00  0.00    -0.002 C 
ATOM     19  C   UNL d   1      28.565 -14.309  -5.432  0.00  0.00     0.005 C 
ENDBRANCH  17  18
ENDBRANCH  16  17
ENDBRANCH  15  16
ENDBRANCH  14  15
ENDBRANCH   6   9
ENDBRANCH   3   5
ENDBRANCH   1   3
BRANCH   1  20
ATOM     20  N   UNL d   1      27.813 -15.732   0.594  0.00  0.00    -0.264 N 
ATOM     21  C   UNL d   1      27.220 -16.379  -0.479  0.00  0.00     0.270 C 
ATOM     22  O   UNL d   1      27.784 -16.620  -1.553  0.00  0.00    -0.266 OA
ATOM     23  H   UNL d   1      27.323 -15.626   1.483  0.00  0.00     0.190 HD
BRANCH  21  24
ATOM     24  C   UNL d   1      25.816 -16.853  -0.334  0.00  0.00     0.033 A 
ATOM     25  C   UNL d   1      25.543 -18.201  -0.021  0.00  0.00     0.019 A 
ATOM     26  C   UNL d   1      24.218 -18.693   0.044  0.00  0.00     0.030 A 
ATOM     27  C   UNL d   1      23.144 -17.821  -0.149  0.00  0.00     0.034 A 
ATOM     28  C   UNL d   1      23.450 -16.501  -0.518  0.00  0.00     0.030 A 
ATOM     29  C   UNL d   1      24.754 -16.009  -0.602  0.00  0.00     0.019 A 
BRANCH  27  30
ATOM     30  N   UNL d   1      21.796 -18.264   0.047  0.00  0.00    -0.327 N 
ATOM     31  C   UNL d   1      21.108 -19.013  -0.898  0.00  0.00     0.222 C 
ATOM     32  O   UNL d   1      21.574 -19.324  -1.994  0.00  0.00    -0.273 OA
ATOM     33  H   UNL d   1      21.285 -17.891   0.839  0.00  0.00     0.169 HD
BRANCH  31  34
ATOM     34  C   UNL d   1      19.682 -19.436  -0.576  0.00  0.00     0.107 C 
BRANCH  34  35
ATOM     35  C   UNL d   1      19.705 -20.447   0.607  0.00  0.00    -0.014 C 
ATOM     36  C   UNL d   1      19.995 -19.753   1.949  0.00  0.00     0.010 C 
ATOM     37  C   UNL d   1      18.389 -21.208   0.727  0.00  0.00     0.010 C 
ENDBRANCH  34  35
ENDBRANCH  31  34
ENDBRANCH  27  30
ENDBRANCH  21  24
ENDBRANCH   1  20
TORSDOF 12
ENDMDL
