MODEL 1
REMARK VINA RESULT:    -8.598      0.000      0.000
REMARK INTER + INTRA:         -14.189
REMARK INTER:                 -11.581
REMARK INTRA:                  -2.608
REMARK CONF_INDEPENDENT:        2.983
REMARK UNBOUND:                -2.608
REMARK  10 active torsions:
REMARK  status: ('A' for Active; 'I' for Inactive)
REMARK    1  A    between atoms: C_2  and  C_4 
REMARK    2  A    between atoms: C_7  and  C_8 
REMARK       I    between atoms: C_8  and  N_10 
REMARK    3  A    between atoms: N_10  and  C_11 
REMARK    4  A    between atoms: C_11  and  N_13 
REMARK    5  A    between atoms: N_13  and  N_14 
REMARK       I    between atoms: N_14  and  C_15 
REMARK    6  A    between atoms: C_15  and  C_17 
REMARK    7  A    between atoms: C_17  and  C_18 
REMARK    8  A    between atoms: C_18  and  C_19 
REMARK    9  A    between atoms: C_19  and  O_20 
REMARK   10  A    between atoms: O_20  and  C_21 
ROOT
ATOM      1  N   UNL d   1      28.713 -15.342   1.060  0.00  0.00    -0.273 N 
ATOM      2  H   UNL d   1      29.487 -15.933   1.361  0.00  0.00     0.189 HD
ENDROOT
BRANCH   1   3
ATOM      3  C   UNL d   1      27.943 -14.496   1.875  0.00  0.00     0.193 C 
ATOM      4  S   UNL d   1      26.690 -13.600   1.183  0.00  0.00    -0.039 SA
BRANCH   3   5
ATOM      5  N   UNL d   1      28.303 -14.480   3.242  0.00  0.00    -0.298 N 
ATOM      6  C   UNL d   1      28.029 -13.445   4.164  0.00  0.00     0.257 C 
ATOM      7  O   UNL d   1      27.412 -12.415   3.870  0.00  0.00    -0.267 OA
ATOM      8  H   UNL d   1      28.828 -15.271   3.583  0.00  0.00     0.171 HD
BRANCH   6   9
ATOM      9  C   UNL d   1      28.508 -13.500   5.583  0.00  0.00     0.032 A 
ATOM     10  C   UNL d   1      27.779 -12.759   6.539  0.00  0.00     0.017 A 
ATOM     11  C   UNL d   1      28.211 -12.634   7.862  0.00  0.00     0.008 A 
ATOM     12  C   UNL d   1      29.328 -13.343   8.310  0.00  0.00    -0.055 A 
ATOM     13  C   UNL d   1      30.055 -14.077   7.354  0.00  0.00     0.008 A 
ATOM     14  C   UNL d   1      29.647 -14.173   6.013  0.00  0.00     0.017 A 
BRANCH  12  15
ATOM     15  C   UNL d   1      29.735 -13.379   9.781  0.00  0.00     0.010 C 
ATOM     16  C   UNL d   1      29.180 -12.200  10.599  0.00  0.00     0.015 C 
ATOM     17  C   UNL d   1      29.243 -14.677  10.446  0.00  0.00     0.015 C 
ENDBRANCH  12  15
ENDBRANCH   6   9
ENDBRANCH   3   5
ENDBRANCH   1   3
BRANCH   1  18
ATOM     18  N   UNL d   1      28.409 -15.423  -0.356  0.00  0.00    -0.268 N 
ATOM     19  C   UNL d   1      28.965 -16.408  -1.152  0.00  0.00     0.236 C 
ATOM     20  O   UNL d   1      29.745 -17.241  -0.696  0.00  0.00    -0.272 OA
ATOM     21  H   UNL d   1      27.761 -14.716  -0.705  0.00  0.00     0.190 HD
BRANCH  19  22
ATOM     22  C   UNL d   1      28.539 -16.381  -2.629  0.00  0.00     0.106 C 
BRANCH  22  23
ATOM     23  C   UNL d   1      27.644 -15.165  -2.943  0.00  0.00     0.036 C 
BRANCH  23  24
ATOM     24  C   UNL d   1      26.162 -15.450  -2.685  0.00  0.00     0.176 C 
BRANCH  24  25
ATOM     25  O   UNL d   1      25.931 -15.684  -1.290  0.00  0.00    -0.349 OA
BRANCH  25  26
ATOM     26  C   UNL d   1      24.964 -16.603  -0.952  0.00  0.00     0.090 A 
ATOM     27  C   UNL d   1      23.651 -16.207  -1.281  0.00  0.00     0.040 A 
ATOM     28  C   UNL d   1      22.541 -16.969  -0.886  0.00  0.00     0.026 A 
ATOM     29  C   UNL d   1      22.737 -18.167  -0.213  0.00  0.00     0.035 A 
ATOM     30 CL   UNL d   1      21.401 -19.173   0.189  0.00  0.00    -0.084 Cl
ATOM     31  C   UNL d   1      24.020 -18.575   0.121  0.00  0.00     0.050 A 
ATOM     32  C   UNL d   1      25.130 -17.797  -0.227  0.00  0.00     0.069 A 
ATOM     33 CL   UNL d   1      26.624 -18.423   0.377  0.00  0.00    -0.081 Cl
ENDBRANCH  25  26
ENDBRANCH  24  25
ENDBRANCH  23  24
ENDBRANCH  22  23
ENDBRANCH  19  22
ENDBRANCH   1  18
TORSDOF 10
ENDMDL
MODEL 2
REMARK VINA RESULT:    -8.386      1.579      1.934
REMARK INTER + INTRA:         -14.364
REMARK INTER:                 -11.369
REMARK INTRA:                  -2.995
REMARK CONF_INDEPENDENT:        2.983
REMARK UNBOUND:                -2.995
REMARK  10 active torsions:
REMARK  status: ('A' for Active; 'I' for Inactive)
REMARK    1  A    between atoms: C_2  and  C_4 
REMARK    2  A    between atoms: C_7  and  C_8 
REMARK       I    between atoms: C_8  and  N_10 
REMARK    3  A    between atoms: N_10  and  C_11 
REMARK    4  A    between atoms: C_11  and  N_13 
REMARK    5  A    between atoms: N_13  and  N_14 
REMARK       I    between atoms: N_14  and  C_15 
REMARK    6  A    between atoms: C_15  and  C_17 
REMARK    7  A    between atoms: C_17  and  C_18 
REMARK    8  A    between atoms: C_18  and  C_19 
REMARK    9  A    between atoms: C_19  and  O_20 
REMARK   10  A    between atoms: O_20  and  C_21 
ROOT
ATOM      1  N   UNL d   1      27.750 -13.735   0.567  0.00  0.00    -0.273 N 
ATOM      2  H   UNL d   1      27.568 -12.832   1.002  0.00  0.00     0.189 HD
ENDROOT
BRANCH   1   3
ATOM      3  C   UNL d   1      28.383 -14.837   1.165  0.00  0.00     0.193 C 
ATOM      4  S   UNL d   1      28.824 -16.156   0.206  0.00  0.00    -0.039 SA
BRANCH   3   5
ATOM      5  N   UNL d   1      28.600 -14.729   2.557  0.00  0.00    -0.298 N 
ATOM      6  C   UNL d   1      27.926 -13.856   3.441  0.00  0.00     0.257 C 
ATOM      7  O   UNL d   1      27.033 -13.079   3.084  0.00  0.00    -0.267 OA
ATOM      8  H   UNL d   1      29.324 -15.311   2.951  0.00  0.00     0.171 HD
BRANCH   6   9
ATOM      9  C   UNL d   1      28.274 -13.777   4.896  0.00  0.00     0.032 A 
ATOM     10  C   UNL d   1      27.780 -12.669   5.619  0.00  0.00     0.017 A 
ATOM     11  C   UNL d   1      28.150 -12.428   6.944  0.00  0.00     0.008 A 
ATOM     12  C   UNL d   1      28.937 -13.349   7.637  0.00  0.00    -0.055 A 
ATOM     13  C   UNL d   1      29.432 -14.450   6.913  0.00  0.00     0.008 A 
ATOM     14  C   UNL d   1      29.095 -14.677   5.567  0.00  0.00     0.017 A 
BRANCH  12  15
ATOM     15  C   UNL d   1      29.221 -13.220   9.131  0.00  0.00     0.010 C 
ATOM     16  C   UNL d   1      28.317 -12.198   9.840  0.00  0.00     0.015 C 
ATOM     17  C   UNL d   1      29.033 -14.574   9.837  0.00  0.00     0.015 C 
ENDBRANCH  12  15
ENDBRANCH   6   9
ENDBRANCH   3   5
ENDBRANCH   1   3
BRANCH   1  18
ATOM     18  N   UNL d   1      27.302 -13.842  -0.808  0.00  0.00    -0.268 N 
ATOM     19  C   UNL d   1      26.972 -12.717  -1.544  0.00  0.00     0.236 C 
ATOM     20  O   UNL d   1      27.035 -11.589  -1.058  0.00  0.00    -0.272 OA
ATOM     21  H   UNL d   1      27.257 -14.791  -1.182  0.00  0.00     0.190 HD
BRANCH  19  22
ATOM     22  C   UNL d   1      26.530 -12.982  -2.992  0.00  0.00     0.106 C 
BRANCH  22  23
ATOM     23  C   UNL d   1      25.263 -13.860  -3.050  0.00  0.00     0.036 C 
BRANCH  23  24
ATOM     24  C   UNL d   1      25.562 -15.333  -2.759  0.00  0.00     0.176 C 
BRANCH  24  25
ATOM     25  O   UNL d   1      25.410 -15.610  -1.361  0.00  0.00    -0.349 OA
BRANCH  25  26
ATOM     26  C   UNL d   1      24.501 -16.578  -1.000  0.00  0.00     0.090 A 
ATOM     27  C   UNL d   1      23.158 -16.239  -1.270  0.00  0.00     0.040 A 
ATOM     28  C   UNL d   1      22.102 -17.058  -0.843  0.00  0.00     0.026 A 
ATOM     29  C   UNL d   1      22.380 -18.255  -0.199  0.00  0.00     0.035 A 
ATOM     30 CL   UNL d   1      21.110 -19.329   0.239  0.00  0.00    -0.084 Cl
ATOM     31  C   UNL d   1      23.693 -18.608   0.076  0.00  0.00     0.050 A 
ATOM     32  C   UNL d   1      24.751 -17.774  -0.302  0.00  0.00     0.069 A 
ATOM     33 CL   UNL d   1      26.296 -18.338   0.231  0.00  0.00    -0.081 Cl
ENDBRANCH  25  26
ENDBRANCH  24  25
ENDBRANCH  23  24
ENDBRANCH  22  23
ENDBRANCH  19  22
ENDBRANCH   1  18
TORSDOF 10
ENDMDL
MODEL 3
REMARK VINA RESULT:    -8.155      2.349      3.669
REMARK INTER + INTRA:         -13.713
REMARK INTER:                 -11.138
REMARK INTRA:                  -2.575
REMARK CONF_INDEPENDENT:        2.983
REMARK UNBOUND:                -2.575
REMARK  10 active torsions:
REMARK  status: ('A' for Active; 'I' for Inactive)
REMARK    1  A    between atoms: C_2  and  C_4 
REMARK    2  A    between atoms: C_7  and  C_8 
REMARK       I    between atoms: C_8  and  N_10 
REMARK    3  A    between atoms: N_10  and  C_11 
REMARK    4  A    between atoms: C_11  and  N_13 
REMARK    5  A    between atoms: N_13  and  N_14 
REMARK       I    between atoms: N_14  and  C_15 
REMARK    6  A    between atoms: C_15  and  C_17 
REMARK    7  A    between atoms: C_17  and  C_18 
REMARK    8  A    between atoms: C_18  and  C_19 
REMARK    9  A    between atoms: C_19  and  O_20 
REMARK   10  A    between atoms: O_20  and  C_21 
ROOT
ATOM      1  N   UNL d   1      27.969 -16.345   0.845  0.00  0.00    -0.273 N 
ATOM      2  H   UNL d   1      28.709 -17.035   0.970  0.00  0.00     0.189 HD
ENDROOT
BRANCH   1   3
ATOM      3  C   UNL d   1      27.997 -15.006   1.267  0.00  0.00     0.193 C 
ATOM      4  S   UNL d   1      27.698 -13.780   0.144  0.00  0.00    -0.039 SA
BRANCH   3   5
ATOM      5  N   UNL d   1      28.278 -14.809   2.638  0.00  0.00    -0.298 N 
ATOM      6  C   UNL d   1      27.604 -13.922   3.508  0.00  0.00     0.257 C 
ATOM      7  O   UNL d   1      26.655 -13.213   3.159  0.00  0.00    -0.267 OA
ATOM      8  H   UNL d   1      29.051 -15.330   3.023  0.00  0.00     0.171 HD
BRANCH   6   9
ATOM      9  C   UNL d   1      28.021 -13.744   4.937  0.00  0.00     0.032 A 
ATOM     10  C   UNL d   1      27.950 -12.439   5.472  0.00  0.00     0.017 A 
ATOM     11  C   UNL d   1      28.435 -12.136   6.746  0.00  0.00     0.008 A 
ATOM     12  C   UNL d   1      28.905 -13.151   7.583  0.00  0.00    -0.055 A 
ATOM     13  C   UNL d   1      28.979 -14.450   7.045  0.00  0.00     0.008 A 
ATOM     14  C   UNL d   1      28.529 -14.752   5.749  0.00  0.00     0.017 A 
BRANCH  12  15
ATOM     15  C   UNL d   1      29.280 -12.898   9.041  0.00  0.00     0.010 C 
ATOM     16  C   UNL d   1      29.300 -11.408   9.418  0.00  0.00     0.015 C 
ATOM     17  C   UNL d   1      28.287 -13.602   9.983  0.00  0.00     0.015 C 
ENDBRANCH  12  15
ENDBRANCH   6   9
ENDBRANCH   3   5
ENDBRANCH   1   3
BRANCH   1  18
ATOM     18  N   UNL d   1      26.789 -16.844   0.166  0.00  0.00    -0.268 N 
ATOM     19  C   UNL d   1      26.198 -18.037   0.542  0.00  0.00     0.236 C 
ATOM     20  O   UNL d   1      26.655 -18.724   1.453  0.00  0.00    -0.272 OA
ATOM     21  H   UNL d   1      26.434 -16.254  -0.588  0.00  0.00     0.190 HD
BRANCH  19  22
ATOM     22  C   UNL d   1      24.944 -18.433  -0.255  0.00  0.00     0.106 C 
BRANCH  22  23
ATOM     23  C   UNL d   1      23.838 -17.363  -0.145  0.00  0.00     0.036 C 
BRANCH  23  24
ATOM     24  C   UNL d   1      23.915 -16.327  -1.270  0.00  0.00     0.176 C 
BRANCH  24  25
ATOM     25  O   UNL d   1      25.181 -16.402  -1.936  0.00  0.00    -0.349 OA
BRANCH  25  26
ATOM     26  C   UNL d   1      25.593 -15.297  -2.646  0.00  0.00     0.090 A 
ATOM     27  C   UNL d   1      24.542 -14.450  -3.056  0.00  0.00     0.040 A 
ATOM     28  C   UNL d   1      24.779 -13.354  -3.899  0.00  0.00     0.026 A 
ATOM     29  C   UNL d   1      26.078 -13.056  -4.287  0.00  0.00     0.035 A 
ATOM     30 CL   UNL d   1      26.410 -11.657  -5.231  0.00  0.00    -0.084 Cl
ATOM     31  C   UNL d   1      27.126 -13.876  -3.894  0.00  0.00     0.050 A 
ATOM     32  C   UNL d   1      26.893 -15.000  -3.094  0.00  0.00     0.069 A 
ATOM     33 CL   UNL d   1      28.310 -15.948  -2.811  0.00  0.00    -0.081 Cl
ENDBRANCH  25  26
ENDBRANCH  24  25
ENDBRANCH  23  24
ENDBRANCH  22  23
ENDBRANCH  19  22
ENDBRANCH   1  18
TORSDOF 10
ENDMDL
MODEL 4
REMARK VINA RESULT:    -8.136      2.247      3.976
REMARK INTER + INTRA:         -13.732
REMARK INTER:                 -11.119
REMARK INTRA:                  -2.613
REMARK CONF_INDEPENDENT:        2.983
REMARK UNBOUND:                -2.613
REMARK  10 active torsions:
REMARK  status: ('A' for Active; 'I' for Inactive)
REMARK    1  A    between atoms: C_2  and  C_4 
REMARK    2  A    between atoms: C_7  and  C_8 
REMARK       I    between atoms: C_8  and  N_10 
REMARK    3  A    between atoms: N_10  and  C_11 
REMARK    4  A    between atoms: C_11  and  N_13 
REMARK    5  A    between atoms: N_13  and  N_14 
REMARK       I    between atoms: N_14  and  C_15 
REMARK    6  A    between atoms: C_15  and  C_17 
REMARK    7  A    between atoms: C_17  and  C_18 
REMARK    8  A    between atoms: C_18  and  C_19 
REMARK    9  A    between atoms: C_19  and  O_20 
REMARK   10  A    between atoms: O_20  and  C_21 
ROOT
ATOM      1  N   UNL d   1      27.754 -16.248   0.979  0.00  0.00    -0.273 N 
ATOM      2  H   UNL d   1      28.475 -16.968   1.008  0.00  0.00     0.189 HD
ENDROOT
BRANCH   1   3
ATOM      3  C   UNL d   1      27.910 -14.897   1.331  0.00  0.00     0.193 C 
ATOM      4  S   UNL d   1      27.748 -13.711   0.139  0.00  0.00    -0.039 SA
BRANCH   3   5
ATOM      5  N   UNL d   1      28.192 -14.655   2.694  0.00  0.00    -0.298 N 
ATOM      6  C   UNL d   1      27.674 -13.599   3.478  0.00  0.00     0.257 C 
ATOM      7  O   UNL d   1      26.880 -12.756   3.048  0.00  0.00    -0.267 OA
ATOM      8  H   UNL d   1      28.847 -15.279   3.140  0.00  0.00     0.171 HD
BRANCH   6   9
ATOM      9  C   UNL d   1      28.085 -13.396   4.905  0.00  0.00     0.032 A 
ATOM     10  C   UNL d   1      28.702 -14.485   5.560  0.00  0.00     0.017 A 
ATOM     11  C   UNL d   1      29.006 -14.450   6.923  0.00  0.00     0.008 A 
ATOM     12  C   UNL d   1      28.811 -13.281   7.661  0.00  0.00    -0.055 A 
ATOM     13  C   UNL d   1      28.191 -12.199   7.007  0.00  0.00     0.008 A 
ATOM     14  C   UNL d   1      27.847 -12.243   5.645  0.00  0.00     0.017 A 
BRANCH  12  15
ATOM     15  C   UNL d   1      29.289 -13.137   9.103  0.00  0.00     0.010 C 
ATOM     16  C   UNL d   1      28.155 -12.821  10.094  0.00  0.00     0.015 C 
ATOM     17  C   UNL d   1      29.973 -14.430   9.578  0.00  0.00     0.015 C 
ENDBRANCH  12  15
ENDBRANCH   6   9
ENDBRANCH   3   5
ENDBRANCH   1   3
BRANCH   1  18
ATOM     18  N   UNL d   1      26.456 -16.714   0.532  0.00  0.00    -0.268 N 
ATOM     19  C   UNL d   1      26.207 -18.060   0.334  0.00  0.00     0.236 C 
ATOM     20  O   UNL d   1      27.077 -18.910   0.517  0.00  0.00    -0.272 OA
ATOM     21  H   UNL d   1      25.756 -15.985   0.385  0.00  0.00     0.190 HD
BRANCH  19  22
ATOM     22  C   UNL d   1      24.781 -18.408  -0.124  0.00  0.00     0.106 C 
BRANCH  22  23
ATOM     23  C   UNL d   1      23.917 -17.144  -0.307  0.00  0.00     0.036 C 
BRANCH  23  24
ATOM     24  C   UNL d   1      24.180 -16.447  -1.645  0.00  0.00     0.176 C 
BRANCH  24  25
ATOM     25  O   UNL d   1      25.273 -15.528  -1.526  0.00  0.00    -0.349 OA
BRANCH  25  26
ATOM     26  C   UNL d   1      26.128 -15.416  -2.599  0.00  0.00     0.090 A 
ATOM     27  C   UNL d   1      27.372 -16.055  -2.415  0.00  0.00     0.040 A 
ATOM     28  C   UNL d   1      28.403 -15.924  -3.357  0.00  0.00     0.026 A 
ATOM     29  C   UNL d   1      28.179 -15.205  -4.523  0.00  0.00     0.035 A 
ATOM     30 CL   UNL d   1      29.388 -15.117  -5.743  0.00  0.00    -0.084 Cl
ATOM     31  C   UNL d   1      26.963 -14.568  -4.724  0.00  0.00     0.050 A 
ATOM     32  C   UNL d   1      25.945 -14.653  -3.766  0.00  0.00     0.069 A 
ATOM     33 CL   UNL d   1      24.556 -13.700  -4.154  0.00  0.00    -0.081 Cl
ENDBRANCH  25  26
ENDBRANCH  24  25
ENDBRANCH  23  24
ENDBRANCH  22  23
ENDBRANCH  19  22
ENDBRANCH   1  18
TORSDOF 10
ENDMDL
MODEL 5
REMARK VINA RESULT:    -7.519      6.017      8.840
REMARK INTER + INTRA:         -13.879
REMARK INTER:                 -10.502
REMARK INTRA:                  -3.377
REMARK CONF_INDEPENDENT:        2.983
REMARK UNBOUND:                -3.377
REMARK  10 active torsions:
REMARK  status: ('A' for Active; 'I' for Inactive)
REMARK    1  A    between atoms: C_2  and  C_4 
REMARK    2  A    between atoms: C_7  and  C_8 
REMARK       I    between atoms: C_8  and  N_10 
REMARK    3  A    between atoms: N_10  and  C_11 
REMARK    4  A    between atoms: C_11  and  N_13 
REMARK    5  A    between atoms: N_13  and  N_14 
REMARK       I    between atoms: N_14  and  C_15 
REMARK    6  A    between atoms: C_15  and  C_17 
REMARK    7  A    between atoms: C_17  and  C_18 
REMARK    8  A    between atoms: C_18  and  C_19 
REMARK    9  A    between atoms: C_19  and  O_20 
REMARK   10  A    between atoms: O_20  and  C_21 
ROOT
ATOM      1  N   UNL d   1      27.573 -14.346  -0.618  0.00  0.00    -0.273 N 
ATOM      2  H   UNL d   1      27.934 -13.562  -0.076  0.00  0.00     0.189 HD
ENDROOT
BRANCH   1   3
ATOM      3  C   UNL d   1      27.702 -15.708  -0.303  0.00  0.00     0.193 C 
ATOM      4  S   UNL d   1      29.246 -16.377  -0.154  0.00  0.00    -0.039 SA
BRANCH   3   5
ATOM      5  N   UNL d   1      26.487 -16.408  -0.130  0.00  0.00    -0.298 N 
ATOM      6  C   UNL d   1      25.530 -16.678  -1.134  0.00  0.00     0.257 C 
ATOM      7  O   UNL d   1      25.663 -16.334  -2.314  0.00  0.00    -0.267 OA
ATOM      8  H   UNL d   1      26.271 -16.720   0.805  0.00  0.00     0.171 HD
BRANCH   6   9
ATOM      9  C   UNL d   1      24.240 -17.379  -0.833  0.00  0.00     0.032 A 
ATOM     10  C   UNL d   1      24.312 -18.756  -0.523  0.00  0.00     0.017 A 
ATOM     11  C   UNL d   1      23.164 -19.535  -0.355  0.00  0.00     0.008 A 
ATOM     12  C   UNL d   1      21.900 -18.943  -0.374  0.00  0.00    -0.055 A 
ATOM     13  C   UNL d   1      21.831 -17.573  -0.687  0.00  0.00     0.008 A 
ATOM     14  C   UNL d   1      22.981 -16.792  -0.897  0.00  0.00     0.017 A 
BRANCH  12  15
ATOM     15  C   UNL d   1      20.631 -19.717  -0.021  0.00  0.00     0.010 C 
ATOM     16  C   UNL d   1      20.211 -19.564   1.450  0.00  0.00     0.015 C 
ATOM     17  C   UNL d   1      19.453 -19.247  -0.892  0.00  0.00     0.015 C 
ENDBRANCH  12  15
ENDBRANCH   6   9
ENDBRANCH   3   5
ENDBRANCH   1   3
BRANCH   1  18
ATOM     18  N   UNL d   1      26.872 -13.968  -1.830  0.00  0.00    -0.268 N 
ATOM     19  C   UNL d   1      26.865 -12.657  -2.273  0.00  0.00     0.236 C 
ATOM     20  O   UNL d   1      27.438 -11.764  -1.653  0.00  0.00    -0.272 OA
ATOM     21  H   UNL d   1      26.403 -14.730  -2.321  0.00  0.00     0.190 HD
BRANCH  19  22
ATOM     22  C   UNL d   1      26.096 -12.407  -3.581  0.00  0.00     0.106 C 
BRANCH  22  23
ATOM     23  C   UNL d   1      25.167 -13.587  -3.932  0.00  0.00     0.036 C 
BRANCH  23  24
ATOM     24  C   UNL d   1      25.843 -14.609  -4.849  0.00  0.00     0.176 C 
BRANCH  24  25
ATOM     25  O   UNL d   1      27.106 -15.015  -4.306  0.00  0.00    -0.349 OA
BRANCH  25  26
ATOM     26  C   UNL d   1      28.162 -15.142  -5.179  0.00  0.00     0.090 A 
ATOM     27  C   UNL d   1      28.965 -16.279  -4.951  0.00  0.00     0.040 A 
ATOM     28  C   UNL d   1      30.155 -16.483  -5.667  0.00  0.00     0.026 A 
ATOM     29  C   UNL d   1      30.519 -15.587  -6.662  0.00  0.00     0.035 A 
ATOM     30 CL   UNL d   1      31.913 -15.870  -7.627  0.00  0.00    -0.084 Cl
ATOM     31  C   UNL d   1      29.743 -14.462  -6.902  0.00  0.00     0.050 A 
ATOM     32  C   UNL d   1      28.581 -14.224  -6.159  0.00  0.00     0.069 A 
ATOM     33 CL   UNL d   1      27.822 -12.717  -6.535  0.00  0.00    -0.081 Cl
ENDBRANCH  25  26
ENDBRANCH  24  25
ENDBRANCH  23  24
ENDBRANCH  22  23
ENDBRANCH  19  22
ENDBRANCH   1  18
TORSDOF 10
ENDMDL
MODEL 6
REMARK VINA RESULT:    -7.038      2.865      4.338
REMARK INTER + INTRA:         -14.014
REMARK INTER:                 -10.021
REMARK INTRA:                  -3.994
REMARK CONF_INDEPENDENT:        2.983
REMARK UNBOUND:                -3.994
REMARK  10 active torsions:
REMARK  status: ('A' for Active; 'I' for Inactive)
REMARK    1  A    between atoms: C_2  and  C_4 
REMARK    2  A    between atoms: C_7  and  C_8 
REMARK       I    between atoms: C_8  and  N_10 
REMARK    3  A    between atoms: N_10  and  C_11 
REMARK    4  A    between atoms: C_11  and  N_13 
REMARK    5  A    between atoms: N_13  and  N_14 
REMARK       I    between atoms: N_14  and  C_15 
REMARK    6  A    between atoms: C_15  and  C_17 
REMARK    7  A    between atoms: C_17  and  C_18 
REMARK    8  A    between atoms: C_18  and  C_19 
REMARK    9  A    between atoms: C_19  and  O_20 
REMARK   10  A    between atoms: O_20  and  C_21 
ROOT
ATOM      1  N   UNL d   1      27.188 -13.156  -4.057  0.00  0.00    -0.273 N 
ATOM      2  H   UNL d   1      26.955 -13.091  -5.047  0.00  0.00     0.189 HD
ENDROOT
BRANCH   1   3
ATOM      3  C   UNL d   1      26.763 -12.284  -3.041  0.00  0.00     0.193 C 
ATOM      4  S   UNL d   1      26.178 -10.755  -3.458  0.00  0.00    -0.039 SA
BRANCH   3   5
ATOM      5  N   UNL d   1      26.866 -12.790  -1.726  0.00  0.00    -0.298 N 
ATOM      6  C   UNL d   1      27.151 -12.038  -0.563  0.00  0.00     0.257 C 
ATOM      7  O   UNL d   1      27.329 -10.816  -0.568  0.00  0.00    -0.267 OA
ATOM      8  H   UNL d   1      26.754 -13.786  -1.612  0.00  0.00     0.171 HD
BRANCH   6   9
ATOM      9  C   UNL d   1      27.298 -12.684   0.782  0.00  0.00     0.032 A 
ATOM     10  C   UNL d   1      27.045 -11.879   1.915  0.00  0.00     0.017 A 
ATOM     11  C   UNL d   1      27.278 -12.338   3.213  0.00  0.00     0.008 A 
ATOM     12  C   UNL d   1      27.661 -13.662   3.436  0.00  0.00    -0.055 A 
ATOM     13  C   UNL d   1      27.916 -14.461   2.305  0.00  0.00     0.008 A 
ATOM     14  C   UNL d   1      27.722 -13.990   0.995  0.00  0.00     0.017 A 
BRANCH  12  15
ATOM     15  C   UNL d   1      27.756 -14.259   4.838  0.00  0.00     0.010 C 
ATOM     16  C   UNL d   1      29.008 -15.128   5.049  0.00  0.00     0.015 C 
ATOM     17  C   UNL d   1      27.780 -13.146   5.899  0.00  0.00     0.015 C 
ENDBRANCH  12  15
ENDBRANCH   6   9
ENDBRANCH   3   5
ENDBRANCH   1   3
BRANCH   1  18
ATOM     18  N   UNL d   1      28.053 -14.268  -3.713  0.00  0.00    -0.268 N 
ATOM     19  C   UNL d   1      28.341 -15.261  -4.633  0.00  0.00     0.236 C 
ATOM     20  O   UNL d   1      27.869 -15.245  -5.768  0.00  0.00    -0.272 OA
ATOM     21  H   UNL d   1      28.427 -14.255  -2.764  0.00  0.00     0.190 HD
BRANCH  19  22
ATOM     22  C   UNL d   1      29.285 -16.368  -4.135  0.00  0.00     0.106 C 
BRANCH  22  23
ATOM     23  C   UNL d   1      29.708 -16.140  -2.669  0.00  0.00     0.036 C 
BRANCH  23  24
ATOM     24  C   UNL d   1      28.688 -16.699  -1.674  0.00  0.00     0.176 C 
BRANCH  24  25
ATOM     25  O   UNL d   1      27.593 -15.790  -1.512  0.00  0.00    -0.349 OA
BRANCH  25  26
ATOM     26  C   UNL d   1      26.373 -16.320  -1.157  0.00  0.00     0.090 A 
ATOM     27  C   UNL d   1      26.455 -17.405  -0.260  0.00  0.00     0.040 A 
ATOM     28  C   UNL d   1      25.315 -18.141   0.096  0.00  0.00     0.026 A 
ATOM     29  C   UNL d   1      24.072 -17.758  -0.390  0.00  0.00     0.035 A 
ATOM     30 CL   UNL d   1      22.646 -18.574   0.115  0.00  0.00    -0.084 Cl
ATOM     31  C   UNL d   1      23.970 -16.693  -1.273  0.00  0.00     0.050 A 
ATOM     32  C   UNL d   1      25.108 -15.984  -1.673  0.00  0.00     0.069 A 
ATOM     33 CL   UNL d   1      24.781 -14.771  -2.859  0.00  0.00    -0.081 Cl
ENDBRANCH  25  26
ENDBRANCH  24  25
ENDBRANCH  23  24
ENDBRANCH  22  23
ENDBRANCH  19  22
ENDBRANCH   1  18
TORSDOF 10
ENDMDL
MODEL 7
REMARK VINA RESULT:    -6.905      2.258      3.257
REMARK INTER + INTRA:         -13.355
REMARK INTER:                  -9.888
REMARK INTRA:                  -3.467
REMARK CONF_INDEPENDENT:        2.983
REMARK UNBOUND:                -3.467
REMARK  10 active torsions:
REMARK  status: ('A' for Active; 'I' for Inactive)
REMARK    1  A    between atoms: C_2  and  C_4 
REMARK    2  A    between atoms: C_7  and  C_8 
REMARK       I    between atoms: C_8  and  N_10 
REMARK    3  A    between atoms: N_10  and  C_11 
REMARK    4  A    between atoms: C_11  and  N_13 
REMARK    5  A    between atoms: N_13  and  N_14 
REMARK       I    between atoms: N_14  and  C_15 
REMARK    6  A    between atoms: C_15  and  C_17 
REMARK    7  A    between atoms: C_17  and  C_18 
REMARK    8  A    between atoms: C_18  and  C_19 
REMARK    9  A    between atoms: C_19  and  O_20 
REMARK   10  A    between atoms: O_20  and  C_21 
ROOT
ATOM      1  N   UNL d   1      29.896 -16.035  -1.952  0.00  0.00    -0.273 N 
ATOM      2  H   UNL d   1      30.638 -15.582  -2.484  0.00  0.00     0.189 HD
ENDROOT
BRANCH   1   3
ATOM      3  C   UNL d   1      30.065 -16.907  -0.863  0.00  0.00     0.193 C 
ATOM      4  S   UNL d   1      30.532 -18.504  -1.152  0.00  0.00    -0.039 SA
BRANCH   3   5
ATOM      5  N   UNL d   1      29.823 -16.341   0.409  0.00  0.00    -0.298 N 
ATOM      6  C   UNL d   1      29.206 -15.096   0.665  0.00  0.00     0.257 C 
ATOM      7  O   UNL d   1      28.781 -14.350  -0.224  0.00  0.00    -0.267 OA
ATOM      8  H   UNL d   1      30.148 -16.865   1.208  0.00  0.00     0.171 HD
BRANCH   6   9
ATOM      9  C   UNL d   1      29.050 -14.559   2.055  0.00  0.00     0.032 A 
ATOM     10  C   UNL d   1      27.734 -14.397   2.541  0.00  0.00     0.017 A 
ATOM     11  C   UNL d   1      27.470 -13.785   3.768  0.00  0.00     0.008 A 
ATOM     12  C   UNL d   1      28.518 -13.415   4.613  0.00  0.00    -0.055 A 
ATOM     13  C   UNL d   1      29.829 -13.573   4.125  0.00  0.00     0.008 A 
ATOM     14  C   UNL d   1      30.099 -14.152   2.873  0.00  0.00     0.017 A 
BRANCH  12  15
ATOM     15  C   UNL d   1      28.282 -12.907   6.033  0.00  0.00     0.010 C 
ATOM     16  C   UNL d   1      29.541 -12.949   6.915  0.00  0.00     0.015 C 
ATOM     17  C   UNL d   1      27.781 -11.452   6.010  0.00  0.00     0.015 C 
ENDBRANCH  12  15
ENDBRANCH   6   9
ENDBRANCH   3   5
ENDBRANCH   1   3
BRANCH   1  18
ATOM     18  N   UNL d   1      28.554 -15.727  -2.405  0.00  0.00    -0.268 N 
ATOM     19  C   UNL d   1      28.283 -15.508  -3.744  0.00  0.00     0.236 C 
ATOM     20  O   UNL d   1      29.168 -15.554  -4.596  0.00  0.00    -0.272 OA
ATOM     21  H   UNL d   1      27.842 -15.692  -1.674  0.00  0.00     0.190 HD
BRANCH  19  22
ATOM     22  C   UNL d   1      26.813 -15.208  -4.079  0.00  0.00     0.106 C 
BRANCH  22  23
ATOM     23  C   UNL d   1      26.311 -13.938  -3.361  0.00  0.00     0.036 C 
BRANCH  23  24
ATOM     24  C   UNL d   1      25.575 -14.258  -2.058  0.00  0.00     0.176 C 
BRANCH  24  25
ATOM     25  O   UNL d   1      26.041 -15.497  -1.508  0.00  0.00    -0.349 OA
BRANCH  25  26
ATOM     26  C   UNL d   1      25.093 -16.408  -1.100  0.00  0.00     0.090 A 
ATOM     27  C   UNL d   1      23.765 -16.018  -1.369  0.00  0.00     0.040 A 
ATOM     28  C   UNL d   1      22.677 -16.770  -0.899  0.00  0.00     0.026 A 
ATOM     29  C   UNL d   1      22.908 -17.952  -0.211  0.00  0.00     0.035 A 
ATOM     30 CL   UNL d   1      21.596 -18.948   0.283  0.00  0.00    -0.084 Cl
ATOM     31  C   UNL d   1      24.207 -18.354   0.065  0.00  0.00     0.050 A 
ATOM     32  C   UNL d   1      25.297 -17.585  -0.357  0.00  0.00     0.069 A 
ATOM     33 CL   UNL d   1      26.821 -18.198   0.183  0.00  0.00    -0.081 Cl
ENDBRANCH  25  26
ENDBRANCH  24  25
ENDBRANCH  23  24
ENDBRANCH  22  23
ENDBRANCH  19  22
ENDBRANCH   1  18
TORSDOF 10
ENDMDL
MODEL 8
REMARK VINA RESULT:    -6.872      3.163      4.542
REMARK INTER + INTRA:         -13.783
REMARK INTER:                  -9.855
REMARK INTRA:                  -3.928
REMARK CONF_INDEPENDENT:        2.983
REMARK UNBOUND:                -3.928
REMARK  10 active torsions:
REMARK  status: ('A' for Active; 'I' for Inactive)
REMARK    1  A    between atoms: C_2  and  C_4 
REMARK    2  A    between atoms: C_7  and  C_8 
REMARK       I    between atoms: C_8  and  N_10 
REMARK    3  A    between atoms: N_10  and  C_11 
REMARK    4  A    between atoms: C_11  and  N_13 
REMARK    5  A    between atoms: N_13  and  N_14 
REMARK       I    between atoms: N_14  and  C_15 
REMARK    6  A    between atoms: C_15  and  C_17 
REMARK    7  A    between atoms: C_17  and  C_18 
REMARK    8  A    between atoms: C_18  and  C_19 
REMARK    9  A    between atoms: C_19  and  O_20 
REMARK   10  A    between atoms: O_20  and  C_21 
ROOT
ATOM      1  N   UNL d   1      28.906 -16.229  -4.127  0.00  0.00    -0.273 N 
ATOM      2  H   UNL d   1      28.835 -16.713  -5.021  0.00  0.00     0.189 HD
ENDROOT
BRANCH   1   3
ATOM      3  C   UNL d   1      30.015 -16.227  -3.266  0.00  0.00     0.193 C 
ATOM      4  S   UNL d   1      31.552 -16.526  -3.900  0.00  0.00    -0.039 SA
BRANCH   3   5
ATOM      5  N   UNL d   1      29.727 -15.963  -1.908  0.00  0.00    -0.298 N 
ATOM      6  C   UNL d   1      29.289 -14.730  -1.373  0.00  0.00     0.257 C 
ATOM      7  O   UNL d   1      29.086 -13.723  -2.059  0.00  0.00    -0.267 OA
ATOM      8  H   UNL d   1      29.877 -16.718  -1.256  0.00  0.00     0.171 HD
BRANCH   6   9
ATOM      9  C   UNL d   1      29.068 -14.538   0.097  0.00  0.00     0.032 A 
ATOM     10  C   UNL d   1      30.198 -14.224   0.884  0.00  0.00     0.017 A 
ATOM     11  C   UNL d   1      30.131 -14.152   2.277  0.00  0.00     0.008 A 
ATOM     12  C   UNL d   1      28.904 -14.276   2.932  0.00  0.00    -0.055 A 
ATOM     13  C   UNL d   1      27.780 -14.593   2.146  0.00  0.00     0.008 A 
ATOM     14  C   UNL d   1      27.850 -14.706   0.747  0.00  0.00     0.017 A 
BRANCH  12  15
ATOM     15  C   UNL d   1      28.750 -14.031   4.431  0.00  0.00     0.010 C 
ATOM     16  C   UNL d   1      27.291 -14.075   4.912  0.00  0.00     0.015 C 
ATOM     17  C   UNL d   1      29.535 -15.083   5.234  0.00  0.00     0.015 C 
ENDBRANCH  12  15
ENDBRANCH   6   9
ENDBRANCH   3   5
ENDBRANCH   1   3
BRANCH   1  18
ATOM     18  N   UNL d   1      27.717 -15.491  -3.745  0.00  0.00    -0.268 N 
ATOM     19  C   UNL d   1      26.720 -15.216  -4.664  0.00  0.00     0.236 C 
ATOM     20  O   UNL d   1      26.808 -15.574  -5.837  0.00  0.00    -0.272 OA
ATOM     21  H   UNL d   1      27.675 -15.206  -2.767  0.00  0.00     0.190 HD
BRANCH  19  22
ATOM     22  C   UNL d   1      25.511 -14.441  -4.114  0.00  0.00     0.106 C 
BRANCH  22  23
ATOM     23  C   UNL d   1      25.931 -13.420  -3.036  0.00  0.00     0.036 C 
BRANCH  23  24
ATOM     24  C   UNL d   1      25.904 -14.017  -1.627  0.00  0.00     0.176 C 
BRANCH  24  25
ATOM     25  O   UNL d   1      26.262 -15.404  -1.660  0.00  0.00    -0.349 OA
BRANCH  25  26
ATOM     26  C   UNL d   1      25.325 -16.313  -1.225  0.00  0.00     0.090 A 
ATOM     27  C   UNL d   1      23.992 -15.950  -1.511  0.00  0.00     0.040 A 
ATOM     28  C   UNL d   1      22.913 -16.700  -1.020  0.00  0.00     0.026 A 
ATOM     29  C   UNL d   1      23.157 -17.857  -0.292  0.00  0.00     0.035 A 
ATOM     30 CL   UNL d   1      21.857 -18.853   0.230  0.00  0.00    -0.084 Cl
ATOM     31  C   UNL d   1      24.460 -18.232   0.000  0.00  0.00     0.050 A 
ATOM     32  C   UNL d   1      25.542 -17.463  -0.444  0.00  0.00     0.069 A 
ATOM     33 CL   UNL d   1      27.072 -18.038   0.120  0.00  0.00    -0.081 Cl
ENDBRANCH  25  26
ENDBRANCH  24  25
ENDBRANCH  23  24
ENDBRANCH  22  23
ENDBRANCH  19  22
ENDBRANCH   1  18
TORSDOF 10
ENDMDL
MODEL 9
REMARK VINA RESULT:    -6.672      4.522      8.189
REMARK INTER + INTRA:         -13.402
REMARK INTER:                  -9.655
REMARK INTRA:                  -3.747
REMARK CONF_INDEPENDENT:        2.983
REMARK UNBOUND:                -3.747
REMARK  10 active torsions:
REMARK  status: ('A' for Active; 'I' for Inactive)
REMARK    1  A    between atoms: C_2  and  C_4 
REMARK    2  A    between atoms: C_7  and  C_8 
REMARK       I    between atoms: C_8  and  N_10 
REMARK    3  A    between atoms: N_10  and  C_11 
REMARK    4  A    between atoms: C_11  and  N_13 
REMARK    5  A    between atoms: N_13  and  N_14 
REMARK       I    between atoms: N_14  and  C_15 
REMARK    6  A    between atoms: C_15  and  C_17 
REMARK    7  A    between atoms: C_17  and  C_18 
REMARK    8  A    between atoms: C_18  and  C_19 
REMARK    9  A    between atoms: C_19  and  O_20 
REMARK   10  A    between atoms: O_20  and  C_21 
ROOT
ATOM      1  N   UNL d   1      29.919 -17.593  -0.567  0.00  0.00    -0.273 N 
ATOM      2  H   UNL d   1      30.130 -18.451  -0.059  0.00  0.00     0.189 HD
ENDROOT
BRANCH   1   3
ATOM      3  C   UNL d   1      30.066 -17.385  -1.948  0.00  0.00     0.193 C 
ATOM      4  S   UNL d   1      31.078 -18.408  -2.833  0.00  0.00    -0.039 SA
BRANCH   3   5
ATOM      5  N   UNL d   1      29.326 -16.305  -2.481  0.00  0.00    -0.298 N 
ATOM      6  C   UNL d   1      29.012 -16.102  -3.843  0.00  0.00     0.257 C 
ATOM      7  O   UNL d   1      29.348 -16.878  -4.745  0.00  0.00    -0.267 OA
ATOM      8  H   UNL d   1      29.016 -15.601  -1.829  0.00  0.00     0.171 HD
BRANCH   6   9
ATOM      9  C   UNL d   1      28.268 -14.888  -4.313  0.00  0.00     0.032 A 
ATOM     10  C   UNL d   1      27.508 -14.185  -3.352  0.00  0.00     0.017 A 
ATOM     11  C   UNL d   1      26.674 -13.121  -3.704  0.00  0.00     0.008 A 
ATOM     12  C   UNL d   1      26.658 -12.641  -5.015  0.00  0.00    -0.055 A 
ATOM     13  C   UNL d   1      27.413 -13.346  -5.972  0.00  0.00     0.008 A 
ATOM     14  C   UNL d   1      28.222 -14.443  -5.629  0.00  0.00     0.017 A 
BRANCH  12  15
ATOM     15  C   UNL d   1      25.902 -11.376  -5.412  0.00  0.00     0.010 C 
ATOM     16  C   UNL d   1      25.685 -10.401  -4.242  0.00  0.00     0.015 C 
ATOM     17  C   UNL d   1      26.660 -10.616  -6.514  0.00  0.00     0.015 C 
ENDBRANCH  12  15
ENDBRANCH   6   9
ENDBRANCH   3   5
ENDBRANCH   1   3
BRANCH   1  18
ATOM     18  N   UNL d   1      29.431 -16.507   0.260  0.00  0.00    -0.268 N 
ATOM     19  C   UNL d   1      29.938 -15.226   0.132  0.00  0.00     0.236 C 
ATOM     20  O   UNL d   1      30.826 -14.962  -0.676  0.00  0.00    -0.272 OA
ATOM     21  H   UNL d   1      28.696 -16.757   0.923  0.00  0.00     0.190 HD
BRANCH  19  22
ATOM     22  C   UNL d   1      29.313 -14.173   1.062  0.00  0.00     0.106 C 
BRANCH  22  23
ATOM     23  C   UNL d   1      27.810 -14.432   1.290  0.00  0.00     0.036 C 
BRANCH  23  24
ATOM     24  C   UNL d   1      27.008 -14.399  -0.014  0.00  0.00     0.176 C 
BRANCH  24  25
ATOM     25  O   UNL d   1      27.104 -15.656  -0.695  0.00  0.00    -0.349 OA
BRANCH  25  26
ATOM     26  C   UNL d   1      25.981 -16.450  -0.726  0.00  0.00     0.090 A 
ATOM     27  C   UNL d   1      24.847 -15.825  -1.286  0.00  0.00     0.040 A 
ATOM     28  C   UNL d   1      23.591 -16.449  -1.271  0.00  0.00     0.026 A 
ATOM     29  C   UNL d   1      23.469 -17.731  -0.753  0.00  0.00     0.035 A 
ATOM     30 CL   UNL d   1      21.964 -18.561  -0.819  0.00  0.00    -0.084 Cl
ATOM     31  C   UNL d   1      24.571 -18.364  -0.197  0.00  0.00     0.050 A 
ATOM     32  C   UNL d   1      25.818 -17.729  -0.163  0.00  0.00     0.069 A 
ATOM     33 CL   UNL d   1      27.029 -18.638   0.670  0.00  0.00    -0.081 Cl
ENDBRANCH  25  26
ENDBRANCH  24  25
ENDBRANCH  23  24
ENDBRANCH  22  23
ENDBRANCH  19  22
ENDBRANCH   1  18
TORSDOF 10
ENDMDL
