MODEL 1
REMARK VINA RESULT:    -8.673      0.000      0.000
REMARK INTER + INTRA:         -12.286
REMARK INTER:                 -10.165
REMARK INTRA:                  -2.122
REMARK CONF_INDEPENDENT:        1.492
REMARK UNBOUND:                -2.122
REMARK  5 active torsions:
REMARK  status: ('A' for Active; 'I' for Inactive)
REMARK    1  A    between atoms: C_2  and  N_4 
REMARK       I    between atoms: N_4  and  C_5 
REMARK    2  A    between atoms: C_5  and  C_7 
REMARK       I    between atoms: C_7  and  N_9 
REMARK    3  A    between atoms: N_9  and  N_10 
REMARK       I    between atoms: N_10  and  C_11 
REMARK    4  A    between atoms: C_11  and  C_13 
REMARK    5  A    between atoms: C_15  and  C_16 
ROOT
ATOM      1  N   UNL d   1      24.151 -15.617  -2.015  0.00  0.00    -0.262 N 
ATOM      2  C   UNL d   1      24.379 -16.556  -1.003  0.00  0.00     0.291 C 
ATOM      3  O   UNL d   1      25.372 -16.490  -0.269  0.00  0.00    -0.264 OA
ATOM      4  H   UNL d   1      23.292 -15.603  -2.561  0.00  0.00     0.190 HD
ENDROOT
BRANCH   1   5
ATOM      5  N   UNL d   1      25.073 -14.554  -2.254  0.00  0.00    -0.259 N 
ATOM      6  C   UNL d   1      24.964 -13.760  -3.396  0.00  0.00     0.327 C 
ATOM      7  O   UNL d   1      24.082 -13.875  -4.244  0.00  0.00    -0.261 OA
ATOM      8  H   UNL d   1      25.832 -14.417  -1.580  0.00  0.00     0.190 HD
BRANCH   6   9
ATOM      9  C   UNL d   1      26.073 -12.670  -3.548  0.00  0.00     0.311 C 
ATOM     10  N   UNL d   1      25.838 -11.660  -4.483  0.00  0.00    -0.349 N 
ATOM     11  H   UNL d   1      24.987 -11.720  -5.038  0.00  0.00     0.163 HD
ATOM     12  O   UNL d   1      27.073 -12.752  -2.845  0.00  0.00    -0.262 OA
BRANCH  10  13
ATOM     13  C   UNL d   1      26.781 -10.554  -4.717  0.00  0.00     0.076 C 
ATOM     14  C   UNL d   1      26.699  -9.994  -6.144  0.00  0.00     0.032 C 
ATOM     15  C   UNL d   1      26.541  -9.403  -3.737  0.00  0.00     0.032 C 
ENDBRANCH  10  13
ENDBRANCH   6   9
ENDBRANCH   1   5
BRANCH   2  16
ATOM     16  C   UNL d   1      23.384 -17.644  -0.920  0.00  0.00     0.156 A 
ATOM     17  C   UNL d   1      22.509 -17.908   0.166  0.00  0.00     0.080 A 
ATOM     18  C   UNL d   1      21.708 -18.945  -0.242  0.00  0.00     0.114 A 
ATOM     19  O   UNL d   1      22.090 -19.325  -1.494  0.00  0.00    -0.212 OA
ATOM     20  N   UNL d   1      23.130 -18.501  -1.930  0.00  0.00    -0.122 NA
BRANCH  18  21
ATOM     21  C   UNL d   1      20.530 -19.568   0.339  0.00  0.00    -0.000 A 
ATOM     22  C   UNL d   1      20.322 -19.649   1.721  0.00  0.00     0.014 A 
ATOM     23  C   UNL d   1      19.186 -20.296   2.226  0.00  0.00     0.001 A 
ATOM     24  C   UNL d   1      18.217 -20.803   1.359  0.00  0.00     0.000 A 
ATOM     25  C   UNL d   1      18.393 -20.688  -0.016  0.00  0.00     0.001 A 
ATOM     26  C   UNL d   1      19.542 -20.078  -0.520  0.00  0.00     0.014 A 
ENDBRANCH  18  21
ENDBRANCH   2  16
TORSDOF 5
ENDMDL
MODEL 2
REMARK VINA RESULT:    -8.491      2.130      2.389
REMARK INTER + INTRA:         -11.555
REMARK INTER:                  -9.982
REMARK INTRA:                  -1.573
REMARK CONF_INDEPENDENT:        1.492
REMARK UNBOUND:                -1.573
REMARK  5 active torsions:
REMARK  status: ('A' for Active; 'I' for Inactive)
REMARK    1  A    between atoms: C_2  and  N_4 
REMARK       I    between atoms: N_4  and  C_5 
REMARK    2  A    between atoms: C_5  and  C_7 
REMARK       I    between atoms: C_7  and  N_9 
REMARK    3  A    between atoms: N_9  and  N_10 
REMARK       I    between atoms: N_10  and  C_11 
REMARK    4  A    between atoms: C_11  and  C_13 
REMARK    5  A    between atoms: C_15  and  C_16 
ROOT
ATOM      1  N   UNL d   1      25.327 -16.218  -2.499  0.00  0.00    -0.262 N 
ATOM      2  C   UNL d   1      25.701 -17.040  -1.431  0.00  0.00     0.291 C 
ATOM      3  O   UNL d   1      26.887 -17.312  -1.206  0.00  0.00    -0.264 OA
ATOM      4  H   UNL d   1      24.368 -15.908  -2.637  0.00  0.00     0.190 HD
ENDROOT
BRANCH   1   5
ATOM      5  N   UNL d   1      26.304 -15.675  -3.388  0.00  0.00    -0.259 N 
ATOM      6  C   UNL d   1      25.927 -14.827  -4.429  0.00  0.00     0.327 C 
ATOM      7  O   UNL d   1      24.775 -14.456  -4.643  0.00  0.00    -0.261 OA
ATOM      8  H   UNL d   1      27.280 -15.957  -3.257  0.00  0.00     0.190 HD
BRANCH   6   9
ATOM      9  C   UNL d   1      27.097 -14.354  -5.349  0.00  0.00     0.311 C 
ATOM     10  N   UNL d   1      27.358 -12.982  -5.379  0.00  0.00    -0.349 N 
ATOM     11  H   UNL d   1      26.746 -12.374  -4.840  0.00  0.00     0.163 HD
ATOM     12  O   UNL d   1      27.719 -15.197  -5.983  0.00  0.00    -0.262 OA
BRANCH  10  13
ATOM     13  C   UNL d   1      28.445 -12.395  -6.179  0.00  0.00     0.076 C 
ATOM     14  C   UNL d   1      29.807 -13.046  -5.903  0.00  0.00     0.032 C 
ATOM     15  C   UNL d   1      28.156 -12.510  -7.678  0.00  0.00     0.032 C 
ENDBRANCH  10  13
ENDBRANCH   6   9
ENDBRANCH   1   5
BRANCH   2  16
ATOM     16  C   UNL d   1      24.582 -17.592  -0.641  0.00  0.00     0.156 A 
ATOM     17  C   UNL d   1      23.242 -17.757  -1.074  0.00  0.00     0.080 A 
ATOM     18  C   UNL d   1      22.590 -18.390  -0.046  0.00  0.00     0.114 A 
ATOM     19  O   UNL d   1      23.469 -18.574   0.980  0.00  0.00    -0.212 OA
ATOM     20  N   UNL d   1      24.724 -18.089   0.605  0.00  0.00    -0.122 NA
BRANCH  18  21
ATOM     21  C   UNL d   1      21.262 -18.969   0.071  0.00  0.00    -0.000 A 
ATOM     22  C   UNL d   1      20.698 -19.325   1.303  0.00  0.00     0.014 A 
ATOM     23  C   UNL d   1      19.428 -19.916   1.352  0.00  0.00     0.001 A 
ATOM     24  C   UNL d   1      18.685 -20.091   0.185  0.00  0.00     0.000 A 
ATOM     25  C   UNL d   1      19.217 -19.700  -1.040  0.00  0.00     0.001 A 
ATOM     26  C   UNL d   1      20.497 -19.147  -1.094  0.00  0.00     0.014 A 
ENDBRANCH  18  21
ENDBRANCH   2  16
TORSDOF 5
ENDMDL
MODEL 3
REMARK VINA RESULT:    -8.125      2.487      2.743
REMARK INTER + INTRA:         -11.867
REMARK INTER:                  -9.617
REMARK INTRA:                  -2.250
REMARK CONF_INDEPENDENT:        1.492
REMARK UNBOUND:                -2.250
REMARK  5 active torsions:
REMARK  status: ('A' for Active; 'I' for Inactive)
REMARK    1  A    between atoms: C_2  and  N_4 
REMARK       I    between atoms: N_4  and  C_5 
REMARK    2  A    between atoms: C_5  and  C_7 
REMARK       I    between atoms: C_7  and  N_9 
REMARK    3  A    between atoms: N_9  and  N_10 
REMARK       I    between atoms: N_10  and  C_11 
REMARK    4  A    between atoms: C_11  and  C_13 
REMARK    5  A    between atoms: C_15  and  C_16 
ROOT
ATOM      1  N   UNL d   1      24.735 -16.605  -2.067  0.00  0.00    -0.262 N 
ATOM      2  C   UNL d   1      24.508 -17.553  -1.063  0.00  0.00     0.291 C 
ATOM      3  O   UNL d   1      25.440 -18.062  -0.429  0.00  0.00    -0.264 OA
ATOM      4  H   UNL d   1      23.975 -16.108  -2.527  0.00  0.00     0.190 HD
ENDROOT
BRANCH   1   5
ATOM      5  N   UNL d   1      26.060 -16.203  -2.414  0.00  0.00    -0.259 N 
ATOM      6  C   UNL d   1      26.311 -15.537  -3.614  0.00  0.00     0.327 C 
ATOM      7  O   UNL d   1      25.448 -15.217  -4.427  0.00  0.00    -0.261 OA
ATOM      8  H   UNL d   1      26.819 -16.450  -1.772  0.00  0.00     0.190 HD
BRANCH   6   9
ATOM      9  C   UNL d   1      27.814 -15.208  -3.881  0.00  0.00     0.311 C 
ATOM     10  N   UNL d   1      28.170 -14.922  -5.201  0.00  0.00    -0.349 N 
ATOM     11  H   UNL d   1      27.444 -14.991  -5.910  0.00  0.00     0.163 HD
ATOM     12  O   UNL d   1      28.590 -15.210  -2.934  0.00  0.00    -0.262 OA
BRANCH  10  13
ATOM     13  C   UNL d   1      29.542 -14.570  -5.599  0.00  0.00     0.076 C 
ATOM     14  C   UNL d   1      30.445 -15.799  -5.778  0.00  0.00     0.032 C 
ATOM     15  C   UNL d   1      29.556 -13.773  -6.906  0.00  0.00     0.032 C 
ENDBRANCH  10  13
ENDBRANCH   6   9
ENDBRANCH   1   5
BRANCH   2  16
ATOM     16  C   UNL d   1      23.094 -17.930  -0.863  0.00  0.00     0.156 A 
ATOM     17  C   UNL d   1      22.613 -19.068  -0.165  0.00  0.00     0.080 A 
ATOM     18  C   UNL d   1      21.246 -18.952  -0.154  0.00  0.00     0.114 A 
ATOM     19  O   UNL d   1      20.899 -17.825  -0.838  0.00  0.00    -0.212 OA
ATOM     20  N   UNL d   1      22.056 -17.172  -1.270  0.00  0.00    -0.122 NA
BRANCH  18  21
ATOM     21  C   UNL d   1      20.199 -19.699   0.522  0.00  0.00    -0.000 A 
ATOM     22  C   UNL d   1      20.120 -19.796   1.917  0.00  0.00     0.014 A 
ATOM     23  C   UNL d   1      19.110 -20.563   2.513  0.00  0.00     0.001 A 
ATOM     24  C   UNL d   1      18.134 -21.179   1.730  0.00  0.00     0.000 A 
ATOM     25  C   UNL d   1      18.178 -21.052   0.345  0.00  0.00     0.001 A 
ATOM     26  C   UNL d   1      19.205 -20.320  -0.252  0.00  0.00     0.014 A 
ENDBRANCH  18  21
ENDBRANCH   2  16
TORSDOF 5
ENDMDL
MODEL 4
REMARK VINA RESULT:    -7.865      2.441      9.857
REMARK INTER + INTRA:         -11.163
REMARK INTER:                  -9.357
REMARK INTRA:                  -1.807
REMARK CONF_INDEPENDENT:        1.492
REMARK UNBOUND:                -1.807
REMARK  5 active torsions:
REMARK  status: ('A' for Active; 'I' for Inactive)
REMARK    1  A    between atoms: C_2  and  N_4 
REMARK       I    between atoms: N_4  and  C_5 
REMARK    2  A    between atoms: C_5  and  C_7 
REMARK       I    between atoms: C_7  and  N_9 
REMARK    3  A    between atoms: N_9  and  N_10 
REMARK       I    between atoms: N_10  and  C_11 
REMARK    4  A    between atoms: C_11  and  C_13 
REMARK    5  A    between atoms: C_15  and  C_16 
ROOT
ATOM      1  N   UNL d   1      22.860 -16.620  -0.999  0.00  0.00    -0.262 N 
ATOM      2  C   UNL d   1      24.193 -16.888  -1.327  0.00  0.00     0.291 C 
ATOM      3  O   UNL d   1      24.803 -17.845  -0.835  0.00  0.00    -0.264 OA
ATOM      4  H   UNL d   1      22.319 -15.897  -1.469  0.00  0.00     0.190 HD
ENDROOT
BRANCH   1   5
ATOM      5  N   UNL d   1      22.156 -17.433  -0.061  0.00  0.00    -0.259 N 
ATOM      6  C   UNL d   1      21.454 -18.563  -0.484  0.00  0.00     0.327 C 
ATOM      7  O   UNL d   1      21.411 -18.963  -1.644  0.00  0.00    -0.261 OA
ATOM      8  H   UNL d   1      22.155 -17.141   0.921  0.00  0.00     0.190 HD
BRANCH   6   9
ATOM      9  C   UNL d   1      20.690 -19.323   0.646  0.00  0.00     0.311 C 
ATOM     10  N   UNL d   1      19.736 -20.259   0.240  0.00  0.00    -0.349 N 
ATOM     11  H   UNL d   1      19.564 -20.354  -0.758  0.00  0.00     0.163 HD
ATOM     12  O   UNL d   1      20.967 -19.070   1.812  0.00  0.00    -0.262 OA
BRANCH  10  13
ATOM     13  C   UNL d   1      18.957 -21.068   1.192  0.00  0.00     0.076 C 
ATOM     14  C   UNL d   1      18.598 -20.300   2.472  0.00  0.00     0.032 C 
ATOM     15  C   UNL d   1      17.658 -21.574   0.559  0.00  0.00     0.032 C 
ENDBRANCH  10  13
ENDBRANCH   6   9
ENDBRANCH   1   5
BRANCH   2  16
ATOM     16  C   UNL d   1      24.819 -15.921  -2.252  0.00  0.00     0.156 A 
ATOM     17  C   UNL d   1      26.126 -15.999  -2.799  0.00  0.00     0.080 A 
ATOM     18  C   UNL d   1      26.232 -14.944  -3.670  0.00  0.00     0.114 A 
ATOM     19  O   UNL d   1      25.070 -14.233  -3.637  0.00  0.00    -0.212 OA
ATOM     20  N   UNL d   1      24.175 -14.852  -2.761  0.00  0.00    -0.122 NA
BRANCH  18  21
ATOM     21  C   UNL d   1      27.245 -14.566  -4.642  0.00  0.00    -0.000 A 
ATOM     22  C   UNL d   1      28.418 -15.305  -4.837  0.00  0.00     0.014 A 
ATOM     23  C   UNL d   1      29.379 -14.871  -5.761  0.00  0.00     0.001 A 
ATOM     24  C   UNL d   1      29.146 -13.739  -6.543  0.00  0.00     0.000 A 
ATOM     25  C   UNL d   1      27.964 -13.022  -6.388  0.00  0.00     0.001 A 
ATOM     26  C   UNL d   1      27.024 -13.433  -5.441  0.00  0.00     0.014 A 
ENDBRANCH  18  21
ENDBRANCH   2  16
TORSDOF 5
ENDMDL
MODEL 5
REMARK VINA RESULT:    -7.567      3.780      4.608
REMARK INTER + INTRA:         -11.197
REMARK INTER:                  -9.058
REMARK INTRA:                  -2.138
REMARK CONF_INDEPENDENT:        1.492
REMARK UNBOUND:                -2.138
REMARK  5 active torsions:
REMARK  status: ('A' for Active; 'I' for Inactive)
REMARK    1  A    between atoms: C_2  and  N_4 
REMARK       I    between atoms: N_4  and  C_5 
REMARK    2  A    between atoms: C_5  and  C_7 
REMARK       I    between atoms: C_7  and  N_9 
REMARK    3  A    between atoms: N_9  and  N_10 
REMARK       I    between atoms: N_10  and  C_11 
REMARK    4  A    between atoms: C_11  and  C_13 
REMARK    5  A    between atoms: C_15  and  C_16 
ROOT
ATOM      1  N   UNL d   1      25.528 -17.461  -0.635  0.00  0.00    -0.262 N 
ATOM      2  C   UNL d   1      24.272 -16.965  -0.999  0.00  0.00     0.291 C 
ATOM      3  O   UNL d   1      24.107 -15.780  -1.312  0.00  0.00    -0.264 OA
ATOM      4  H   UNL d   1      25.695 -18.451  -0.471  0.00  0.00     0.190 HD
ENDROOT
BRANCH   1   5
ATOM      5  N   UNL d   1      26.671 -16.606  -0.591  0.00  0.00    -0.259 N 
ATOM      6  C   UNL d   1      27.926 -17.114  -0.251  0.00  0.00     0.327 C 
ATOM      7  O   UNL d   1      28.158 -18.295  -0.008  0.00  0.00    -0.261 OA
ATOM      8  H   UNL d   1      26.532 -15.610  -0.781  0.00  0.00     0.190 HD
BRANCH   6   9
ATOM      9  C   UNL d   1      29.070 -16.052  -0.193  0.00  0.00     0.311 C 
ATOM     10  N   UNL d   1      30.308 -16.488   0.284  0.00  0.00    -0.349 N 
ATOM     11  H   UNL d   1      30.377 -17.450   0.606  0.00  0.00     0.163 HD
ATOM     12  O   UNL d   1      28.829 -14.912  -0.569  0.00  0.00    -0.262 OA
BRANCH  10  13
ATOM     13  C   UNL d   1      31.484 -15.607   0.372  0.00  0.00     0.076 C 
ATOM     14  C   UNL d   1      32.648 -16.242   1.147  0.00  0.00     0.032 C 
ATOM     15  C   UNL d   1      31.993 -15.218  -1.019  0.00  0.00     0.032 C 
ENDBRANCH  10  13
ENDBRANCH   6   9
ENDBRANCH   1   5
BRANCH   2  16
ATOM     16  C   UNL d   1      23.166 -17.942  -0.928  0.00  0.00     0.156 A 
ATOM     17  C   UNL d   1      22.432 -18.306   0.230  0.00  0.00     0.080 A 
ATOM     18  C   UNL d   1      21.452 -19.164  -0.200  0.00  0.00     0.114 A 
ATOM     19  O   UNL d   1      21.593 -19.348  -1.543  0.00  0.00    -0.212 OA
ATOM     20  N   UNL d   1      22.657 -18.571  -2.007  0.00  0.00    -0.122 NA
BRANCH  18  21
ATOM     21  C   UNL d   1      20.300 -19.756   0.460  0.00  0.00    -0.000 A 
ATOM     22  C   UNL d   1      20.183 -19.828   1.854  0.00  0.00     0.014 A 
ATOM     23  C   UNL d   1      19.068 -20.446   2.436  0.00  0.00     0.001 A 
ATOM     24  C   UNL d   1      18.032 -20.932   1.637  0.00  0.00     0.000 A 
ATOM     25  C   UNL d   1      18.118 -20.825   0.253  0.00  0.00     0.001 A 
ATOM     26  C   UNL d   1      19.246 -20.245  -0.329  0.00  0.00     0.014 A 
ENDBRANCH  18  21
ENDBRANCH   2  16
TORSDOF 5
ENDMDL
MODEL 6
REMARK VINA RESULT:    -7.541      2.466      9.833
REMARK INTER + INTRA:         -10.715
REMARK INTER:                  -9.032
REMARK INTRA:                  -1.683
REMARK CONF_INDEPENDENT:        1.492
REMARK UNBOUND:                -1.683
REMARK  5 active torsions:
REMARK  status: ('A' for Active; 'I' for Inactive)
REMARK    1  A    between atoms: C_2  and  N_4 
REMARK       I    between atoms: N_4  and  C_5 
REMARK    2  A    between atoms: C_5  and  C_7 
REMARK       I    between atoms: C_7  and  N_9 
REMARK    3  A    between atoms: N_9  and  N_10 
REMARK       I    between atoms: N_10  and  C_11 
REMARK    4  A    between atoms: C_11  and  C_13 
REMARK    5  A    between atoms: C_15  and  C_16 
ROOT
ATOM      1  N   UNL d   1      23.225 -17.782  -1.450  0.00  0.00    -0.262 N 
ATOM      2  C   UNL d   1      24.414 -17.177  -1.030  0.00  0.00     0.291 C 
ATOM      3  O   UNL d   1      24.905 -17.413   0.081  0.00  0.00    -0.264 OA
ATOM      4  H   UNL d   1      22.864 -17.672  -2.395  0.00  0.00     0.190 HD
ENDROOT
BRANCH   1   5
ATOM      5  N   UNL d   1      22.517 -18.684  -0.599  0.00  0.00    -0.259 N 
ATOM      6  C   UNL d   1      21.122 -18.688  -0.569  0.00  0.00     0.327 C 
ATOM      7  O   UNL d   1      20.408 -17.974  -1.269  0.00  0.00    -0.261 OA
ATOM      8  H   UNL d   1      23.065 -19.298   0.010  0.00  0.00     0.190 HD
BRANCH   6   9
ATOM      9  C   UNL d   1      20.489 -19.691   0.447  0.00  0.00     0.311 C 
ATOM     10  N   UNL d   1      19.331 -19.272   1.104  0.00  0.00    -0.349 N 
ATOM     11  H   UNL d   1      18.998 -18.329   0.918  0.00  0.00     0.163 HD
ATOM     12  O   UNL d   1      21.028 -20.779   0.608  0.00  0.00    -0.262 OA
BRANCH  10  13
ATOM     13  C   UNL d   1      18.611 -20.119   2.069  0.00  0.00     0.076 C 
ATOM     14  C   UNL d   1      18.043 -21.396   1.433  0.00  0.00     0.032 C 
ATOM     15  C   UNL d   1      19.515 -20.527   3.235  0.00  0.00     0.032 C 
ENDBRANCH  10  13
ENDBRANCH   6   9
ENDBRANCH   1   5
BRANCH   2  16
ATOM     16  C   UNL d   1      24.998 -16.209  -1.981  0.00  0.00     0.156 A 
ATOM     17  C   UNL d   1      26.312 -16.237  -2.516  0.00  0.00     0.080 A 
ATOM     18  C   UNL d   1      26.370 -15.206  -3.420  0.00  0.00     0.114 A 
ATOM     19  O   UNL d   1      25.172 -14.556  -3.418  0.00  0.00    -0.212 OA
ATOM     20  N   UNL d   1      24.303 -15.192  -2.528  0.00  0.00    -0.122 NA
BRANCH  18  21
ATOM     21  C   UNL d   1      27.371 -14.807  -4.396  0.00  0.00    -0.000 A 
ATOM     22  C   UNL d   1      27.256 -13.641  -5.162  0.00  0.00     0.014 A 
ATOM     23  C   UNL d   1      28.233 -13.326  -6.116  0.00  0.00     0.001 A 
ATOM     24  C   UNL d   1      29.362 -14.131  -6.264  0.00  0.00     0.000 A 
ATOM     25  C   UNL d   1      29.508 -15.269  -5.476  0.00  0.00     0.001 A 
ATOM     26  C   UNL d   1      28.517 -15.604  -4.553  0.00  0.00     0.014 A 
ENDBRANCH  18  21
ENDBRANCH   2  16
TORSDOF 5
ENDMDL
MODEL 7
REMARK VINA RESULT:    -7.529      3.722      9.716
REMARK INTER + INTRA:         -10.289
REMARK INTER:                  -9.021
REMARK INTRA:                  -1.268
REMARK CONF_INDEPENDENT:        1.492
REMARK UNBOUND:                -1.268
REMARK  5 active torsions:
REMARK  status: ('A' for Active; 'I' for Inactive)
REMARK    1  A    between atoms: C_2  and  N_4 
REMARK       I    between atoms: N_4  and  C_5 
REMARK    2  A    between atoms: C_5  and  C_7 
REMARK       I    between atoms: C_7  and  N_9 
REMARK    3  A    between atoms: N_9  and  N_10 
REMARK       I    between atoms: N_10  and  C_11 
REMARK    4  A    between atoms: C_11  and  C_13 
REMARK    5  A    between atoms: C_15  and  C_16 
ROOT
ATOM      1  N   UNL d   1      23.465 -17.238  -0.617  0.00  0.00    -0.262 N 
ATOM      2  C   UNL d   1      24.690 -17.855  -0.341  0.00  0.00     0.291 C 
ATOM      3  O   UNL d   1      24.751 -18.950   0.230  0.00  0.00    -0.264 OA
ATOM      4  H   UNL d   1      23.398 -16.387  -1.171  0.00  0.00     0.190 HD
ENDROOT
BRANCH   1   5
ATOM      5  N   UNL d   1      22.232 -17.844  -0.228  0.00  0.00    -0.259 N 
ATOM      6  C   UNL d   1      21.662 -18.857  -1.000  0.00  0.00     0.327 C 
ATOM      7  O   UNL d   1      22.166 -19.324  -2.019  0.00  0.00    -0.261 OA
ATOM      8  H   UNL d   1      21.767 -17.488   0.612  0.00  0.00     0.190 HD
BRANCH   6   9
ATOM      9  C   UNL d   1      20.289 -19.387  -0.479  0.00  0.00     0.311 C 
ATOM     10  N   UNL d   1      20.224 -19.742   0.870  0.00  0.00    -0.349 N 
ATOM     11  H   UNL d   1      21.080 -19.679   1.416  0.00  0.00     0.163 HD
ATOM     12  O   UNL d   1      19.352 -19.456  -1.265  0.00  0.00    -0.262 OA
BRANCH  10  13
ATOM     13  C   UNL d   1      18.991 -20.233   1.507  0.00  0.00     0.076 C 
ATOM     14  C   UNL d   1      18.488 -21.549   0.895  0.00  0.00     0.032 C 
ATOM     15  C   UNL d   1      19.188 -20.450   3.009  0.00  0.00     0.032 C 
ENDBRANCH  10  13
ENDBRANCH   6   9
ENDBRANCH   1   5
BRANCH   2  16
ATOM     16  C   UNL d   1      25.886 -17.080  -0.731  0.00  0.00     0.156 A 
ATOM     17  C   UNL d   1      27.236 -17.405  -0.439  0.00  0.00     0.080 A 
ATOM     18  C   UNL d   1      27.996 -16.459  -1.080  0.00  0.00     0.114 A 
ATOM     19  O   UNL d   1      27.163 -15.579  -1.703  0.00  0.00    -0.212 OA
ATOM     20  N   UNL d   1      25.839 -15.974  -1.500  0.00  0.00    -0.122 NA
BRANCH  18  21
ATOM     21  C   UNL d   1      29.428 -16.327  -1.297  0.00  0.00    -0.000 A 
ATOM     22  C   UNL d   1      30.304 -15.877  -0.303  0.00  0.00     0.014 A 
ATOM     23  C   UNL d   1      31.670 -15.732  -0.581  0.00  0.00     0.001 A 
ATOM     24  C   UNL d   1      32.181 -16.100  -1.826  0.00  0.00     0.000 A 
ATOM     25  C   UNL d   1      31.325 -16.591  -2.807  0.00  0.00     0.001 A 
ATOM     26  C   UNL d   1      29.959 -16.699  -2.543  0.00  0.00     0.014 A 
ENDBRANCH  18  21
ENDBRANCH   2  16
TORSDOF 5
ENDMDL
MODEL 8
REMARK VINA RESULT:    -7.418      2.088      9.591
REMARK INTER + INTRA:         -10.706
REMARK INTER:                  -8.909
REMARK INTRA:                  -1.797
REMARK CONF_INDEPENDENT:        1.492
REMARK UNBOUND:                -1.797
REMARK  5 active torsions:
REMARK  status: ('A' for Active; 'I' for Inactive)
REMARK    1  A    between atoms: C_2  and  N_4 
REMARK       I    between atoms: N_4  and  C_5 
REMARK    2  A    between atoms: C_5  and  C_7 
REMARK       I    between atoms: C_7  and  N_9 
REMARK    3  A    between atoms: N_9  and  N_10 
REMARK       I    between atoms: N_10  and  C_11 
REMARK    4  A    between atoms: C_11  and  C_13 
REMARK    5  A    between atoms: C_15  and  C_16 
ROOT
ATOM      1  N   UNL d   1      23.463 -17.880  -1.170  0.00  0.00    -0.262 N 
ATOM      2  C   UNL d   1      24.801 -17.669  -0.822  0.00  0.00     0.291 C 
ATOM      3  O   UNL d   1      25.329 -18.269   0.121  0.00  0.00    -0.264 OA
ATOM      4  H   UNL d   1      23.045 -17.468  -2.001  0.00  0.00     0.190 HD
ENDROOT
BRANCH   1   5
ATOM      5  N   UNL d   1      22.645 -18.787  -0.430  0.00  0.00    -0.259 N 
ATOM      6  C   UNL d   1      21.253 -18.707  -0.498  0.00  0.00     0.327 C 
ATOM      7  O   UNL d   1      20.633 -17.910  -1.197  0.00  0.00    -0.261 OA
ATOM      8  H   UNL d   1      23.111 -19.469   0.174  0.00  0.00     0.190 HD
BRANCH   6   9
ATOM      9  C   UNL d   1      20.492 -19.729   0.405  0.00  0.00     0.311 C 
ATOM     10  N   UNL d   1      19.261 -19.316   0.922  0.00  0.00    -0.349 N 
ATOM     11  H   UNL d   1      18.960 -18.367   0.719  0.00  0.00     0.163 HD
ATOM     12  O   UNL d   1      21.000 -20.825   0.605  0.00  0.00    -0.262 OA
BRANCH  10  13
ATOM     13  C   UNL d   1      18.421 -20.181   1.767  0.00  0.00     0.076 C 
ATOM     14  C   UNL d   1      17.965 -21.457   1.045  0.00  0.00     0.032 C 
ATOM     15  C   UNL d   1      19.155 -20.591   3.046  0.00  0.00     0.032 C 
ENDBRANCH  10  13
ENDBRANCH   6   9
ENDBRANCH   1   5
BRANCH   2  16
ATOM     16  C   UNL d   1      25.505 -16.648  -1.625  0.00  0.00     0.156 A 
ATOM     17  C   UNL d   1      24.923 -15.520  -2.258  0.00  0.00     0.080 A 
ATOM     18  C   UNL d   1      25.967 -14.812  -2.799  0.00  0.00     0.114 A 
ATOM     19  O   UNL d   1      27.126 -15.484  -2.547  0.00  0.00    -0.212 OA
ATOM     20  N   UNL d   1      26.843 -16.628  -1.797  0.00  0.00    -0.122 NA
BRANCH  18  21
ATOM     21  C   UNL d   1      26.050 -13.506  -3.430  0.00  0.00    -0.000 A 
ATOM     22  C   UNL d   1      25.875 -13.319  -4.806  0.00  0.00     0.014 A 
ATOM     23  C   UNL d   1      26.005 -12.040  -5.366  0.00  0.00     0.001 A 
ATOM     24  C   UNL d   1      26.239 -10.933  -4.551  0.00  0.00     0.000 A 
ATOM     25  C   UNL d   1      26.370 -11.101  -3.176  0.00  0.00     0.001 A 
ATOM     26  C   UNL d   1      26.279 -12.379  -2.623  0.00  0.00     0.014 A 
ENDBRANCH  18  21
ENDBRANCH   2  16
TORSDOF 5
ENDMDL
MODEL 9
REMARK VINA RESULT:    -6.533     12.193     14.461
REMARK INTER + INTRA:         -10.184
REMARK INTER:                  -8.025
REMARK INTRA:                  -2.159
REMARK CONF_INDEPENDENT:        1.492
REMARK UNBOUND:                -2.159
REMARK  5 active torsions:
REMARK  status: ('A' for Active; 'I' for Inactive)
REMARK    1  A    between atoms: C_2  and  N_4 
REMARK       I    between atoms: N_4  and  C_5 
REMARK    2  A    between atoms: C_5  and  C_7 
REMARK       I    between atoms: C_7  and  N_9 
REMARK    3  A    between atoms: N_9  and  N_10 
REMARK       I    between atoms: N_10  and  C_11 
REMARK    4  A    between atoms: C_11  and  C_13 
REMARK    5  A    between atoms: C_15  and  C_16 
ROOT
ATOM      1  N   UNL d   1      32.801 -21.571   5.212  0.00  0.00    -0.262 N 
ATOM      2  C   UNL d   1      32.315 -20.649   4.278  0.00  0.00     0.291 C 
ATOM      3  O   UNL d   1      32.585 -19.444   4.355  0.00  0.00    -0.264 OA
ATOM      4  H   UNL d   1      32.667 -22.574   5.105  0.00  0.00     0.190 HD
ENDROOT
BRANCH   1   5
ATOM      5  N   UNL d   1      33.615 -21.150   6.307  0.00  0.00    -0.259 N 
ATOM      6  C   UNL d   1      34.085 -22.074   7.240  0.00  0.00     0.327 C 
ATOM      7  O   UNL d   1      33.881 -23.284   7.187  0.00  0.00    -0.261 OA
ATOM      8  H   UNL d   1      33.811 -20.149   6.401  0.00  0.00     0.190 HD
BRANCH   6   9
ATOM      9  C   UNL d   1      34.918 -21.461   8.410  0.00  0.00     0.311 C 
ATOM     10  N   UNL d   1      35.280 -22.326   9.445  0.00  0.00    -0.349 N 
ATOM     11  H   UNL d   1      34.942 -23.284   9.398  0.00  0.00     0.163 HD
ATOM     12  O   UNL d   1      35.213 -20.273   8.358  0.00  0.00    -0.262 OA
BRANCH  10  13
ATOM     13  C   UNL d   1      36.086 -21.895  10.599  0.00  0.00     0.076 C 
ATOM     14  C   UNL d   1      35.383 -20.829  11.452  0.00  0.00     0.032 C 
ATOM     15  C   UNL d   1      36.435 -23.078  11.507  0.00  0.00     0.032 C 
ENDBRANCH  10  13
ENDBRANCH   6   9
ENDBRANCH   1   5
BRANCH   2  16
ATOM     16  C   UNL d   1      31.424 -21.212   3.244  0.00  0.00     0.156 A 
ATOM     17  C   UNL d   1      31.775 -21.525   1.905  0.00  0.00     0.080 A 
ATOM     18  C   UNL d   1      30.662 -22.108   1.352  0.00  0.00     0.114 A 
ATOM     19  O   UNL d   1      29.668 -22.122   2.285  0.00  0.00    -0.212 OA
ATOM     20  N   UNL d   1      30.147 -21.575   3.478  0.00  0.00    -0.122 NA
BRANCH  18  21
ATOM     21  C   UNL d   1      30.428 -22.779   0.084  0.00  0.00    -0.000 A 
ATOM     22  C   UNL d   1      29.655 -23.940  -0.026  0.00  0.00     0.014 A 
ATOM     23  C   UNL d   1      29.496 -24.566  -1.269  0.00  0.00     0.001 A 
ATOM     24  C   UNL d   1      30.046 -24.001  -2.420  0.00  0.00     0.000 A 
ATOM     25  C   UNL d   1      30.779 -22.822  -2.329  0.00  0.00     0.001 A 
ATOM     26  C   UNL d   1      30.970 -22.219  -1.085  0.00  0.00     0.014 A 
ENDBRANCH  18  21
ENDBRANCH   2  16
TORSDOF 5
ENDMDL
