MODEL 1
REMARK VINA RESULT:   -33.257      0.000      0.000
REMARK INTER + INTRA:         -36.845
REMARK INTER:                 -35.643
REMARK INTRA:                  -1.202
REMARK CONF_INDEPENDENT:        2.386
REMARK UNBOUND:                -1.202
REMARK  8 active torsions:
REMARK  status: ('A' for Active; 'I' for Inactive)
REMARK    1  A    between atoms: C_5  and  N_6 
REMARK    2  A    between atoms: N_6  and  C_7 
REMARK    3  A    between atoms: C_7  and  C_8 
REMARK    4  A    between atoms: C_8  and  N_9 
REMARK       I    between atoms: N_9  and  C_10 
REMARK    5  A    between atoms: C_10  and  C_12 
REMARK    6  A    between atoms: C_12  and  N_13 
REMARK       I    between atoms: N_13  and  C_14 
REMARK    7  A    between atoms: C_14  and  C_16 
REMARK    8  A    between atoms: C_19  and  C_20 
ROOT
ATOM      1  C   UNL d   1      27.269 -15.575   0.259  0.00  0.00     0.225 C 
ENDROOT
BRANCH   1   2
ATOM      2  C   UNL d   1      26.350 -16.822   0.219  0.00  0.00     0.235 C 
ATOM      3  N   UNL d   1      25.293 -16.792  -0.683  0.00  0.00    -0.358 N 
ATOM      4  H   UNL d   1      25.165 -15.970  -1.264  0.00  0.00     0.162 HD
ATOM      5  O   UNL d   1      26.541 -17.794   0.951  0.00  0.00    -0.272 OA
BRANCH   3   6
ATOM      6  C   UNL d   1      24.366 -17.930  -0.795  0.00  0.00     0.142 C 
BRANCH   6   7
ATOM      7  C   UNL d   1      22.979 -17.674  -0.172  0.00  0.00     0.141 C 
BRANCH   7   8
ATOM      8  N   UNL d   1      21.846 -18.129  -0.990  0.00  0.00    -0.372 N 
ATOM      9  H   UNL d   1      21.694 -17.709  -1.903  0.00  0.00     0.161 HD
BRANCH   8  10
ATOM     10  C   UNL d   1      20.888 -19.015  -0.520  0.00  0.00     0.143 C 
ATOM     11  C   UNL d   1      21.029 -19.635   0.710  0.00  0.00     0.054 C 
ATOM     12  C   UNL d   1      19.984 -20.364   1.241  0.00  0.00     0.030 C 
ATOM     13  C   UNL d   1      18.853 -20.561   0.468  0.00  0.00     0.024 C 
ATOM     14  C   UNL d   1      17.668 -21.302   1.006  0.00  0.00     0.070 C 
ATOM     15  N   UNL d   1      18.834 -20.070  -0.786  0.00  0.00    -0.281 N 
ATOM     16  N   UNL d   1      19.793 -19.268  -1.270  0.00  0.00    -0.157 NA
ATOM     17  H   UNL d   1      18.051 -20.308  -1.402  0.00  0.00     0.189 HD
ENDBRANCH   8  10
ENDBRANCH   7   8
ENDBRANCH   6   7
ENDBRANCH   3   6
ENDBRANCH   1   2
BRANCH   1  18
ATOM     18  N   UNL d   1      27.724 -15.274   1.621  0.00  0.00    -0.348 N 
ATOM     19  C   UNL d   1      27.384 -14.106   2.279  0.00  0.00     0.252 C 
ATOM     20  O   UNL d   1      26.681 -13.236   1.761  0.00  0.00    -0.268 OA
ATOM     21  H   UNL d   1      28.196 -16.022   2.122  0.00  0.00     0.163 HD
BRANCH  19  22
ATOM     22  C   UNL d   1      27.858 -13.949   3.690  0.00  0.00     0.032 C 
ATOM     23  C   UNL d   1      28.379 -15.026   4.414  0.00  0.00     0.018 C 
ATOM     24  C   UNL d   1      28.672 -14.886   5.782  0.00  0.00     0.013 C 
ATOM     25  C   UNL d   1      28.537 -13.650   6.432  0.00  0.00    -0.026 C 
ATOM     26  C   UNL d   1      28.176 -12.540   5.649  0.00  0.00     0.013 C 
ATOM     27  C   UNL d   1      27.801 -12.692   4.305  0.00  0.00     0.018 C 
BRANCH  25  28
ATOM     28  C   UNL d   1      28.733 -13.514   7.887  0.00  0.00    -0.026 A 
ATOM     29  C   UNL d   1      28.157 -12.438   8.586  0.00  0.00     0.012 A 
ATOM     30  C   UNL d   1      28.462 -12.201   9.928  0.00  0.00     0.001 A 
ATOM     31  C   UNL d   1      29.254 -13.104  10.628  0.00  0.00     0.000 A 
ATOM     32  C   UNL d   1      29.719 -14.253   9.991  0.00  0.00     0.001 A 
ATOM     33  C   UNL d   1      29.499 -14.433   8.621  0.00  0.00     0.012 A 
ENDBRANCH  25  28
ENDBRANCH  19  22
ENDBRANCH   1  18
TORSDOF 8
ENDMDL
MODEL 2
REMARK VINA RESULT:   -32.730      1.014      1.388
REMARK INTER + INTRA:         -36.918
REMARK INTER:                 -35.116
REMARK INTRA:                  -1.802
REMARK CONF_INDEPENDENT:        2.386
REMARK UNBOUND:                -1.802
REMARK  8 active torsions:
REMARK  status: ('A' for Active; 'I' for Inactive)
REMARK    1  A    between atoms: C_5  and  N_6 
REMARK    2  A    between atoms: N_6  and  C_7 
REMARK    3  A    between atoms: C_7  and  C_8 
REMARK    4  A    between atoms: C_8  and  N_9 
REMARK       I    between atoms: N_9  and  C_10 
REMARK    5  A    between atoms: C_10  and  C_12 
REMARK    6  A    between atoms: C_12  and  N_13 
REMARK       I    between atoms: N_13  and  C_14 
REMARK    7  A    between atoms: C_14  and  C_16 
REMARK    8  A    between atoms: C_19  and  C_20 
ROOT
ATOM      1  C   UNL d   1      27.834 -16.290  -0.368  0.00  0.00     0.225 C 
ENDROOT
BRANCH   1   2
ATOM      2  C   UNL d   1      26.674 -17.311  -0.249  0.00  0.00     0.235 C 
ATOM      3  N   UNL d   1      25.431 -16.805   0.117  0.00  0.00    -0.358 N 
ATOM      4  H   UNL d   1      25.336 -15.811   0.292  0.00  0.00     0.162 HD
ATOM      5  O   UNL d   1      26.840 -18.512  -0.463  0.00  0.00    -0.272 OA
BRANCH   3   6
ATOM      6  C   UNL d   1      24.268 -17.696   0.256  0.00  0.00     0.142 C 
BRANCH   6   7
ATOM      7  C   UNL d   1      23.530 -17.979  -1.069  0.00  0.00     0.141 C 
BRANCH   7   8
ATOM      8  N   UNL d   1      22.089 -17.692  -1.040  0.00  0.00    -0.372 N 
ATOM      9  H   UNL d   1      21.770 -16.740  -1.194  0.00  0.00     0.161 HD
BRANCH   8  10
ATOM     10  C   UNL d   1      21.143 -18.639  -0.677  0.00  0.00     0.143 C 
ATOM     11  C   UNL d   1      21.443 -19.641   0.230  0.00  0.00     0.054 C 
ATOM     12  C   UNL d   1      20.441 -20.456   0.717  0.00  0.00     0.030 C 
ATOM     13  C   UNL d   1      19.168 -20.330   0.189  0.00  0.00     0.024 C 
ATOM     14  C   UNL d   1      18.030 -21.152   0.709  0.00  0.00     0.070 C 
ATOM     15  N   UNL d   1      18.966 -19.447  -0.809  0.00  0.00    -0.281 N 
ATOM     16  N   UNL d   1      19.903 -18.575  -1.210  0.00  0.00    -0.157 NA
ATOM     17  H   UNL d   1      18.058 -19.429  -1.282  0.00  0.00     0.189 HD
ENDBRANCH   8  10
ENDBRANCH   7   8
ENDBRANCH   6   7
ENDBRANCH   3   6
ENDBRANCH   1   2
BRANCH   1  18
ATOM     18  N   UNL d   1      28.216 -15.740   0.937  0.00  0.00    -0.348 N 
ATOM     19  C   UNL d   1      27.541 -14.687   1.528  0.00  0.00     0.252 C 
ATOM     20  O   UNL d   1      26.578 -14.135   0.992  0.00  0.00    -0.268 OA
ATOM     21  H   UNL d   1      28.921 -16.252   1.461  0.00  0.00     0.163 HD
BRANCH  19  22
ATOM     22  C   UNL d   1      27.990 -14.262   2.891  0.00  0.00     0.032 C 
ATOM     23  C   UNL d   1      29.345 -14.122   3.208  0.00  0.00     0.018 C 
ATOM     24  C   UNL d   1      29.741 -13.873   4.534  0.00  0.00     0.013 C 
ATOM     25  C   UNL d   1      28.795 -13.670   5.550  0.00  0.00    -0.026 C 
ATOM     26  C   UNL d   1      27.439 -13.644   5.180  0.00  0.00     0.013 C 
ATOM     27  C   UNL d   1      27.036 -13.977   3.877  0.00  0.00     0.018 C 
BRANCH  25  28
ATOM     28  C   UNL d   1      29.195 -13.519   6.961  0.00  0.00    -0.026 A 
ATOM     29  C   UNL d   1      30.405 -14.070   7.421  0.00  0.00     0.012 A 
ATOM     30  C   UNL d   1      30.724 -14.079   8.781  0.00  0.00     0.001 A 
ATOM     31  C   UNL d   1      29.896 -13.430   9.691  0.00  0.00     0.000 A 
ATOM     32  C   UNL d   1      28.766 -12.755   9.237  0.00  0.00     0.001 A 
ATOM     33  C   UNL d   1      28.393 -12.838   7.890  0.00  0.00     0.012 A 
ENDBRANCH  25  28
ENDBRANCH  19  22
ENDBRANCH   1  18
TORSDOF 8
ENDMDL
MODEL 3
REMARK VINA RESULT:   -32.503      1.225      1.798
REMARK INTER + INTRA:         -36.694
REMARK INTER:                 -34.889
REMARK INTRA:                  -1.805
REMARK CONF_INDEPENDENT:        2.386
REMARK UNBOUND:                -1.805
REMARK  8 active torsions:
REMARK  status: ('A' for Active; 'I' for Inactive)
REMARK    1  A    between atoms: C_5  and  N_6 
REMARK    2  A    between atoms: N_6  and  C_7 
REMARK    3  A    between atoms: C_7  and  C_8 
REMARK    4  A    between atoms: C_8  and  N_9 
REMARK       I    between atoms: N_9  and  C_10 
REMARK    5  A    between atoms: C_10  and  C_12 
REMARK    6  A    between atoms: C_12  and  N_13 
REMARK       I    between atoms: N_13  and  C_14 
REMARK    7  A    between atoms: C_14  and  C_16 
REMARK    8  A    between atoms: C_19  and  C_20 
ROOT
ATOM      1  C   UNL d   1      27.582 -16.726  -0.378  0.00  0.00     0.225 C 
ENDROOT
BRANCH   1   2
ATOM      2  C   UNL d   1      26.306 -17.547  -0.063  0.00  0.00     0.235 C 
ATOM      3  N   UNL d   1      25.098 -16.861  -0.089  0.00  0.00    -0.358 N 
ATOM      4  H   UNL d   1      25.100 -15.869  -0.304  0.00  0.00     0.162 HD
ATOM      5  O   UNL d   1      26.356 -18.749   0.201  0.00  0.00    -0.272 OA
BRANCH   3   6
ATOM      6  C   UNL d   1      23.832 -17.555   0.196  0.00  0.00     0.142 C 
BRANCH   6   7
ATOM      7  C   UNL d   1      23.234 -18.296  -1.017  0.00  0.00     0.141 C 
BRANCH   7   8
ATOM      8  N   UNL d   1      21.781 -18.140  -1.175  0.00  0.00    -0.372 N 
ATOM      9  H   UNL d   1      21.419 -17.304  -1.624  0.00  0.00     0.161 HD
BRANCH   8  10
ATOM     10  C   UNL d   1      20.867 -19.022  -0.618  0.00  0.00     0.143 C 
ATOM     11  C   UNL d   1      21.112 -19.633   0.600  0.00  0.00     0.054 C 
ATOM     12  C   UNL d   1      20.115 -20.357   1.223  0.00  0.00     0.030 C 
ATOM     13  C   UNL d   1      18.923 -20.558   0.551  0.00  0.00     0.024 C 
ATOM     14  C   UNL d   1      17.788 -21.294   1.194  0.00  0.00     0.070 C 
ATOM     15  N   UNL d   1      18.796 -20.077  -0.700  0.00  0.00    -0.281 N 
ATOM     16  N   UNL d   1      19.711 -19.279  -1.270  0.00  0.00    -0.157 NA
ATOM     17  H   UNL d   1      17.964 -20.318  -1.246  0.00  0.00     0.189 HD
ENDBRANCH   8  10
ENDBRANCH   7   8
ENDBRANCH   6   7
ENDBRANCH   3   6
ENDBRANCH   1   2
BRANCH   1  18
ATOM     18  N   UNL d   1      28.024 -15.936   0.777  0.00  0.00    -0.348 N 
ATOM     19  C   UNL d   1      27.376 -14.784   1.182  0.00  0.00     0.252 C 
ATOM     20  O   UNL d   1      26.388 -14.339   0.595  0.00  0.00    -0.268 OA
ATOM     21  H   UNL d   1      28.754 -16.341   1.356  0.00  0.00     0.163 HD
BRANCH  19  22
ATOM     22  C   UNL d   1      27.886 -14.106   2.415  0.00  0.00     0.032 C 
ATOM     23  C   UNL d   1      28.212 -14.827   3.569  0.00  0.00     0.018 C 
ATOM     24  C   UNL d   1      28.540 -14.152   4.758  0.00  0.00     0.013 C 
ATOM     25  C   UNL d   1      28.637 -12.754   4.798  0.00  0.00    -0.026 C 
ATOM     26  C   UNL d   1      28.474 -12.056   3.588  0.00  0.00     0.013 C 
ATOM     27  C   UNL d   1      28.063 -12.716   2.420  0.00  0.00     0.018 C 
BRANCH  25  28
ATOM     28  C   UNL d   1      28.870 -12.029   6.061  0.00  0.00    -0.026 A 
ATOM     29  C   UNL d   1      28.503 -12.605   7.290  0.00  0.00     0.012 A 
ATOM     30  C   UNL d   1      28.566 -11.874   8.479  0.00  0.00     0.001 A 
ATOM     31  C   UNL d   1      29.110 -10.595   8.477  0.00  0.00     0.000 A 
ATOM     32  C   UNL d   1      29.611 -10.059   7.293  0.00  0.00     0.001 A 
ATOM     33  C   UNL d   1      29.450 -10.751   6.087  0.00  0.00     0.012 A 
ENDBRANCH  25  28
ENDBRANCH  19  22
ENDBRANCH   1  18
TORSDOF 8
ENDMDL
MODEL 4
REMARK VINA RESULT:   -32.133      5.659      8.843
REMARK INTER + INTRA:         -36.000
REMARK INTER:                 -34.520
REMARK INTRA:                  -1.480
REMARK CONF_INDEPENDENT:        2.386
REMARK UNBOUND:                -1.480
REMARK  8 active torsions:
REMARK  status: ('A' for Active; 'I' for Inactive)
REMARK    1  A    between atoms: C_5  and  N_6 
REMARK    2  A    between atoms: N_6  and  C_7 
REMARK    3  A    between atoms: C_7  and  C_8 
REMARK    4  A    between atoms: C_8  and  N_9 
REMARK       I    between atoms: N_9  and  C_10 
REMARK    5  A    between atoms: C_10  and  C_12 
REMARK    6  A    between atoms: C_12  and  N_13 
REMARK       I    between atoms: N_13  and  C_14 
REMARK    7  A    between atoms: C_14  and  C_16 
REMARK    8  A    between atoms: C_19  and  C_20 
ROOT
ATOM      1  C   UNL d   1      27.446 -17.282  -0.032  0.00  0.00     0.225 C 
ENDROOT
BRANCH   1   2
ATOM      2  C   UNL d   1      26.092 -17.990   0.231  0.00  0.00     0.235 C 
ATOM      3  N   UNL d   1      25.163 -17.966  -0.803  0.00  0.00    -0.358 N 
ATOM      4  H   UNL d   1      25.401 -17.492  -1.668  0.00  0.00     0.162 HD
ATOM      5  O   UNL d   1      25.846 -18.545   1.302  0.00  0.00    -0.272 OA
BRANCH   3   6
ATOM      6  C   UNL d   1      23.849 -18.611  -0.649  0.00  0.00     0.142 C 
BRANCH   6   7
ATOM      7  C   UNL d   1      22.713 -17.640  -0.266  0.00  0.00     0.141 C 
BRANCH   7   8
ATOM      8  N   UNL d   1      21.418 -17.935  -0.894  0.00  0.00    -0.372 N 
ATOM      9  H   UNL d   1      21.078 -17.330  -1.636  0.00  0.00     0.161 HD
BRANCH   8  10
ATOM     10  C   UNL d   1      20.567 -18.926  -0.429  0.00  0.00     0.143 C 
ATOM     11  C   UNL d   1      20.754 -19.506   0.814  0.00  0.00     0.054 C 
ATOM     12  C   UNL d   1      19.795 -20.352   1.333  0.00  0.00     0.030 C 
ATOM     13  C   UNL d   1      18.717 -20.700   0.539  0.00  0.00     0.024 C 
ATOM     14  C   UNL d   1      17.621 -21.575   1.064  0.00  0.00     0.070 C 
ATOM     15  N   UNL d   1      18.667 -20.234  -0.723  0.00  0.00    -0.281 N 
ATOM     16  N   UNL d   1      19.530 -19.325  -1.199  0.00  0.00    -0.157 NA
ATOM     17  H   UNL d   1      17.935 -20.577  -1.352  0.00  0.00     0.189 HD
ENDBRANCH   8  10
ENDBRANCH   7   8
ENDBRANCH   6   7
ENDBRANCH   3   6
ENDBRANCH   1   2
BRANCH   1  18
ATOM     18  N   UNL d   1      27.403 -16.449  -1.239  0.00  0.00    -0.348 N 
ATOM     19  C   UNL d   1      26.381 -15.552  -1.488  0.00  0.00     0.252 C 
ATOM     20  O   UNL d   1      25.432 -15.399  -0.716  0.00  0.00    -0.268 OA
ATOM     21  H   UNL d   1      28.229 -16.458  -1.831  0.00  0.00     0.163 HD
BRANCH  19  22
ATOM     22  C   UNL d   1      26.487 -14.714  -2.724  0.00  0.00     0.032 C 
ATOM     23  C   UNL d   1      26.556 -15.290  -3.997  0.00  0.00     0.018 C 
ATOM     24  C   UNL d   1      26.811 -14.489  -5.125  0.00  0.00     0.013 C 
ATOM     25  C   UNL d   1      26.913 -13.094  -5.018  0.00  0.00    -0.026 C 
ATOM     26  C   UNL d   1      26.670 -12.519  -3.759  0.00  0.00     0.013 C 
ATOM     27  C   UNL d   1      26.501 -13.318  -2.617  0.00  0.00     0.018 C 
BRANCH  25  28
ATOM     28  C   UNL d   1      27.289 -12.254  -6.170  0.00  0.00    -0.026 A 
ATOM     29  C   UNL d   1      26.503 -11.143  -6.527  0.00  0.00     0.012 A 
ATOM     30  C   UNL d   1      26.748 -10.433  -7.705  0.00  0.00     0.001 A 
ATOM     31  C   UNL d   1      27.855 -10.747  -8.486  0.00  0.00     0.000 A 
ATOM     32  C   UNL d   1      28.726 -11.753  -8.075  0.00  0.00     0.001 A 
ATOM     33  C   UNL d   1      28.421 -12.531  -6.952  0.00  0.00     0.012 A 
ENDBRANCH  25  28
ENDBRANCH  19  22
ENDBRANCH   1  18
TORSDOF 8
ENDMDL
MODEL 5
REMARK VINA RESULT:   -32.133      5.609      8.320
REMARK INTER + INTRA:         -36.030
REMARK INTER:                 -34.519
REMARK INTRA:                  -1.511
REMARK CONF_INDEPENDENT:        2.386
REMARK UNBOUND:                -1.511
REMARK  8 active torsions:
REMARK  status: ('A' for Active; 'I' for Inactive)
REMARK    1  A    between atoms: C_5  and  N_6 
REMARK    2  A    between atoms: N_6  and  C_7 
REMARK    3  A    between atoms: C_7  and  C_8 
REMARK    4  A    between atoms: C_8  and  N_9 
REMARK       I    between atoms: N_9  and  C_10 
REMARK    5  A    between atoms: C_10  and  C_12 
REMARK    6  A    between atoms: C_12  and  N_13 
REMARK       I    between atoms: N_13  and  C_14 
REMARK    7  A    between atoms: C_14  and  C_16 
REMARK    8  A    between atoms: C_19  and  C_20 
ROOT
ATOM      1  C   UNL d   1      27.798 -17.020  -0.040  0.00  0.00     0.225 C 
ENDROOT
BRANCH   1   2
ATOM      2  C   UNL d   1      26.544 -17.868   0.294  0.00  0.00     0.235 C 
ATOM      3  N   UNL d   1      25.309 -17.304  -0.006  0.00  0.00    -0.358 N 
ATOM      4  H   UNL d   1      25.278 -16.377  -0.418  0.00  0.00     0.162 HD
ATOM      5  O   UNL d   1      26.632 -18.986   0.803  0.00  0.00    -0.272 OA
BRANCH   3   6
ATOM      6  C   UNL d   1      24.061 -18.032   0.274  0.00  0.00     0.142 C 
BRANCH   6   7
ATOM      7  C   UNL d   1      23.275 -18.440  -0.988  0.00  0.00     0.141 C 
BRANCH   7   8
ATOM      8  N   UNL d   1      21.841 -18.122  -0.946  0.00  0.00    -0.372 N 
ATOM      9  H   UNL d   1      21.538 -17.174  -1.150  0.00  0.00     0.161 HD
BRANCH   8  10
ATOM     10  C   UNL d   1      20.884 -19.026  -0.508  0.00  0.00     0.143 C 
ATOM     11  C   UNL d   1      21.025 -19.687   0.700  0.00  0.00     0.054 C 
ATOM     12  C   UNL d   1      19.980 -20.436   1.203  0.00  0.00     0.030 C 
ATOM     13  C   UNL d   1      18.851 -20.609   0.423  0.00  0.00     0.024 C 
ATOM     14  C   UNL d   1      17.667 -21.370   0.933  0.00  0.00     0.070 C 
ATOM     15  N   UNL d   1      18.832 -20.076  -0.814  0.00  0.00    -0.281 N 
ATOM     16  N   UNL d   1      19.791 -19.255  -1.268  0.00  0.00    -0.157 NA
ATOM     17  H   UNL d   1      18.051 -20.294  -1.439  0.00  0.00     0.189 HD
ENDBRANCH   8  10
ENDBRANCH   7   8
ENDBRANCH   6   7
ENDBRANCH   3   6
ENDBRANCH   1   2
BRANCH   1  18
ATOM     18  N   UNL d   1      27.454 -15.804  -0.785  0.00  0.00    -0.348 N 
ATOM     19  C   UNL d   1      26.663 -15.825  -1.920  0.00  0.00     0.252 C 
ATOM     20  O   UNL d   1      26.202 -16.869  -2.386  0.00  0.00    -0.268 OA
ATOM     21  H   UNL d   1      27.710 -14.918  -0.359  0.00  0.00     0.163 HD
BRANCH  19  22
ATOM     22  C   UNL d   1      26.331 -14.508  -2.550  0.00  0.00     0.032 C 
ATOM     23  C   UNL d   1      25.291 -14.381  -3.478  0.00  0.00     0.018 C 
ATOM     24  C   UNL d   1      25.102 -13.170  -4.168  0.00  0.00     0.013 C 
ATOM     25  C   UNL d   1      25.885 -12.041  -3.884  0.00  0.00    -0.026 C 
ATOM     26  C   UNL d   1      26.809 -12.138  -2.830  0.00  0.00     0.013 C 
ATOM     27  C   UNL d   1      27.061 -13.366  -2.198  0.00  0.00     0.018 C 
BRANCH  25  28
ATOM     28  C   UNL d   1      25.771 -10.801  -4.675  0.00  0.00    -0.026 A 
ATOM     29  C   UNL d   1      25.981 -10.824  -6.067  0.00  0.00     0.012 A 
ATOM     30  C   UNL d   1      26.038  -9.641  -6.808  0.00  0.00     0.001 A 
ATOM     31  C   UNL d   1      25.768  -8.424  -6.192  0.00  0.00     0.000 A 
ATOM     32  C   UNL d   1      25.418  -8.395  -4.844  0.00  0.00     0.001 A 
ATOM     33  C   UNL d   1      25.465  -9.568  -4.082  0.00  0.00     0.012 A 
ENDBRANCH  25  28
ENDBRANCH  19  22
ENDBRANCH   1  18
TORSDOF 8
ENDMDL
MODEL 6
REMARK VINA RESULT:   -31.847      5.433      9.611
REMARK INTER + INTRA:         -36.039
REMARK INTER:                 -34.234
REMARK INTRA:                  -1.806
REMARK CONF_INDEPENDENT:        2.386
REMARK UNBOUND:                -1.806
REMARK  8 active torsions:
REMARK  status: ('A' for Active; 'I' for Inactive)
REMARK    1  A    between atoms: C_5  and  N_6 
REMARK    2  A    between atoms: N_6  and  C_7 
REMARK    3  A    between atoms: C_7  and  C_8 
REMARK    4  A    between atoms: C_8  and  N_9 
REMARK       I    between atoms: N_9  and  C_10 
REMARK    5  A    between atoms: C_10  and  C_12 
REMARK    6  A    between atoms: C_12  and  N_13 
REMARK       I    between atoms: N_13  and  C_14 
REMARK    7  A    between atoms: C_14  and  C_16 
REMARK    8  A    between atoms: C_19  and  C_20 
ROOT
ATOM      1  C   UNL d   1      27.271 -16.627   0.108  0.00  0.00     0.225 C 
ENDROOT
BRANCH   1   2
ATOM      2  C   UNL d   1      26.009 -17.525   0.053  0.00  0.00     0.235 C 
ATOM      3  N   UNL d   1      25.201 -17.400  -1.071  0.00  0.00    -0.358 N 
ATOM      4  H   UNL d   1      25.461 -16.736  -1.793  0.00  0.00     0.162 HD
ATOM      5  O   UNL d   1      25.730 -18.310   0.960  0.00  0.00    -0.272 OA
BRANCH   3   6
ATOM      6  C   UNL d   1      23.980 -18.210  -1.214  0.00  0.00     0.142 C 
BRANCH   6   7
ATOM      7  C   UNL d   1      22.799 -17.725  -0.350  0.00  0.00     0.141 C 
BRANCH   7   8
ATOM      8  N   UNL d   1      21.472 -17.964  -0.936  0.00  0.00    -0.372 N 
ATOM      9  H   UNL d   1      21.121 -17.324  -1.643  0.00  0.00     0.161 HD
BRANCH   8  10
ATOM     10  C   UNL d   1      20.614 -18.950  -0.473  0.00  0.00     0.143 C 
ATOM     11  C   UNL d   1      20.831 -19.576   0.743  0.00  0.00     0.054 C 
ATOM     12  C   UNL d   1      19.870 -20.415   1.269  0.00  0.00     0.030 C 
ATOM     13  C   UNL d   1      18.755 -20.709   0.506  0.00  0.00     0.024 C 
ATOM     14  C   UNL d   1      17.657 -21.575   1.041  0.00  0.00     0.070 C 
ATOM     15  N   UNL d   1      18.671 -20.200  -0.738  0.00  0.00    -0.281 N 
ATOM     16  N   UNL d   1      19.540 -19.296  -1.216  0.00  0.00    -0.157 NA
ATOM     17  H   UNL d   1      17.908 -20.502  -1.351  0.00  0.00     0.189 HD
ENDBRANCH   8  10
ENDBRANCH   7   8
ENDBRANCH   6   7
ENDBRANCH   3   6
ENDBRANCH   1   2
BRANCH   1  18
ATOM     18  N   UNL d   1      28.075 -16.738  -1.114  0.00  0.00    -0.348 N 
ATOM     19  C   UNL d   1      27.810 -15.994  -2.249  0.00  0.00     0.252 C 
ATOM     20  O   UNL d   1      26.875 -15.193  -2.312  0.00  0.00    -0.268 OA
ATOM     21  H   UNL d   1      28.925 -17.292  -1.054  0.00  0.00     0.163 HD
BRANCH  19  22
ATOM     22  C   UNL d   1      28.744 -16.152  -3.408  0.00  0.00     0.032 C 
ATOM     23  C   UNL d   1      28.610 -15.382  -4.569  0.00  0.00     0.018 C 
ATOM     24  C   UNL d   1      29.402 -15.658  -5.698  0.00  0.00     0.013 C 
ATOM     25  C   UNL d   1      30.400 -16.643  -5.663  0.00  0.00    -0.026 C 
ATOM     26  C   UNL d   1      30.635 -17.288  -4.436  0.00  0.00     0.013 C 
ATOM     27  C   UNL d   1      29.793 -17.078  -3.333  0.00  0.00     0.018 C 
BRANCH  25  28
ATOM     28  C   UNL d   1      31.161 -17.018  -6.870  0.00  0.00    -0.026 A 
ATOM     29  C   UNL d   1      31.211 -18.360  -7.291  0.00  0.00     0.012 A 
ATOM     30  C   UNL d   1      32.052 -18.760  -8.332  0.00  0.00     0.001 A 
ATOM     31  C   UNL d   1      32.769 -17.807  -9.048  0.00  0.00     0.000 A 
ATOM     32  C   UNL d   1      32.623 -16.457  -8.738  0.00  0.00     0.001 A 
ATOM     33  C   UNL d   1      31.862 -16.070  -7.629  0.00  0.00     0.012 A 
ENDBRANCH  25  28
ENDBRANCH  19  22
ENDBRANCH   1  18
TORSDOF 8
ENDMDL
MODEL 7
REMARK VINA RESULT:   -31.691      6.512      9.849
REMARK INTER + INTRA:         -35.828
REMARK INTER:                 -34.078
REMARK INTRA:                  -1.750
REMARK CONF_INDEPENDENT:        2.386
REMARK UNBOUND:                -1.750
REMARK  8 active torsions:
REMARK  status: ('A' for Active; 'I' for Inactive)
REMARK    1  A    between atoms: C_5  and  N_6 
REMARK    2  A    between atoms: N_6  and  C_7 
REMARK    3  A    between atoms: C_7  and  C_8 
REMARK    4  A    between atoms: C_8  and  N_9 
REMARK       I    between atoms: N_9  and  C_10 
REMARK    5  A    between atoms: C_10  and  C_12 
REMARK    6  A    between atoms: C_12  and  N_13 
REMARK       I    between atoms: N_13  and  C_14 
REMARK    7  A    between atoms: C_14  and  C_16 
REMARK    8  A    between atoms: C_19  and  C_20 
ROOT
ATOM      1  C   UNL d   1      25.628 -14.592  -1.699  0.00  0.00     0.225 C 
ENDROOT
BRANCH   1   2
ATOM      2  C   UNL d   1      24.766 -15.842  -1.388  0.00  0.00     0.235 C 
ATOM      3  N   UNL d   1      25.411 -16.911  -0.777  0.00  0.00    -0.358 N 
ATOM      4  H   UNL d   1      26.401 -16.834  -0.568  0.00  0.00     0.162 HD
ATOM      5  O   UNL d   1      23.568 -15.891  -1.668  0.00  0.00    -0.272 OA
BRANCH   3   6
ATOM      6  C   UNL d   1      24.677 -18.141  -0.441  0.00  0.00     0.142 C 
BRANCH   6   7
ATOM      7  C   UNL d   1      23.302 -17.894   0.212  0.00  0.00     0.141 C 
BRANCH   7   8
ATOM      8  N   UNL d   1      22.159 -18.021  -0.703  0.00  0.00    -0.372 N 
ATOM      9  H   UNL d   1      22.079 -17.379  -1.487  0.00  0.00     0.161 HD
BRANCH   8  10
ATOM     10  C   UNL d   1      21.104 -18.891  -0.471  0.00  0.00     0.143 C 
ATOM     11  C   UNL d   1      21.291 -20.072   0.228  0.00  0.00     0.054 C 
ATOM     12  C   UNL d   1      20.201 -20.830   0.608  0.00  0.00     0.030 C 
ATOM     13  C   UNL d   1      18.945 -20.450   0.171  0.00  0.00     0.024 C 
ATOM     14  C   UNL d   1      17.720 -21.205   0.589  0.00  0.00     0.070 C 
ATOM     15  N   UNL d   1      18.838 -19.382  -0.642  0.00  0.00    -0.281 N 
ATOM     16  N   UNL d   1      19.871 -18.575  -0.925  0.00  0.00    -0.157 NA
ATOM     17  H   UNL d   1      17.929 -19.163  -1.061  0.00  0.00     0.189 HD
ENDBRANCH   8  10
ENDBRANCH   7   8
ENDBRANCH   6   7
ENDBRANCH   3   6
ENDBRANCH   1   2
BRANCH   1  18
ATOM     18  N   UNL d   1      26.772 -14.917  -2.558  0.00  0.00    -0.348 N 
ATOM     19  C   UNL d   1      26.633 -15.210  -3.903  0.00  0.00     0.252 C 
ATOM     20  O   UNL d   1      25.538 -15.225  -4.468  0.00  0.00    -0.268 OA
ATOM     21  H   UNL d   1      27.697 -14.790  -2.157  0.00  0.00     0.163 HD
BRANCH  19  22
ATOM     22  C   UNL d   1      27.885 -15.460  -4.685  0.00  0.00     0.032 C 
ATOM     23  C   UNL d   1      28.101 -14.870  -5.934  0.00  0.00     0.018 C 
ATOM     24  C   UNL d   1      29.211 -15.243  -6.713  0.00  0.00     0.013 C 
ATOM     25  C   UNL d   1      30.172 -16.142  -6.226  0.00  0.00    -0.026 C 
ATOM     26  C   UNL d   1      30.028 -16.593  -4.902  0.00  0.00     0.013 C 
ATOM     27  C   UNL d   1      28.880 -16.291  -4.154  0.00  0.00     0.018 C 
BRANCH  25  28
ATOM     28  C   UNL d   1      31.278 -16.626  -7.072  0.00  0.00    -0.026 A 
ATOM     29  C   UNL d   1      32.498 -15.926  -7.117  0.00  0.00     0.012 A 
ATOM     30  C   UNL d   1      33.498 -16.274  -8.029  0.00  0.00     0.001 A 
ATOM     31  C   UNL d   1      33.343 -17.400  -8.830  0.00  0.00     0.000 A 
ATOM     32  C   UNL d   1      32.203 -18.189  -8.699  0.00  0.00     0.001 A 
ATOM     33  C   UNL d   1      31.159 -17.780  -7.861  0.00  0.00     0.012 A 
ENDBRANCH  25  28
ENDBRANCH  19  22
ENDBRANCH   1  18
TORSDOF 8
ENDMDL
MODEL 8
REMARK VINA RESULT:   -31.373      6.102      8.665
REMARK INTER + INTRA:         -35.569
REMARK INTER:                 -33.760
REMARK INTRA:                  -1.809
REMARK CONF_INDEPENDENT:        2.386
REMARK UNBOUND:                -1.809
REMARK  8 active torsions:
REMARK  status: ('A' for Active; 'I' for Inactive)
REMARK    1  A    between atoms: C_5  and  N_6 
REMARK    2  A    between atoms: N_6  and  C_7 
REMARK    3  A    between atoms: C_7  and  C_8 
REMARK    4  A    between atoms: C_8  and  N_9 
REMARK       I    between atoms: N_9  and  C_10 
REMARK    5  A    between atoms: C_10  and  C_12 
REMARK    6  A    between atoms: C_12  and  N_13 
REMARK       I    between atoms: N_13  and  C_14 
REMARK    7  A    between atoms: C_14  and  C_16 
REMARK    8  A    between atoms: C_19  and  C_20 
ROOT
ATOM      1  C   UNL d   1      27.309 -16.519  -1.518  0.00  0.00     0.225 C 
ENDROOT
BRANCH   1   2
ATOM      2  C   UNL d   1      26.092 -16.900  -0.637  0.00  0.00     0.235 C 
ATOM      3  N   UNL d   1      24.841 -16.495  -1.089  0.00  0.00    -0.358 N 
ATOM      4  H   UNL d   1      24.777 -15.972  -1.956  0.00  0.00     0.162 HD
ATOM      5  O   UNL d   1      26.221 -17.530   0.413  0.00  0.00    -0.272 OA
BRANCH   3   6
ATOM      6  C   UNL d   1      23.625 -16.810  -0.322  0.00  0.00     0.142 C 
BRANCH   6   7
ATOM      7  C   UNL d   1      23.169 -18.278  -0.443  0.00  0.00     0.141 C 
BRANCH   7   8
ATOM      8  N   UNL d   1      21.892 -18.467  -1.146  0.00  0.00    -0.372 N 
ATOM      9  H   UNL d   1      21.685 -17.893  -1.959  0.00  0.00     0.161 HD
BRANCH   8  10
ATOM     10  C   UNL d   1      20.890 -19.301  -0.673  0.00  0.00     0.143 C 
ATOM     11  C   UNL d   1      21.114 -20.155   0.393  0.00  0.00     0.054 C 
ATOM     12  C   UNL d   1      20.059 -20.837   0.965  0.00  0.00     0.030 C 
ATOM     13  C   UNL d   1      18.811 -20.744   0.376  0.00  0.00     0.024 C 
ATOM     14  C   UNL d   1      17.619 -21.423   0.977  0.00  0.00     0.070 C 
ATOM     15  N   UNL d   1      18.683 -20.026  -0.757  0.00  0.00    -0.281 N 
ATOM     16  N   UNL d   1      19.672 -19.271  -1.256  0.00  0.00    -0.157 NA
ATOM     17  H   UNL d   1      17.792 -20.045  -1.261  0.00  0.00     0.189 HD
ENDBRANCH   8  10
ENDBRANCH   7   8
ENDBRANCH   6   7
ENDBRANCH   3   6
ENDBRANCH   1   2
BRANCH   1  18
ATOM     18  N   UNL d   1      27.191 -15.159  -2.055  0.00  0.00    -0.348 N 
ATOM     19  C   UNL d   1      26.408 -14.859  -3.155  0.00  0.00     0.252 C 
ATOM     20  O   UNL d   1      25.764 -15.716  -3.763  0.00  0.00    -0.268 OA
ATOM     21  H   UNL d   1      27.605 -14.412  -1.505  0.00  0.00     0.163 HD
BRANCH  19  22
ATOM     22  C   UNL d   1      26.320 -13.421  -3.565  0.00  0.00     0.032 C 
ATOM     23  C   UNL d   1      26.350 -12.387  -2.623  0.00  0.00     0.018 C 
ATOM     24  C   UNL d   1      26.110 -11.060  -3.021  0.00  0.00     0.013 C 
ATOM     25  C   UNL d   1      25.926 -10.727  -4.371  0.00  0.00    -0.026 C 
ATOM     26  C   UNL d   1      26.071 -11.754  -5.320  0.00  0.00     0.013 C 
ATOM     27  C   UNL d   1      26.224 -13.092  -4.922  0.00  0.00     0.018 C 
BRANCH  25  28
ATOM     28  C   UNL d   1      25.565  -9.360  -4.790  0.00  0.00    -0.026 A 
ATOM     29  C   UNL d   1      25.692  -8.284  -3.892  0.00  0.00     0.012 A 
ATOM     30  C   UNL d   1      25.206  -7.014  -4.212  0.00  0.00     0.001 A 
ATOM     31  C   UNL d   1      24.693  -6.768  -5.481  0.00  0.00     0.000 A 
ATOM     32  C   UNL d   1      24.690  -7.785  -6.433  0.00  0.00     0.001 A 
ATOM     33  C   UNL d   1      25.079  -9.081  -6.076  0.00  0.00     0.012 A 
ENDBRANCH  25  28
ENDBRANCH  19  22
ENDBRANCH   1  18
TORSDOF 8
ENDMDL
MODEL 9
REMARK VINA RESULT:   -31.323      2.824      3.600
REMARK INTER + INTRA:         -35.501
REMARK INTER:                 -33.710
REMARK INTRA:                  -1.791
REMARK CONF_INDEPENDENT:        2.386
REMARK UNBOUND:                -1.791
REMARK  8 active torsions:
REMARK  status: ('A' for Active; 'I' for Inactive)
REMARK    1  A    between atoms: C_5  and  N_6 
REMARK    2  A    between atoms: N_6  and  C_7 
REMARK    3  A    between atoms: C_7  and  C_8 
REMARK    4  A    between atoms: C_8  and  N_9 
REMARK       I    between atoms: N_9  and  C_10 
REMARK    5  A    between atoms: C_10  and  C_12 
REMARK    6  A    between atoms: C_12  and  N_13 
REMARK       I    between atoms: N_13  and  C_14 
REMARK    7  A    between atoms: C_14  and  C_16 
REMARK    8  A    between atoms: C_19  and  C_20 
ROOT
ATOM      1  C   UNL d   1      27.903 -17.008  -0.178  0.00  0.00     0.225 C 
ENDROOT
BRANCH   1   2
ATOM      2  C   UNL d   1      26.670 -17.851   0.236  0.00  0.00     0.235 C 
ATOM      3  N   UNL d   1      25.428 -17.392  -0.188  0.00  0.00    -0.358 N 
ATOM      4  H   UNL d   1      25.379 -16.540  -0.736  0.00  0.00     0.162 HD
ATOM      5  O   UNL d   1      26.780 -18.875   0.911  0.00  0.00    -0.272 OA
BRANCH   3   6
ATOM      6  C   UNL d   1      24.198 -18.125   0.156  0.00  0.00     0.142 C 
BRANCH   6   7
ATOM      7  C   UNL d   1      23.267 -18.387  -1.045  0.00  0.00     0.141 C 
BRANCH   7   8
ATOM      8  N   UNL d   1      21.857 -18.046  -0.813  0.00  0.00    -0.372 N 
ATOM      9  H   UNL d   1      21.574 -17.070  -0.829  0.00  0.00     0.161 HD
BRANCH   8  10
ATOM     10  C   UNL d   1      20.909 -18.986  -0.437  0.00  0.00     0.143 C 
ATOM     11  C   UNL d   1      20.993 -19.640   0.781  0.00  0.00     0.054 C 
ATOM     12  C   UNL d   1      19.947 -20.429   1.215  0.00  0.00     0.030 C 
ATOM     13  C   UNL d   1      18.882 -20.648   0.361  0.00  0.00     0.024 C 
ATOM     14  C   UNL d   1      17.697 -21.455   0.793  0.00  0.00     0.070 C 
ATOM     15  N   UNL d   1      18.926 -20.117  -0.877  0.00  0.00    -0.281 N 
ATOM     16  N   UNL d   1      19.880 -19.260  -1.268  0.00  0.00    -0.157 NA
ATOM     17  H   UNL d   1      18.198 -20.367  -1.552  0.00  0.00     0.189 HD
ENDBRANCH   8  10
ENDBRANCH   7   8
ENDBRANCH   6   7
ENDBRANCH   3   6
ENDBRANCH   1   2
BRANCH   1  18
ATOM     18  N   UNL d   1      28.022 -15.783   0.619  0.00  0.00    -0.348 N 
ATOM     19  C   UNL d   1      27.192 -14.692   0.436  0.00  0.00     0.252 C 
ATOM     20  O   UNL d   1      26.302 -14.674  -0.417  0.00  0.00    -0.268 OA
ATOM     21  H   UNL d   1      28.658 -15.812   1.411  0.00  0.00     0.163 HD
BRANCH  19  22
ATOM     22  C   UNL d   1      27.373 -13.527   1.358  0.00  0.00     0.032 C 
ATOM     23  C   UNL d   1      26.738 -12.302   1.127  0.00  0.00     0.018 C 
ATOM     24  C   UNL d   1      27.047 -11.183   1.920  0.00  0.00     0.013 C 
ATOM     25  C   UNL d   1      27.925 -11.283   3.010  0.00  0.00    -0.026 C 
ATOM     26  C   UNL d   1      28.420 -12.559   3.331  0.00  0.00     0.013 C 
ATOM     27  C   UNL d   1      28.183 -13.660   2.493  0.00  0.00     0.018 C 
BRANCH  25  28
ATOM     28  C   UNL d   1      28.342 -10.097   3.780  0.00  0.00    -0.026 A 
ATOM     29  C   UNL d   1      29.151 -10.239   4.923  0.00  0.00     0.012 A 
ATOM     30  C   UNL d   1      29.423  -9.150   5.756  0.00  0.00     0.001 A 
ATOM     31  C   UNL d   1      28.992  -7.878   5.396  0.00  0.00     0.000 A 
ATOM     32  C   UNL d   1      28.312  -7.694   4.194  0.00  0.00     0.001 A 
ATOM     33  C   UNL d   1      27.949  -8.800   3.416  0.00  0.00     0.012 A 
ENDBRANCH  25  28
ENDBRANCH  19  22
ENDBRANCH   1  18
TORSDOF 8
ENDMDL
