MODEL 1
REMARK VINA RESULT:    -8.180      0.000      0.000
REMARK INTER + INTRA:         -11.771
REMARK INTER:                  -9.969
REMARK INTRA:                  -1.801
REMARK CONF_INDEPENDENT:        1.790
REMARK UNBOUND:                -1.801
REMARK  6 active torsions:
REMARK  status: ('A' for Active; 'I' for Inactive)
REMARK    1  A    between atoms: C_5  and  O_6 
REMARK    2  A    between atoms: C_7  and  C_8 
REMARK       I    between atoms: C_8  and  N_10 
REMARK    3  A    between atoms: N_10  and  C_11 
REMARK    4  A    between atoms: C_11  and  C_12 
REMARK    5  A    between atoms: C_12  and  O_13 
REMARK    6  A    between atoms: C_12  and  C_14 
ROOT
ATOM      1  C   UNL d   1      21.752 -18.568  -0.576  0.00  0.00     0.254 C 
ATOM      2  O   UNL d   1      22.241 -18.928  -1.647  0.00  0.00    -0.268 OA
ATOM      3  N   UNL d   1      22.225 -17.422   0.049  0.00  0.00    -0.354 N 
ATOM      4  H   UNL d   1      21.952 -17.149   0.980  0.00  0.00     0.162 HD
ENDROOT
BRANCH   3   5
ATOM      5  C   UNL d   1      23.331 -16.700  -0.534  0.00  0.00     0.155 C 
BRANCH   5   6
ATOM      6  C   UNL d   1      24.698 -17.384  -0.312  0.00  0.00     0.140 C 
BRANCH   6   7
ATOM      7  O   UNL d   1      24.521 -18.802  -0.206  0.00  0.00    -0.394 OA
ATOM      8  H   UNL d   1      24.317 -19.147  -1.093  0.00  0.00     0.210 HD
ENDBRANCH   6   7
BRANCH   6   9
ATOM      9  C   UNL d   1      25.671 -17.031  -1.462  0.00  0.00     0.016 C 
ATOM     10  C   UNL d   1      25.160 -15.906  -2.383  0.00  0.00     0.007 C 
ATOM     11  C   UNL d   1      26.192 -15.565  -3.467  0.00  0.00     0.000 C 
ATOM     12  C   UNL d   1      27.550 -15.210  -2.868  0.00  0.00     0.000 C 
ATOM     13  C   UNL d   1      28.061 -16.336  -1.986  0.00  0.00     0.000 C 
ATOM     14  C   UNL d   1      27.056 -16.658  -0.901  0.00  0.00     0.007 C 
ENDBRANCH   6   9
ENDBRANCH   5   6
ENDBRANCH   3   5
BRANCH   1  15
ATOM     15  C   UNL d   1      20.635 -19.324   0.090  0.00  0.00     0.065 A 
ATOM     16  C   UNL d   1      19.544 -19.818  -0.647  0.00  0.00     0.081 A 
ATOM     17  C   UNL d   1      18.472 -20.452  -0.007  0.00  0.00     0.038 A 
ATOM     18  C   UNL d   1      18.493 -20.642   1.374  0.00  0.00     0.009 A 
ATOM     19  C   UNL d   1      19.587 -20.210   2.125  0.00  0.00    -0.061 A 
ATOM     20  C   UNL d   1      19.660 -20.462   3.601  0.00  0.00     0.048 C 
ATOM     21  C   UNL d   1      20.639 -19.542   1.481  0.00  0.00     0.026 A 
BRANCH  16  22
ATOM     22  O   UNL d   1      19.495 -19.701  -2.009  0.00  0.00    -0.360 OA
ATOM     23  H   UNL d   1      20.389 -19.649  -2.381  0.00  0.00     0.217 HD
ENDBRANCH  16  22
ENDBRANCH   1  15
TORSDOF 6
ENDMDL
MODEL 2
REMARK VINA RESULT:    -7.994      1.156      7.860
REMARK INTER + INTRA:         -10.865
REMARK INTER:                  -9.784
REMARK INTRA:                  -1.082
REMARK CONF_INDEPENDENT:        1.790
REMARK UNBOUND:                -1.082
REMARK  6 active torsions:
REMARK  status: ('A' for Active; 'I' for Inactive)
REMARK    1  A    between atoms: C_5  and  O_6 
REMARK    2  A    between atoms: C_7  and  C_8 
REMARK       I    between atoms: C_8  and  N_10 
REMARK    3  A    between atoms: N_10  and  C_11 
REMARK    4  A    between atoms: C_11  and  C_12 
REMARK    5  A    between atoms: C_12  and  O_13 
REMARK    6  A    between atoms: C_12  and  C_14 
ROOT
ATOM      1  C   UNL d   1      24.208 -17.723  -0.390  0.00  0.00     0.254 C 
ATOM      2  O   UNL d   1      24.641 -18.569   0.392  0.00  0.00    -0.268 OA
ATOM      3  N   UNL d   1      22.850 -17.676  -0.677  0.00  0.00    -0.354 N 
ATOM      4  H   UNL d   1      22.459 -17.091  -1.398  0.00  0.00     0.162 HD
ENDROOT
BRANCH   3   5
ATOM      5  C   UNL d   1      21.969 -18.665  -0.103  0.00  0.00     0.155 C 
BRANCH   5   6
ATOM      6  C   UNL d   1      20.608 -18.771  -0.826  0.00  0.00     0.140 C 
BRANCH   6   7
ATOM      7  O   UNL d   1      20.744 -19.581  -2.002  0.00  0.00    -0.394 OA
ATOM      8  H   UNL d   1      20.041 -19.325  -2.625  0.00  0.00     0.210 HD
ENDBRANCH   6   7
BRANCH   6   9
ATOM      9  C   UNL d   1      19.536 -19.353   0.125  0.00  0.00     0.016 C 
ATOM     10  C   UNL d   1      18.664 -20.449  -0.519  0.00  0.00     0.007 C 
ATOM     11  C   UNL d   1      17.660 -21.023   0.490  0.00  0.00     0.000 C 
ATOM     12  C   UNL d   1      18.351 -21.541   1.748  0.00  0.00     0.000 C 
ATOM     13  C   UNL d   1      19.183 -20.447   2.394  0.00  0.00     0.000 C 
ATOM     14  C   UNL d   1      20.191 -19.895   1.410  0.00  0.00     0.007 C 
ENDBRANCH   6   9
ENDBRANCH   5   6
ENDBRANCH   3   5
BRANCH   1  15
ATOM     15  C   UNL d   1      25.103 -16.711  -1.051  0.00  0.00     0.065 A 
ATOM     16  C   UNL d   1      26.461 -16.596  -0.702  0.00  0.00     0.081 A 
ATOM     17  C   UNL d   1      27.266 -15.599  -1.267  0.00  0.00     0.038 A 
ATOM     18  C   UNL d   1      26.741 -14.729  -2.220  0.00  0.00     0.009 A 
ATOM     19  C   UNL d   1      25.411 -14.853  -2.626  0.00  0.00    -0.061 A 
ATOM     20  C   UNL d   1      24.843 -13.972  -3.698  0.00  0.00     0.048 C 
ATOM     21  C   UNL d   1      24.601 -15.830  -2.028  0.00  0.00     0.026 A 
BRANCH  16  22
ATOM     22  O   UNL d   1      27.039 -17.453   0.194  0.00  0.00    -0.360 OA
ATOM     23  H   UNL d   1      26.364 -17.975   0.653  0.00  0.00     0.217 HD
ENDBRANCH  16  22
ENDBRANCH   1  15
TORSDOF 6
ENDMDL
MODEL 3
REMARK VINA RESULT:    -7.648      1.557      7.829
REMARK INTER + INTRA:         -11.134
REMARK INTER:                  -9.438
REMARK INTRA:                  -1.696
REMARK CONF_INDEPENDENT:        1.790
REMARK UNBOUND:                -1.696
REMARK  6 active torsions:
REMARK  status: ('A' for Active; 'I' for Inactive)
REMARK    1  A    between atoms: C_5  and  O_6 
REMARK    2  A    between atoms: C_7  and  C_8 
REMARK       I    between atoms: C_8  and  N_10 
REMARK    3  A    between atoms: N_10  and  C_11 
REMARK    4  A    between atoms: C_11  and  C_12 
REMARK    5  A    between atoms: C_12  and  O_13 
REMARK    6  A    between atoms: C_12  and  C_14 
ROOT
ATOM      1  C   UNL d   1      24.462 -17.483  -0.994  0.00  0.00     0.254 C 
ATOM      2  O   UNL d   1      23.778 -17.191  -1.975  0.00  0.00    -0.268 OA
ATOM      3  N   UNL d   1      24.119 -18.578  -0.212  0.00  0.00    -0.354 N 
ATOM      4  H   UNL d   1      24.565 -18.790   0.666  0.00  0.00     0.162 HD
ENDROOT
BRANCH   3   5
ATOM      5  C   UNL d   1      22.923 -19.325  -0.522  0.00  0.00     0.155 C 
BRANCH   5   6
ATOM      6  C   UNL d   1      21.626 -18.641  -0.038  0.00  0.00     0.140 C 
BRANCH   6   7
ATOM      7  O   UNL d   1      21.012 -17.937  -1.125  0.00  0.00    -0.394 OA
ATOM      8  H   UNL d   1      21.688 -17.370  -1.536  0.00  0.00     0.210 HD
ENDBRANCH   6   7
BRANCH   6   9
ATOM      9  C   UNL d   1      20.656 -19.687   0.562  0.00  0.00     0.016 C 
ATOM     10  C   UNL d   1      20.280 -19.412   2.032  0.00  0.00     0.007 C 
ATOM     11  C   UNL d   1      19.275 -20.450   2.550  0.00  0.00     0.000 C 
ATOM     12  C   UNL d   1      18.030 -20.524   1.670  0.00  0.00     0.000 C 
ATOM     13  C   UNL d   1      18.406 -20.825   0.230  0.00  0.00     0.000 C 
ATOM     14  C   UNL d   1      19.379 -19.790  -0.292  0.00  0.00     0.007 C 
ENDBRANCH   6   9
ENDBRANCH   5   6
ENDBRANCH   3   5
BRANCH   1  15
ATOM     15  C   UNL d   1      25.684 -16.696  -0.606  0.00  0.00     0.065 A 
ATOM     16  C   UNL d   1      26.700 -17.264   0.185  0.00  0.00     0.081 A 
ATOM     17  C   UNL d   1      27.794 -16.499   0.605  0.00  0.00     0.038 A 
ATOM     18  C   UNL d   1      27.915 -15.169   0.208  0.00  0.00     0.009 A 
ATOM     19  C   UNL d   1      26.950 -14.594  -0.620  0.00  0.00    -0.061 A 
ATOM     20  C   UNL d   1      27.093 -13.185  -1.114  0.00  0.00     0.048 C 
ATOM     21  C   UNL d   1      25.837 -15.355  -1.007  0.00  0.00     0.026 A 
BRANCH  16  22
ATOM     22  O   UNL d   1      26.655 -18.577   0.564  0.00  0.00    -0.360 OA
ATOM     23  H   UNL d   1      27.548 -18.951   0.609  0.00  0.00     0.217 HD
ENDBRANCH  16  22
ENDBRANCH   1  15
TORSDOF 6
ENDMDL
MODEL 4
REMARK VINA RESULT:    -7.267      1.260      7.621
REMARK INTER + INTRA:         -10.862
REMARK INTER:                  -9.057
REMARK INTRA:                  -1.805
REMARK CONF_INDEPENDENT:        1.790
REMARK UNBOUND:                -1.805
REMARK  6 active torsions:
REMARK  status: ('A' for Active; 'I' for Inactive)
REMARK    1  A    between atoms: C_5  and  O_6 
REMARK    2  A    between atoms: C_7  and  C_8 
REMARK       I    between atoms: C_8  and  N_10 
REMARK    3  A    between atoms: N_10  and  C_11 
REMARK    4  A    between atoms: C_11  and  C_12 
REMARK    5  A    between atoms: C_12  and  O_13 
REMARK    6  A    between atoms: C_12  and  C_14 
ROOT
ATOM      1  C   UNL d   1      24.597 -17.462  -0.522  0.00  0.00     0.254 C 
ATOM      2  O   UNL d   1      24.610 -18.462   0.195  0.00  0.00    -0.268 OA
ATOM      3  N   UNL d   1      23.390 -16.856  -0.843  0.00  0.00    -0.354 N 
ATOM      4  H   UNL d   1      23.308 -16.115  -1.521  0.00  0.00     0.162 HD
ENDROOT
BRANCH   3   5
ATOM      5  C   UNL d   1      22.155 -17.445  -0.382  0.00  0.00     0.155 C 
BRANCH   5   6
ATOM      6  C   UNL d   1      21.677 -18.631  -1.249  0.00  0.00     0.140 C 
BRANCH   6   7
ATOM      7  O   UNL d   1      22.809 -19.326  -1.788  0.00  0.00    -0.394 OA
ATOM      8  H   UNL d   1      23.313 -19.702  -1.045  0.00  0.00     0.210 HD
ENDBRANCH   6   7
BRANCH   6   9
ATOM      9  C   UNL d   1      20.787 -19.584  -0.417  0.00  0.00     0.016 C 
ATOM     10  C   UNL d   1      20.852 -19.325   1.101  0.00  0.00     0.007 C 
ATOM     11  C   UNL d   1      19.906 -20.263   1.864  0.00  0.00     0.000 C 
ATOM     12  C   UNL d   1      18.472 -20.164   1.351  0.00  0.00     0.000 C 
ATOM     13  C   UNL d   1      18.412 -20.450  -0.139  0.00  0.00     0.000 C 
ATOM     14  C   UNL d   1      19.325 -19.511  -0.896  0.00  0.00     0.007 C 
ENDBRANCH   6   9
ENDBRANCH   5   6
ENDBRANCH   3   5
BRANCH   1  15
ATOM     15  C   UNL d   1      25.859 -16.850  -1.067  0.00  0.00     0.065 A 
ATOM     16  C   UNL d   1      25.822 -15.880  -2.085  0.00  0.00     0.081 A 
ATOM     17  C   UNL d   1      27.004 -15.374  -2.639  0.00  0.00     0.038 A 
ATOM     18  C   UNL d   1      28.241 -15.795  -2.156  0.00  0.00     0.009 A 
ATOM     19  C   UNL d   1      28.309 -16.717  -1.110  0.00  0.00    -0.061 A 
ATOM     20  C   UNL d   1      29.628 -17.134  -0.530  0.00  0.00     0.048 C 
ATOM     21  C   UNL d   1      27.121 -17.247  -0.585  0.00  0.00     0.026 A 
BRANCH  16  22
ATOM     22  O   UNL d   1      24.634 -15.397  -2.564  0.00  0.00    -0.360 OA
ATOM     23  H   UNL d   1      24.751 -14.510  -2.937  0.00  0.00     0.217 HD
ENDBRANCH  16  22
ENDBRANCH   1  15
TORSDOF 6
ENDMDL
MODEL 5
REMARK VINA RESULT:    -6.839      4.932      8.548
REMARK INTER + INTRA:         -10.365
REMARK INTER:                  -8.629
REMARK INTRA:                  -1.736
REMARK CONF_INDEPENDENT:        1.790
REMARK UNBOUND:                -1.736
REMARK  6 active torsions:
REMARK  status: ('A' for Active; 'I' for Inactive)
REMARK    1  A    between atoms: C_5  and  O_6 
REMARK    2  A    between atoms: C_7  and  C_8 
REMARK       I    between atoms: C_8  and  N_10 
REMARK    3  A    between atoms: N_10  and  C_11 
REMARK    4  A    between atoms: C_11  and  C_12 
REMARK    5  A    between atoms: C_12  and  O_13 
REMARK    6  A    between atoms: C_12  and  C_14 
ROOT
ATOM      1  C   UNL d   1      27.608 -14.257   1.858  0.00  0.00     0.254 C 
ATOM      2  O   UNL d   1      26.660 -13.539   1.541  0.00  0.00    -0.268 OA
ATOM      3  N   UNL d   1      28.002 -15.292   1.021  0.00  0.00    -0.354 N 
ATOM      4  H   UNL d   1      28.686 -15.984   1.285  0.00  0.00     0.162 HD
ENDROOT
BRANCH   3   5
ATOM      5  C   UNL d   1      27.253 -15.555  -0.184  0.00  0.00     0.155 C 
BRANCH   5   6
ATOM      6  C   UNL d   1      27.117 -17.059  -0.509  0.00  0.00     0.140 C 
BRANCH   6   7
ATOM      7  O   UNL d   1      27.595 -17.840   0.594  0.00  0.00    -0.394 OA
ATOM      8  H   UNL d   1      28.568 -17.826   0.573  0.00  0.00     0.210 HD
ENDBRANCH   6   7
BRANCH   6   9
ATOM      9  C   UNL d   1      25.647 -17.409  -0.840  0.00  0.00     0.016 C 
ATOM     10  C   UNL d   1      25.076 -18.558   0.015  0.00  0.00     0.007 C 
ATOM     11  C   UNL d   1      23.601 -18.819  -0.321  0.00  0.00     0.000 C 
ATOM     12  C   UNL d   1      22.754 -17.556  -0.180  0.00  0.00     0.000 C 
ATOM     13  C   UNL d   1      23.305 -16.439  -1.047  0.00  0.00     0.000 C 
ATOM     14  C   UNL d   1      24.752 -16.163  -0.702  0.00  0.00     0.007 C 
ENDBRANCH   6   9
ENDBRANCH   5   6
ENDBRANCH   3   5
BRANCH   1  15
ATOM     15  C   UNL d   1      28.379 -14.049   3.133  0.00  0.00     0.065 A 
ATOM     16  C   UNL d   1      29.724 -14.448   3.249  0.00  0.00     0.081 A 
ATOM     17  C   UNL d   1      30.408 -14.322   4.463  0.00  0.00     0.038 A 
ATOM     18  C   UNL d   1      29.777 -13.755   5.569  0.00  0.00     0.009 A 
ATOM     19  C   UNL d   1      28.461 -13.302   5.470  0.00  0.00    -0.061 A 
ATOM     20  C   UNL d   1      27.785 -12.628   6.626  0.00  0.00     0.048 C 
ATOM     21  C   UNL d   1      27.770 -13.466   4.260  0.00  0.00     0.026 A 
BRANCH  16  22
ATOM     22  O   UNL d   1      30.405 -14.967   2.182  0.00  0.00    -0.360 OA
ATOM     23  H   UNL d   1      30.423 -15.935   2.226  0.00  0.00     0.217 HD
ENDBRANCH  16  22
ENDBRANCH   1  15
TORSDOF 6
ENDMDL
MODEL 6
REMARK VINA RESULT:    -6.668      5.818      8.907
REMARK INTER + INTRA:         -10.318
REMARK INTER:                  -8.458
REMARK INTRA:                  -1.860
REMARK CONF_INDEPENDENT:        1.790
REMARK UNBOUND:                -1.860
REMARK  6 active torsions:
REMARK  status: ('A' for Active; 'I' for Inactive)
REMARK    1  A    between atoms: C_5  and  O_6 
REMARK    2  A    between atoms: C_7  and  C_8 
REMARK       I    between atoms: C_8  and  N_10 
REMARK    3  A    between atoms: N_10  and  C_11 
REMARK    4  A    between atoms: C_11  and  C_12 
REMARK    5  A    between atoms: C_12  and  O_13 
REMARK    6  A    between atoms: C_12  and  C_14 
ROOT
ATOM      1  C   UNL d   1      27.460 -13.272   2.937  0.00  0.00     0.254 C 
ATOM      2  O   UNL d   1      26.656 -12.434   2.527  0.00  0.00    -0.268 OA
ATOM      3  N   UNL d   1      27.914 -14.270   2.084  0.00  0.00    -0.354 N 
ATOM      4  H   UNL d   1      28.471 -15.049   2.396  0.00  0.00     0.162 HD
ENDROOT
BRANCH   3   5
ATOM      5  C   UNL d   1      27.388 -14.351   0.742  0.00  0.00     0.155 C 
BRANCH   5   6
ATOM      6  C   UNL d   1      28.082 -15.421  -0.128  0.00  0.00     0.140 C 
BRANCH   6   7
ATOM      7  O   UNL d   1      29.202 -15.972   0.579  0.00  0.00    -0.394 OA
ATOM      8  H   UNL d   1      28.881 -16.307   1.434  0.00  0.00     0.210 HD
ENDBRANCH   6   7
BRANCH   6   9
ATOM      9  C   UNL d   1      27.078 -16.530  -0.523  0.00  0.00     0.016 C 
ATOM     10  C   UNL d   1      26.787 -17.535   0.609  0.00  0.00     0.007 C 
ATOM     11  C   UNL d   1      25.744 -18.574   0.174  0.00  0.00     0.000 C 
ATOM     12  C   UNL d   1      24.458 -17.915  -0.319  0.00  0.00     0.000 C 
ATOM     13  C   UNL d   1      24.748 -16.949  -1.454  0.00  0.00     0.000 C 
ATOM     14  C   UNL d   1      25.758 -15.910  -1.021  0.00  0.00     0.007 C 
ENDBRANCH   6   9
ENDBRANCH   5   6
ENDBRANCH   3   5
BRANCH   1  15
ATOM     15  C   UNL d   1      27.989 -13.254   4.345  0.00  0.00     0.065 A 
ATOM     16  C   UNL d   1      28.273 -14.446   5.036  0.00  0.00     0.081 A 
ATOM     17  C   UNL d   1      28.690 -14.420   6.372  0.00  0.00     0.038 A 
ATOM     18  C   UNL d   1      28.873 -13.204   7.026  0.00  0.00     0.009 A 
ATOM     19  C   UNL d   1      28.651 -12.003   6.350  0.00  0.00    -0.061 A 
ATOM     20  C   UNL d   1      28.905 -10.682   7.014  0.00  0.00     0.048 C 
ATOM     21  C   UNL d   1      28.196 -12.038   5.023  0.00  0.00     0.026 A 
BRANCH  16  22
ATOM     22  O   UNL d   1      28.155 -15.665   4.426  0.00  0.00    -0.360 OA
ATOM     23  H   UNL d   1      28.981 -15.907   3.981  0.00  0.00     0.217 HD
ENDBRANCH  16  22
ENDBRANCH   1  15
TORSDOF 6
ENDMDL
MODEL 7
REMARK VINA RESULT:    -6.315      4.819      9.893
REMARK INTER + INTRA:          -9.935
REMARK INTER:                  -8.105
REMARK INTRA:                  -1.830
REMARK CONF_INDEPENDENT:        1.790
REMARK UNBOUND:                -1.830
REMARK  6 active torsions:
REMARK  status: ('A' for Active; 'I' for Inactive)
REMARK    1  A    between atoms: C_5  and  O_6 
REMARK    2  A    between atoms: C_7  and  C_8 
REMARK       I    between atoms: C_8  and  N_10 
REMARK    3  A    between atoms: N_10  and  C_11 
REMARK    4  A    between atoms: C_11  and  C_12 
REMARK    5  A    between atoms: C_12  and  O_13 
REMARK    6  A    between atoms: C_12  and  C_14 
ROOT
ATOM      1  C   UNL d   1      27.279 -13.957  -5.121  0.00  0.00     0.254 C 
ATOM      2  O   UNL d   1      27.231 -15.144  -5.444  0.00  0.00    -0.268 OA
ATOM      3  N   UNL d   1      27.220 -13.602  -3.780  0.00  0.00    -0.354 N 
ATOM      4  H   UNL d   1      27.130 -12.649  -3.466  0.00  0.00     0.162 HD
ENDROOT
BRANCH   3   5
ATOM      5  C   UNL d   1      27.038 -14.629  -2.781  0.00  0.00     0.155 C 
BRANCH   5   6
ATOM      6  C   UNL d   1      25.556 -14.939  -2.479  0.00  0.00     0.140 C 
BRANCH   6   7
ATOM      7  O   UNL d   1      24.781 -14.827  -3.680  0.00  0.00    -0.394 OA
ATOM      8  H   UNL d   1      25.305 -15.196  -4.412  0.00  0.00     0.210 HD
ENDBRANCH   6   7
BRANCH   6   9
ATOM      9  C   UNL d   1      25.415 -16.349  -1.858  0.00  0.00     0.016 C 
ATOM     10  C   UNL d   1      26.443 -16.642  -0.747  0.00  0.00     0.007 C 
ATOM     11  C   UNL d   1      26.215 -18.032  -0.135  0.00  0.00     0.000 C 
ATOM     12  C   UNL d   1      24.788 -18.199   0.379  0.00  0.00     0.000 C 
ATOM     13  C   UNL d   1      23.782 -17.938  -0.727  0.00  0.00     0.000 C 
ATOM     14  C   UNL d   1      23.988 -16.560  -1.317  0.00  0.00     0.007 C 
ENDBRANCH   6   9
ENDBRANCH   5   6
ENDBRANCH   3   5
BRANCH   1  15
ATOM     15  C   UNL d   1      27.412 -12.855  -6.137  0.00  0.00     0.065 A 
ATOM     16  C   UNL d   1      26.723 -11.637  -5.989  0.00  0.00     0.081 A 
ATOM     17  C   UNL d   1      26.793 -10.649  -6.978  0.00  0.00     0.038 A 
ATOM     18  C   UNL d   1      27.584 -10.841  -8.109  0.00  0.00     0.009 A 
ATOM     19  C   UNL d   1      28.321 -12.017  -8.257  0.00  0.00    -0.061 A 
ATOM     20  C   UNL d   1      29.231 -12.218  -9.432  0.00  0.00     0.048 C 
ATOM     21  C   UNL d   1      28.217 -13.019  -7.280  0.00  0.00     0.026 A 
BRANCH  16  22
ATOM     22  O   UNL d   1      25.969 -11.377  -4.878  0.00  0.00    -0.360 OA
ATOM     23  H   UNL d   1      25.048 -11.642  -5.020  0.00  0.00     0.217 HD
ENDBRANCH  16  22
ENDBRANCH   1  15
TORSDOF 6
ENDMDL
MODEL 8
REMARK VINA RESULT:    -6.061      4.559      8.019
REMARK INTER + INTRA:          -9.774
REMARK INTER:                  -7.851
REMARK INTRA:                  -1.923
REMARK CONF_INDEPENDENT:        1.790
REMARK UNBOUND:                -1.923
REMARK  6 active torsions:
REMARK  status: ('A' for Active; 'I' for Inactive)
REMARK    1  A    between atoms: C_5  and  O_6 
REMARK    2  A    between atoms: C_7  and  C_8 
REMARK       I    between atoms: C_8  and  N_10 
REMARK    3  A    between atoms: N_10  and  C_11 
REMARK    4  A    between atoms: C_11  and  C_12 
REMARK    5  A    between atoms: C_12  and  O_13 
REMARK    6  A    between atoms: C_12  and  C_14 
ROOT
ATOM      1  C   UNL d   1      27.500 -14.533   1.097  0.00  0.00     0.254 C 
ATOM      2  O   UNL d   1      27.159 -13.903   0.096  0.00  0.00    -0.268 OA
ATOM      3  N   UNL d   1      27.744 -15.897   1.007  0.00  0.00    -0.354 N 
ATOM      4  H   UNL d   1      27.903 -16.482   1.811  0.00  0.00     0.162 HD
ENDROOT
BRANCH   3   5
ATOM      5  C   UNL d   1      27.532 -16.574  -0.250  0.00  0.00     0.155 C 
BRANCH   5   6
ATOM      6  C   UNL d   1      26.796 -17.924  -0.106  0.00  0.00     0.140 C 
BRANCH   6   7
ATOM      7  O   UNL d   1      26.817 -18.346   1.264  0.00  0.00    -0.394 OA
ATOM      8  H   UNL d   1      27.495 -19.038   1.354  0.00  0.00     0.210 HD
ENDBRANCH   6   7
BRANCH   6   9
ATOM      9  C   UNL d   1      25.344 -17.805  -0.626  0.00  0.00     0.016 C 
ATOM     10  C   UNL d   1      24.315 -18.575   0.226  0.00  0.00     0.007 C 
ATOM     11  C   UNL d   1      22.890 -18.371  -0.308  0.00  0.00     0.000 C 
ATOM     12  C   UNL d   1      22.525 -16.892  -0.406  0.00  0.00     0.000 C 
ATOM     13  C   UNL d   1      23.526 -16.147  -1.271  0.00  0.00     0.000 C 
ATOM     14  C   UNL d   1      24.929 -16.325  -0.734  0.00  0.00     0.007 C 
ENDBRANCH   6   9
ENDBRANCH   5   6
ENDBRANCH   3   5
BRANCH   1  15
ATOM     15  C   UNL d   1      27.678 -13.872   2.437  0.00  0.00     0.065 A 
ATOM     16  C   UNL d   1      27.395 -12.506   2.623  0.00  0.00     0.081 A 
ATOM     17  C   UNL d   1      27.639 -11.884   3.854  0.00  0.00     0.038 A 
ATOM     18  C   UNL d   1      28.126 -12.623   4.930  0.00  0.00     0.009 A 
ATOM     19  C   UNL d   1      28.365 -13.991   4.790  0.00  0.00    -0.061 A 
ATOM     20  C   UNL d   1      28.826 -14.819   5.953  0.00  0.00     0.048 C 
ATOM     21  C   UNL d   1      28.154 -14.600   3.544  0.00  0.00     0.026 A 
BRANCH  16  22
ATOM     22  O   UNL d   1      26.872 -11.745   1.615  0.00  0.00    -0.360 OA
ATOM     23  H   UNL d   1      26.570 -12.306   0.884  0.00  0.00     0.217 HD
ENDBRANCH  16  22
ENDBRANCH   1  15
TORSDOF 6
ENDMDL
MODEL 9
REMARK VINA RESULT:    -5.853      3.636      8.532
REMARK INTER + INTRA:          -9.884
REMARK INTER:                  -7.643
REMARK INTRA:                  -2.241
REMARK CONF_INDEPENDENT:        1.790
REMARK UNBOUND:                -2.241
REMARK  6 active torsions:
REMARK  status: ('A' for Active; 'I' for Inactive)
REMARK    1  A    between atoms: C_5  and  O_6 
REMARK    2  A    between atoms: C_7  and  C_8 
REMARK       I    between atoms: C_8  and  N_10 
REMARK    3  A    between atoms: N_10  and  C_11 
REMARK    4  A    between atoms: C_11  and  C_12 
REMARK    5  A    between atoms: C_12  and  O_13 
REMARK    6  A    between atoms: C_12  and  C_14 
ROOT
ATOM      1  C   UNL d   1      25.861 -14.483  -3.451  0.00  0.00     0.254 C 
ATOM      2  O   UNL d   1      25.155 -15.196  -4.164  0.00  0.00    -0.268 OA
ATOM      3  N   UNL d   1      26.518 -15.031  -2.357  0.00  0.00    -0.354 N 
ATOM      4  H   UNL d   1      27.005 -14.476  -1.672  0.00  0.00     0.162 HD
ENDROOT
BRANCH   3   5
ATOM      5  C   UNL d   1      26.312 -16.422  -2.030  0.00  0.00     0.155 C 
BRANCH   5   6
ATOM      6  C   UNL d   1      26.156 -16.682  -0.516  0.00  0.00     0.140 C 
BRANCH   6   7
ATOM      7  O   UNL d   1      26.549 -15.517   0.221  0.00  0.00    -0.394 OA
ATOM      8  H   UNL d   1      26.290 -14.733  -0.295  0.00  0.00     0.210 HD
ENDBRANCH   6   7
BRANCH   6   9
ATOM      9  C   UNL d   1      24.698 -17.082  -0.185  0.00  0.00     0.016 C 
ATOM     10  C   UNL d   1      23.641 -16.233  -0.919  0.00  0.00     0.007 C 
ATOM     11  C   UNL d   1      22.220 -16.714  -0.592  0.00  0.00     0.000 C 
ATOM     12  C   UNL d   1      22.040 -18.199  -0.895  0.00  0.00     0.000 C 
ATOM     13  C   UNL d   1      23.065 -19.031  -0.145  0.00  0.00     0.000 C 
ATOM     14  C   UNL d   1      24.467 -18.575  -0.483  0.00  0.00     0.007 C 
ENDBRANCH   6   9
ENDBRANCH   5   6
ENDBRANCH   3   5
BRANCH   1  15
ATOM     15  C   UNL d   1      26.056 -13.017  -3.728  0.00  0.00     0.065 A 
ATOM     16  C   UNL d   1      26.381 -12.115  -2.698  0.00  0.00     0.081 A 
ATOM     17  C   UNL d   1      26.483 -10.742  -2.951  0.00  0.00     0.038 A 
ATOM     18  C   UNL d   1      26.305 -10.252  -4.244  0.00  0.00     0.009 A 
ATOM     19  C   UNL d   1      26.034 -11.128  -5.295  0.00  0.00    -0.061 A 
ATOM     20  C   UNL d   1      25.905 -10.631  -6.704  0.00  0.00     0.048 C 
ATOM     21  C   UNL d   1      25.897 -12.499  -5.027  0.00  0.00     0.026 A 
BRANCH  16  22
ATOM     22  O   UNL d   1      26.612 -12.548  -1.421  0.00  0.00    -0.360 OA
ATOM     23  H   UNL d   1      27.288 -12.001  -0.991  0.00  0.00     0.217 HD
ENDBRANCH  16  22
ENDBRANCH   1  15
TORSDOF 6
ENDMDL
