MODEL 1
REMARK VINA RESULT:   -28.633      0.000      0.000
REMARK INTER + INTRA:         -31.235
REMARK INTER:                 -30.721
REMARK INTRA:                  -0.514
REMARK CONF_INDEPENDENT:        2.088
REMARK UNBOUND:                -0.514
REMARK  7 active torsions:
REMARK  status: ('A' for Active; 'I' for Inactive)
REMARK    1  A    between atoms: C_7  and  C_8 
REMARK    2  A    between atoms: C_8  and  N_9 
REMARK       I    between atoms: N_9  and  C_10 
REMARK       I    between atoms: C_10  and  N_12 
REMARK    3  A    between atoms: N_12  and  C_13 
REMARK    4  A    between atoms: C_13  and  C_14 
REMARK    5  A    between atoms: C_14  and  N_15 
REMARK       I    between atoms: N_15  and  C_16 
REMARK    6  A    between atoms: C_16  and  O_18 
REMARK    7  A    between atoms: O_18  and  C_19 
ROOT
ATOM      1  N   UNL d   1      24.309 -18.534   0.413  0.00  0.00    -0.339 N 
ATOM      2  C   UNL d   1      25.083 -17.793  -0.436  0.00  0.00     0.316 C 
ATOM      3  O   UNL d   1      24.987 -17.859  -1.654  0.00  0.00    -0.247 OA
ATOM      4  N   UNL d   1      25.986 -16.962   0.205  0.00  0.00    -0.342 N 
ATOM      5  H   UNL d   1      24.442 -18.399   1.392  0.00  0.00     0.164 HD
ATOM      6  H   UNL d   1      26.030 -16.942   1.215  0.00  0.00     0.164 HD
ENDROOT
BRANCH   1   7
ATOM      7  C   UNL d   1      23.286 -19.472  -0.052  0.00  0.00     0.167 C 
BRANCH   7   8
ATOM      8  C   UNL d   1      22.005 -18.814  -0.515  0.00  0.00     0.009 A 
ATOM      9  C   UNL d   1      21.773 -17.537  -1.009  0.00  0.00     0.034 A 
ATOM     10  N   UNL d   1      20.434 -17.454  -1.270  0.00  0.00    -0.282 N 
ATOM     11  C   UNL d   1      22.666 -16.390  -1.270  0.00  0.00     0.070 C 
ATOM     12  N   UNL d   1      19.764 -18.577  -1.009  0.00  0.00    -0.179 NA
ATOM     13  H   UNL d   1      19.916 -16.662  -1.634  0.00  0.00     0.189 HD
ATOM     14  C   UNL d   1      20.697 -19.418  -0.546  0.00  0.00     0.060 A 
ATOM     15  C   UNL d   1      20.276 -20.789  -0.147  0.00  0.00     0.073 C 
ENDBRANCH   7   8
ENDBRANCH   1   7
BRANCH   4  16
ATOM     16  C   UNL d   1      26.889 -16.107  -0.577  0.00  0.00     0.144 C 
BRANCH  16  17
ATOM     17  C   UNL d   1      26.259 -15.384  -1.783  0.00  0.00     0.144 C 
BRANCH  17  18
ATOM     18  N   UNL d   1      26.896 -15.652  -3.081  0.00  0.00    -0.335 N 
ATOM     19  C   UNL d   1      26.351 -15.130  -4.233  0.00  0.00     0.361 C 
ATOM     20  O   UNL d   1      25.336 -14.440  -4.207  0.00  0.00    -0.238 OA
ATOM     21  H   UNL d   1      27.733 -16.214  -3.160  0.00  0.00     0.164 HD
BRANCH  19  22
ATOM     22  O   UNL d   1      27.046 -15.459  -5.369  0.00  0.00    -0.294 OA
BRANCH  22  23
ATOM     23  C   UNL d   1      28.330 -14.785  -5.623  0.00  0.00     0.061 C 
ATOM     24  C   UNL d   1      29.508 -15.753  -5.434  0.00  0.00     0.046 C 
ATOM     25  C   UNL d   1      28.354 -14.151  -7.021  0.00  0.00     0.046 C 
ATOM     26  C   UNL d   1      28.524 -13.636  -4.605  0.00  0.00     0.046 C 
ENDBRANCH  22  23
ENDBRANCH  19  22
ENDBRANCH  17  18
ENDBRANCH  16  17
ENDBRANCH   4  16
TORSDOF 7
ENDMDL
MODEL 2
REMARK VINA RESULT:   -27.626      1.684      2.441
REMARK INTER + INTRA:         -31.397
REMARK INTER:                 -29.714
REMARK INTRA:                  -1.682
REMARK CONF_INDEPENDENT:        2.088
REMARK UNBOUND:                -1.682
REMARK  7 active torsions:
REMARK  status: ('A' for Active; 'I' for Inactive)
REMARK    1  A    between atoms: C_7  and  C_8 
REMARK    2  A    between atoms: C_8  and  N_9 
REMARK       I    between atoms: N_9  and  C_10 
REMARK       I    between atoms: C_10  and  N_12 
REMARK    3  A    between atoms: N_12  and  C_13 
REMARK    4  A    between atoms: C_13  and  C_14 
REMARK    5  A    between atoms: C_14  and  N_15 
REMARK       I    between atoms: N_15  and  C_16 
REMARK    6  A    between atoms: C_16  and  O_18 
REMARK    7  A    between atoms: O_18  and  C_19 
ROOT
ATOM      1  N   UNL d   1      24.386 -17.882   0.577  0.00  0.00    -0.339 N 
ATOM      2  C   UNL d   1      25.718 -18.026   0.305  0.00  0.00     0.316 C 
ATOM      3  O   UNL d   1      26.202 -19.066  -0.122  0.00  0.00    -0.247 OA
ATOM      4  N   UNL d   1      26.470 -16.892   0.557  0.00  0.00    -0.342 N 
ATOM      5  H   UNL d   1      24.077 -16.992   0.902  0.00  0.00     0.164 HD
ATOM      6  H   UNL d   1      26.026 -16.056   0.910  0.00  0.00     0.164 HD
ENDROOT
BRANCH   1   7
ATOM      7  C   UNL d   1      23.409 -18.955   0.377  0.00  0.00     0.167 C 
BRANCH   7   8
ATOM      8  C   UNL d   1      22.110 -18.501  -0.249  0.00  0.00     0.009 A 
ATOM      9  C   UNL d   1      21.787 -17.321  -0.906  0.00  0.00     0.034 A 
ATOM     10  N   UNL d   1      20.473 -17.420  -1.269  0.00  0.00    -0.282 N 
ATOM     11  C   UNL d   1      22.574 -16.116  -1.238  0.00  0.00     0.070 C 
ATOM     12  N   UNL d   1      19.905 -18.575  -0.925  0.00  0.00    -0.179 NA
ATOM     13  H   UNL d   1      19.907 -16.736  -1.760  0.00  0.00     0.189 HD
ATOM     14  C   UNL d   1      20.878 -19.249  -0.301  0.00  0.00     0.060 A 
ATOM     15  C   UNL d   1      20.572 -20.607   0.227  0.00  0.00     0.073 C 
ENDBRANCH   7   8
ENDBRANCH   1   7
BRANCH   4  16
ATOM     16  C   UNL d   1      27.919 -16.896   0.315  0.00  0.00     0.144 C 
BRANCH  16  17
ATOM     17  C   UNL d   1      28.556 -15.528   0.002  0.00  0.00     0.144 C 
BRANCH  17  18
ATOM     18  N   UNL d   1      28.059 -14.866  -1.213  0.00  0.00    -0.335 N 
ATOM     19  C   UNL d   1      26.786 -14.341  -1.237  0.00  0.00     0.361 C 
ATOM     20  O   UNL d   1      26.045 -14.413  -0.260  0.00  0.00    -0.238 OA
ATOM     21  H   UNL d   1      28.627 -14.780  -2.045  0.00  0.00     0.164 HD
BRANCH  19  22
ATOM     22  O   UNL d   1      26.455 -13.753  -2.430  0.00  0.00    -0.294 OA
BRANCH  22  23
ATOM     23  C   UNL d   1      25.816 -14.583  -3.465  0.00  0.00     0.061 C 
ATOM     24  C   UNL d   1      24.757 -13.781  -4.239  0.00  0.00     0.046 C 
ATOM     25  C   UNL d   1      26.861 -15.181  -4.417  0.00  0.00     0.046 C 
ATOM     26  C   UNL d   1      25.081 -15.771  -2.800  0.00  0.00     0.046 C 
ENDBRANCH  22  23
ENDBRANCH  19  22
ENDBRANCH  17  18
ENDBRANCH  16  17
ENDBRANCH   4  16
TORSDOF 7
ENDMDL
MODEL 3
REMARK VINA RESULT:   -27.366      3.606      4.960
REMARK INTER + INTRA:         -30.826
REMARK INTER:                 -29.454
REMARK INTRA:                  -1.372
REMARK CONF_INDEPENDENT:        2.088
REMARK UNBOUND:                -1.372
REMARK  7 active torsions:
REMARK  status: ('A' for Active; 'I' for Inactive)
REMARK    1  A    between atoms: C_7  and  C_8 
REMARK    2  A    between atoms: C_8  and  N_9 
REMARK       I    between atoms: N_9  and  C_10 
REMARK       I    between atoms: C_10  and  N_12 
REMARK    3  A    between atoms: N_12  and  C_13 
REMARK    4  A    between atoms: C_13  and  C_14 
REMARK    5  A    between atoms: C_14  and  N_15 
REMARK       I    between atoms: N_15  and  C_16 
REMARK    6  A    between atoms: C_16  and  O_18 
REMARK    7  A    between atoms: O_18  and  C_19 
ROOT
ATOM      1  N   UNL d   1      24.389 -17.748   0.546  0.00  0.00    -0.339 N 
ATOM      2  C   UNL d   1      25.710 -18.023   0.329  0.00  0.00     0.316 C 
ATOM      3  O   UNL d   1      26.135 -19.158   0.153  0.00  0.00    -0.247 OA
ATOM      4  N   UNL d   1      26.525 -16.904   0.327  0.00  0.00    -0.342 N 
ATOM      5  H   UNL d   1      24.131 -16.791   0.659  0.00  0.00     0.164 HD
ATOM      6  H   UNL d   1      26.130 -15.987   0.478  0.00  0.00     0.164 HD
ENDROOT
BRANCH   1   7
ATOM      7  C   UNL d   1      23.353 -18.782   0.583  0.00  0.00     0.167 C 
BRANCH   7   8
ATOM      8  C   UNL d   1      22.074 -18.404  -0.130  0.00  0.00     0.009 A 
ATOM      9  C   UNL d   1      21.756 -17.279  -0.879  0.00  0.00     0.034 A 
ATOM     10  N   UNL d   1      20.463 -17.434  -1.292  0.00  0.00    -0.282 N 
ATOM     11  C   UNL d   1      22.531 -16.079  -1.257  0.00  0.00     0.070 C 
ATOM     12  N   UNL d   1      19.904 -18.577  -0.895  0.00  0.00    -0.179 NA
ATOM     13  H   UNL d   1      19.905 -16.798  -1.853  0.00  0.00     0.189 HD
ATOM     14  C   UNL d   1      20.863 -19.183  -0.185  0.00  0.00     0.060 A 
ATOM     15  C   UNL d   1      20.562 -20.510   0.420  0.00  0.00     0.073 C 
ENDBRANCH   7   8
ENDBRANCH   1   7
BRANCH   4  16
ATOM     16  C   UNL d   1      27.972 -17.043   0.109  0.00  0.00     0.144 C 
BRANCH  16  17
ATOM     17  C   UNL d   1      28.826 -15.803   0.436  0.00  0.00     0.144 C 
BRANCH  17  18
ATOM     18  N   UNL d   1      28.468 -15.100   1.676  0.00  0.00    -0.335 N 
ATOM     19  C   UNL d   1      27.414 -14.214   1.683  0.00  0.00     0.361 C 
ATOM     20  O   UNL d   1      26.757 -13.992   0.670  0.00  0.00    -0.238 OA
ATOM     21  H   UNL d   1      28.976 -15.246   2.539  0.00  0.00     0.164 HD
BRANCH  19  22
ATOM     22  O   UNL d   1      27.191 -13.632   2.904  0.00  0.00    -0.294 OA
BRANCH  22  23
ATOM     23  C   UNL d   1      27.943 -12.413   3.245  0.00  0.00     0.061 C 
ATOM     24  C   UNL d   1      29.413 -12.532   2.812  0.00  0.00     0.046 C 
ATOM     25  C   UNL d   1      27.286 -11.168   2.631  0.00  0.00     0.046 C 
ATOM     26  C   UNL d   1      27.941 -12.212   4.779  0.00  0.00     0.046 C 
ENDBRANCH  22  23
ENDBRANCH  19  22
ENDBRANCH  17  18
ENDBRANCH  16  17
ENDBRANCH   4  16
TORSDOF 7
ENDMDL
