MODEL 1
REMARK VINA RESULT:    -7.356      0.000      0.000
REMARK INTER + INTRA:         -10.218
REMARK INTER:                  -8.549
REMARK INTRA:                  -1.669
REMARK CONF_INDEPENDENT:        1.193
REMARK UNBOUND:                -1.669
REMARK  4 active torsions:
REMARK  status: ('A' for Active; 'I' for Inactive)
REMARK    1  A    between atoms: C_3  and  C_4 
REMARK    2  A    between atoms: C_11  and  C_12 
REMARK    3  A    between atoms: C_15  and  O_16 
REMARK    4  A    between atoms: C_17  and  O_18 
ROOT
ATOM      1  C   UNL d   1      26.948 -17.023  -0.094  0.00  0.00     0.074 C 
ATOM      2  C   UNL d   1      25.541 -16.991  -0.522  0.00  0.00     0.069 A 
ATOM      3  C   UNL d   1      24.884 -16.219  -1.488  0.00  0.00     0.069 A 
ATOM      4  N   UNL d   1      23.534 -16.547  -1.473  0.00  0.00    -0.338 N 
ATOM      5  C   UNL d   1      23.419 -17.530  -0.512  0.00  0.00     0.147 A 
ATOM      6  N   UNL d   1      24.588 -17.775   0.035  0.00  0.00    -0.173 N 
ATOM      7  O   UNL d   1      24.704 -18.646   0.938  0.00  0.00    -0.079 OA
ATOM      8  H   UNL d   1      22.802 -16.157  -2.055  0.00  0.00     0.167 HD
ENDROOT
BRANCH   5   9
ATOM      9  C   UNL d   1      22.151 -18.212  -0.215  0.00  0.00     0.013 A 
ATOM     10  C   UNL d   1      21.812 -18.574   1.101  0.00  0.00     0.018 A 
ATOM     11  C   UNL d   1      20.672 -19.348   1.369  0.00  0.00     0.040 A 
ATOM     12  C   UNL d   1      19.830 -19.705   0.323  0.00  0.00     0.098 A 
ATOM     13  C   UNL d   1      20.142 -19.324  -0.980  0.00  0.00     0.099 A 
ATOM     14  C   UNL d   1      21.287 -18.580  -1.254  0.00  0.00     0.054 A 
BRANCH  12  15
ATOM     15  O   UNL d   1      18.686 -20.424   0.532  0.00  0.00    -0.358 OA
ATOM     16  H   UNL d   1      18.071 -20.235  -0.198  0.00  0.00     0.217 HD
ENDBRANCH  12  15
BRANCH  13  17
ATOM     17  O   UNL d   1      19.340 -19.700  -2.021  0.00  0.00    -0.358 OA
ATOM     18  H   UNL d   1      18.472 -19.897  -1.617  0.00  0.00     0.217 HD
ENDBRANCH  13  17
ENDBRANCH   5   9
BRANCH   3  19
ATOM     19  C   UNL d   1      25.482 -15.201  -2.349  0.00  0.00    -0.007 A 
ATOM     20  C   UNL d   1      24.677 -14.181  -2.878  0.00  0.00     0.014 A 
ATOM     21  C   UNL d   1      25.161 -13.342  -3.883  0.00  0.00     0.001 A 
ATOM     22  C   UNL d   1      26.479 -13.469  -4.313  0.00  0.00     0.000 A 
ATOM     23  C   UNL d   1      27.297 -14.460  -3.772  0.00  0.00     0.001 A 
ATOM     24  C   UNL d   1      26.798 -15.332  -2.800  0.00  0.00     0.014 A 
ENDBRANCH   3  19
TORSDOF 4
ENDMDL
MODEL 2
REMARK VINA RESULT:    -6.907      4.057      7.864
REMARK INTER + INTRA:          -9.936
REMARK INTER:                  -8.100
REMARK INTRA:                  -1.836
REMARK CONF_INDEPENDENT:        1.193
REMARK UNBOUND:                -1.836
REMARK  4 active torsions:
REMARK  status: ('A' for Active; 'I' for Inactive)
REMARK    1  A    between atoms: C_3  and  C_4 
REMARK    2  A    between atoms: C_11  and  C_12 
REMARK    3  A    between atoms: C_15  and  O_16 
REMARK    4  A    between atoms: C_17  and  O_18 
ROOT
ATOM      1  C   UNL d   1      27.584 -17.072   0.138  0.00  0.00     0.074 C 
ATOM      2  C   UNL d   1      27.035 -16.539  -1.119  0.00  0.00     0.069 A 
ATOM      3  C   UNL d   1      25.731 -16.518  -1.625  0.00  0.00     0.069 A 
ATOM      4  N   UNL d   1      25.754 -15.931  -2.884  0.00  0.00    -0.338 N 
ATOM      5  C   UNL d   1      27.075 -15.590  -3.092  0.00  0.00     0.147 A 
ATOM      6  N   UNL d   1      27.808 -15.951  -2.063  0.00  0.00    -0.173 N 
ATOM      7  O   UNL d   1      29.048 -15.727  -2.049  0.00  0.00    -0.079 OA
ATOM      8  H   UNL d   1      24.967 -15.776  -3.503  0.00  0.00     0.167 HD
ENDROOT
BRANCH   5   9
ATOM      9  C   UNL d   1      27.537 -14.876  -4.291  0.00  0.00     0.013 A 
ATOM     10  C   UNL d   1      27.024 -13.610  -4.626  0.00  0.00     0.018 A 
ATOM     11  C   UNL d   1      27.359 -12.991  -5.840  0.00  0.00     0.040 A 
ATOM     12  C   UNL d   1      28.263 -13.609  -6.693  0.00  0.00     0.098 A 
ATOM     13  C   UNL d   1      28.800 -14.849  -6.355  0.00  0.00     0.099 A 
ATOM     14  C   UNL d   1      28.450 -15.481  -5.164  0.00  0.00     0.054 A 
BRANCH  12  15
ATOM     15  O   UNL d   1      28.655 -13.032  -7.870  0.00  0.00    -0.358 OA
ATOM     16  H   UNL d   1      29.129 -13.702  -8.394  0.00  0.00     0.217 HD
ENDBRANCH  12  15
BRANCH  13  17
ATOM     17  O   UNL d   1      29.664 -15.483  -7.204  0.00  0.00    -0.358 OA
ATOM     18  H   UNL d   1      29.637 -14.964  -8.032  0.00  0.00     0.217 HD
ENDBRANCH  13  17
ENDBRANCH   5   9
BRANCH   3  19
ATOM     19  C   UNL d   1      24.534 -17.057  -0.982  0.00  0.00    -0.007 A 
ATOM     20  C   UNL d   1      24.524 -18.389  -0.543  0.00  0.00     0.014 A 
ATOM     21  C   UNL d   1      23.333 -18.998  -0.145  0.00  0.00     0.001 A 
ATOM     22  C   UNL d   1      22.155 -18.256  -0.114  0.00  0.00     0.000 A 
ATOM     23  C   UNL d   1      22.161 -16.922  -0.520  0.00  0.00     0.001 A 
ATOM     24  C   UNL d   1      23.345 -16.325  -0.964  0.00  0.00     0.014 A 
ENDBRANCH   3  19
TORSDOF 4
ENDMDL
MODEL 3
REMARK VINA RESULT:    -6.394      4.771      8.744
REMARK INTER + INTRA:          -9.190
REMARK INTER:                  -7.587
REMARK INTRA:                  -1.603
REMARK CONF_INDEPENDENT:        1.193
REMARK UNBOUND:                -1.603
REMARK  4 active torsions:
REMARK  status: ('A' for Active; 'I' for Inactive)
REMARK    1  A    between atoms: C_3  and  C_4 
REMARK    2  A    between atoms: C_11  and  C_12 
REMARK    3  A    between atoms: C_15  and  O_16 
REMARK    4  A    between atoms: C_17  and  O_18 
ROOT
ATOM      1  C   UNL d   1      24.040 -14.076  -3.148  0.00  0.00     0.074 C 
ATOM      2  C   UNL d   1      25.338 -14.713  -3.419  0.00  0.00     0.069 A 
ATOM      3  C   UNL d   1      26.021 -15.741  -2.757  0.00  0.00     0.069 A 
ATOM      4  N   UNL d   1      27.239 -15.944  -3.395  0.00  0.00    -0.338 N 
ATOM      5  C   UNL d   1      27.245 -15.046  -4.442  0.00  0.00     0.147 A 
ATOM      6  N   UNL d   1      26.140 -14.336  -4.443  0.00  0.00    -0.173 N 
ATOM      7  O   UNL d   1      25.943 -13.456  -5.323  0.00  0.00    -0.079 OA
ATOM      8  H   UNL d   1      27.955 -16.617  -3.148  0.00  0.00     0.167 HD
ENDROOT
BRANCH   5   9
ATOM      9  C   UNL d   1      28.337 -14.970  -5.423  0.00  0.00     0.013 A 
ATOM     10  C   UNL d   1      29.521 -15.709  -5.252  0.00  0.00     0.018 A 
ATOM     11  C   UNL d   1      30.617 -15.532  -6.110  0.00  0.00     0.040 A 
ATOM     12  C   UNL d   1      30.505 -14.659  -7.186  0.00  0.00     0.098 A 
ATOM     13  C   UNL d   1      29.325 -13.946  -7.381  0.00  0.00     0.099 A 
ATOM     14  C   UNL d   1      28.244 -14.098  -6.516  0.00  0.00     0.054 A 
BRANCH  12  15
ATOM     15  O   UNL d   1      31.528 -14.478  -8.076  0.00  0.00    -0.358 OA
ATOM     16  H   UNL d   1      31.163 -14.063  -8.877  0.00  0.00     0.217 HD
ENDBRANCH  12  15
BRANCH  13  17
ATOM     17  O   UNL d   1      29.217 -13.059  -8.416  0.00  0.00    -0.358 OA
ATOM     18  H   UNL d   1      29.908 -13.325  -9.054  0.00  0.00     0.217 HD
ENDBRANCH  13  17
ENDBRANCH   5   9
BRANCH   3  19
ATOM     19  C   UNL d   1      25.574 -16.465  -1.569  0.00  0.00    -0.007 A 
ATOM     20  C   UNL d   1      26.522 -16.938  -0.649  0.00  0.00     0.014 A 
ATOM     21  C   UNL d   1      26.151 -17.827   0.360  0.00  0.00     0.001 A 
ATOM     22  C   UNL d   1      24.815 -18.193   0.501  0.00  0.00     0.000 A 
ATOM     23  C   UNL d   1      23.860 -17.704  -0.390  0.00  0.00     0.001 A 
ATOM     24  C   UNL d   1      24.239 -16.851  -1.431  0.00  0.00     0.014 A 
ENDBRANCH   3  19
TORSDOF 4
ENDMDL
MODEL 4
REMARK VINA RESULT:    -6.212      3.191      7.168
REMARK INTER + INTRA:          -9.189
REMARK INTER:                  -7.406
REMARK INTRA:                  -1.783
REMARK CONF_INDEPENDENT:        1.193
REMARK UNBOUND:                -1.783
REMARK  4 active torsions:
REMARK  status: ('A' for Active; 'I' for Inactive)
REMARK    1  A    between atoms: C_3  and  C_4 
REMARK    2  A    between atoms: C_11  and  C_12 
REMARK    3  A    between atoms: C_15  and  O_16 
REMARK    4  A    between atoms: C_17  and  O_18 
ROOT
ATOM      1  C   UNL d   1      26.037 -18.575   0.718  0.00  0.00     0.074 C 
ATOM      2  C   UNL d   1      25.560 -17.725  -0.385  0.00  0.00     0.069 A 
ATOM      3  C   UNL d   1      24.300 -17.605  -0.984  0.00  0.00     0.069 A 
ATOM      4  N   UNL d   1      24.390 -16.685  -2.021  0.00  0.00    -0.338 N 
ATOM      5  C   UNL d   1      25.701 -16.256  -2.002  0.00  0.00     0.147 A 
ATOM      6  N   UNL d   1      26.370 -16.869  -1.052  0.00  0.00    -0.173 N 
ATOM      7  O   UNL d   1      27.590 -16.618  -0.862  0.00  0.00    -0.079 OA
ATOM      8  H   UNL d   1      23.647 -16.387  -2.642  0.00  0.00     0.167 HD
ENDROOT
BRANCH   5   9
ATOM      9  C   UNL d   1      26.215 -15.217  -2.906  0.00  0.00     0.013 A 
ATOM     10  C   UNL d   1      26.162 -13.857  -2.554  0.00  0.00     0.018 A 
ATOM     11  C   UNL d   1      26.522 -12.856  -3.471  0.00  0.00     0.040 A 
ATOM     12  C   UNL d   1      27.001 -13.221  -4.723  0.00  0.00     0.098 A 
ATOM     13  C   UNL d   1      27.086 -14.567  -5.069  0.00  0.00     0.099 A 
ATOM     14  C   UNL d   1      26.704 -15.563  -4.173  0.00  0.00     0.054 A 
BRANCH  12  15
ATOM     15  O   UNL d   1      27.403 -12.289  -5.640  0.00  0.00    -0.358 OA
ATOM     16  H   UNL d   1      27.311 -12.677  -6.527  0.00  0.00     0.217 HD
ENDBRANCH  12  15
BRANCH  13  17
ATOM     17  O   UNL d   1      27.523 -14.935  -6.311  0.00  0.00    -0.358 OA
ATOM     18  H   UNL d   1      27.647 -14.097  -6.798  0.00  0.00     0.217 HD
ENDBRANCH  13  17
ENDBRANCH   5   9
BRANCH   3  19
ATOM     19  C   UNL d   1      23.089 -18.343  -0.629  0.00  0.00    -0.007 A 
ATOM     20  C   UNL d   1      22.254 -18.830  -1.645  0.00  0.00     0.014 A 
ATOM     21  C   UNL d   1      20.984 -19.325  -1.344  0.00  0.00     0.001 A 
ATOM     22  C   UNL d   1      20.570 -19.404  -0.018  0.00  0.00     0.000 A 
ATOM     23  C   UNL d   1      21.405 -18.950   1.002  0.00  0.00     0.001 A 
ATOM     24  C   UNL d   1      22.659 -18.409   0.697  0.00  0.00     0.014 A 
ENDBRANCH   3  19
TORSDOF 4
ENDMDL
MODEL 5
REMARK VINA RESULT:    -6.151      4.150      8.188
REMARK INTER + INTRA:          -9.174
REMARK INTER:                  -7.344
REMARK INTRA:                  -1.830
REMARK CONF_INDEPENDENT:        1.193
REMARK UNBOUND:                -1.830
REMARK  4 active torsions:
REMARK  status: ('A' for Active; 'I' for Inactive)
REMARK    1  A    between atoms: C_3  and  C_4 
REMARK    2  A    between atoms: C_11  and  C_12 
REMARK    3  A    between atoms: C_15  and  O_16 
REMARK    4  A    between atoms: C_17  and  O_18 
ROOT
ATOM      1  C   UNL d   1      25.479 -14.776  -2.563  0.00  0.00     0.074 C 
ATOM      2  C   UNL d   1      26.199 -15.249  -1.369  0.00  0.00     0.069 A 
ATOM      3  C   UNL d   1      25.863 -16.206  -0.404  0.00  0.00     0.069 A 
ATOM      4  N   UNL d   1      26.875 -16.247   0.547  0.00  0.00    -0.338 N 
ATOM      5  C   UNL d   1      27.808 -15.329   0.114  0.00  0.00     0.147 A 
ATOM      6  N   UNL d   1      27.403 -14.754  -0.996  0.00  0.00    -0.173 N 
ATOM      7  O   UNL d   1      28.113 -13.881  -1.563  0.00  0.00    -0.079 OA
ATOM      8  H   UNL d   1      26.919 -16.838   1.370  0.00  0.00     0.167 HD
ENDROOT
BRANCH   5   9
ATOM      9  C   UNL d   1      29.085 -15.099   0.804  0.00  0.00     0.013 A 
ATOM     10  C   UNL d   1      30.295 -15.579   0.272  0.00  0.00     0.018 A 
ATOM     11  C   UNL d   1      31.493 -15.485   0.997  0.00  0.00     0.040 A 
ATOM     12  C   UNL d   1      31.495 -14.846   2.230  0.00  0.00     0.098 A 
ATOM     13  C   UNL d   1      30.306 -14.340   2.751  0.00  0.00     0.099 A 
ATOM     14  C   UNL d   1      29.109 -14.456   2.049  0.00  0.00     0.054 A 
BRANCH  12  15
ATOM     15  O   UNL d   1      32.641 -14.690   2.960  0.00  0.00    -0.358 OA
ATOM     16  H   UNL d   1      32.392 -14.422   3.862  0.00  0.00     0.217 HD
ENDBRANCH  12  15
BRANCH  13  17
ATOM     17  O   UNL d   1      30.290 -13.741   3.980  0.00  0.00    -0.358 OA
ATOM     18  H   UNL d   1      31.161 -13.942   4.375  0.00  0.00     0.217 HD
ENDBRANCH  13  17
ENDBRANCH   5   9
BRANCH   3  19
ATOM     19  C   UNL d   1      24.642 -17.007  -0.354  0.00  0.00    -0.007 A 
ATOM     20  C   UNL d   1      24.734 -18.407  -0.322  0.00  0.00     0.014 A 
ATOM     21  C   UNL d   1      23.600 -19.198  -0.512  0.00  0.00     0.001 A 
ATOM     22  C   UNL d   1      22.354 -18.594  -0.662  0.00  0.00     0.000 A 
ATOM     23  C   UNL d   1      22.249 -17.204  -0.666  0.00  0.00     0.001 A 
ATOM     24  C   UNL d   1      23.391 -16.410  -0.523  0.00  0.00     0.014 A 
ENDBRANCH   3  19
TORSDOF 4
ENDMDL
MODEL 6
REMARK VINA RESULT:    -5.980      6.608      8.949
REMARK INTER + INTRA:          -8.948
REMARK INTER:                  -7.173
REMARK INTRA:                  -1.775
REMARK CONF_INDEPENDENT:        1.193
REMARK UNBOUND:                -1.775
REMARK  4 active torsions:
REMARK  status: ('A' for Active; 'I' for Inactive)
REMARK    1  A    between atoms: C_3  and  C_4 
REMARK    2  A    between atoms: C_11  and  C_12 
REMARK    3  A    between atoms: C_15  and  O_16 
REMARK    4  A    between atoms: C_17  and  O_18 
ROOT
ATOM      1  C   UNL d   1      30.913 -18.601  -4.334  0.00  0.00     0.074 C 
ATOM      2  C   UNL d   1      30.311 -17.540  -5.157  0.00  0.00     0.069 A 
ATOM      3  C   UNL d   1      30.432 -17.244  -6.519  0.00  0.00     0.069 A 
ATOM      4  N   UNL d   1      29.684 -16.105  -6.792  0.00  0.00    -0.338 N 
ATOM      5  C   UNL d   1      29.111 -15.759  -5.585  0.00  0.00     0.147 A 
ATOM      6  N   UNL d   1      29.485 -16.597  -4.645  0.00  0.00    -0.173 N 
ATOM      7  O   UNL d   1      29.070 -16.462  -3.463  0.00  0.00    -0.079 OA
ATOM      8  H   UNL d   1      29.576 -15.642  -7.687  0.00  0.00     0.167 HD
ENDROOT
BRANCH   5   9
ATOM      9  C   UNL d   1      28.178 -14.634  -5.437  0.00  0.00     0.013 A 
ATOM     10  C   UNL d   1      28.631 -13.304  -5.478  0.00  0.00     0.018 A 
ATOM     11  C   UNL d   1      27.767 -12.234  -5.197  0.00  0.00     0.040 A 
ATOM     12  C   UNL d   1      26.426 -12.491  -4.940  0.00  0.00     0.098 A 
ATOM     13  C   UNL d   1      25.962 -13.804  -4.927  0.00  0.00     0.099 A 
ATOM     14  C   UNL d   1      26.821 -14.871  -5.178  0.00  0.00     0.054 A 
BRANCH  12  15
ATOM     15  O   UNL d   1      25.532 -11.485  -4.699  0.00  0.00    -0.358 OA
ATOM     16  H   UNL d   1      24.666 -11.886  -4.511  0.00  0.00     0.217 HD
ENDBRANCH  12  15
BRANCH  13  17
ATOM     17  O   UNL d   1      24.652 -14.071  -4.641  0.00  0.00    -0.358 OA
ATOM     18  H   UNL d   1      24.149 -13.324  -5.020  0.00  0.00     0.217 HD
ENDBRANCH  13  17
ENDBRANCH   5   9
BRANCH   3  19
ATOM     19  C   UNL d   1      31.236 -17.965  -7.504  0.00  0.00    -0.007 A 
ATOM     20  C   UNL d   1      32.370 -17.350  -8.055  0.00  0.00     0.014 A 
ATOM     21  C   UNL d   1      33.017 -17.909  -9.158  0.00  0.00     0.001 A 
ATOM     22  C   UNL d   1      32.577 -19.126  -9.672  0.00  0.00     0.000 A 
ATOM     23  C   UNL d   1      31.469 -19.760  -9.112  0.00  0.00     0.001 A 
ATOM     24  C   UNL d   1      30.791 -19.176  -8.037  0.00  0.00     0.014 A 
ENDBRANCH   3  19
TORSDOF 4
ENDMDL
MODEL 7
REMARK VINA RESULT:    -5.863      5.048      7.563
REMARK INTER + INTRA:          -8.911
REMARK INTER:                  -7.056
REMARK INTRA:                  -1.855
REMARK CONF_INDEPENDENT:        1.193
REMARK UNBOUND:                -1.855
REMARK  4 active torsions:
REMARK  status: ('A' for Active; 'I' for Inactive)
REMARK    1  A    between atoms: C_3  and  C_4 
REMARK    2  A    between atoms: C_11  and  C_12 
REMARK    3  A    between atoms: C_15  and  O_16 
REMARK    4  A    between atoms: C_17  and  O_18 
ROOT
ATOM      1  C   UNL d   1      30.638 -14.437   1.835  0.00  0.00     0.074 C 
ATOM      2  C   UNL d   1      29.220 -14.290   1.467  0.00  0.00     0.069 A 
ATOM      3  C   UNL d   1      28.086 -14.021   2.242  0.00  0.00     0.069 A 
ATOM      4  N   UNL d   1      26.972 -14.027   1.412  0.00  0.00    -0.338 N 
ATOM      5  C   UNL d   1      27.472 -14.276   0.150  0.00  0.00     0.147 A 
ATOM      6  N   UNL d   1      28.776 -14.430   0.196  0.00  0.00    -0.173 N 
ATOM      7  O   UNL d   1      29.431 -14.664  -0.854  0.00  0.00    -0.079 OA
ATOM      8  H   UNL d   1      26.008 -13.867   1.679  0.00  0.00     0.167 HD
ENDROOT
BRANCH   5   9
ATOM      9  C   UNL d   1      26.627 -14.302  -1.053  0.00  0.00     0.013 A 
ATOM     10  C   UNL d   1      26.134 -15.513  -1.568  0.00  0.00     0.018 A 
ATOM     11  C   UNL d   1      25.447 -15.555  -2.791  0.00  0.00     0.040 A 
ATOM     12  C   UNL d   1      25.193 -14.369  -3.470  0.00  0.00     0.098 A 
ATOM     13  C   UNL d   1      25.651 -13.161  -2.951  0.00  0.00     0.099 A 
ATOM     14  C   UNL d   1      26.357 -13.118  -1.752  0.00  0.00     0.054 A 
BRANCH  12  15
ATOM     15  O   UNL d   1      24.494 -14.347  -4.645  0.00  0.00    -0.358 OA
ATOM     16  H   UNL d   1      24.300 -13.419  -4.866  0.00  0.00     0.217 HD
ENDBRANCH  12  15
BRANCH  13  17
ATOM     17  O   UNL d   1      25.437 -11.993  -3.628  0.00  0.00    -0.358 OA
ATOM     18  H   UNL d   1      24.743 -12.200  -4.285  0.00  0.00     0.217 HD
ENDBRANCH  13  17
ENDBRANCH   5   9
BRANCH   3  19
ATOM     19  C   UNL d   1      28.044 -13.811   3.688  0.00  0.00    -0.007 A 
ATOM     20  C   UNL d   1      27.797 -12.526   4.193  0.00  0.00     0.014 A 
ATOM     21  C   UNL d   1      27.984 -12.247   5.548  0.00  0.00     0.001 A 
ATOM     22  C   UNL d   1      28.348 -13.270   6.420  0.00  0.00     0.000 A 
ATOM     23  C   UNL d   1      28.565 -14.558   5.932  0.00  0.00     0.001 A 
ATOM     24  C   UNL d   1      28.426 -14.827   4.567  0.00  0.00     0.014 A 
ENDBRANCH   3  19
TORSDOF 4
ENDMDL
MODEL 8
REMARK VINA RESULT:    -5.637      2.280      3.689
REMARK INTER + INTRA:          -8.683
REMARK INTER:                  -6.831
REMARK INTRA:                  -1.853
REMARK CONF_INDEPENDENT:        1.193
REMARK UNBOUND:                -1.853
REMARK  4 active torsions:
REMARK  status: ('A' for Active; 'I' for Inactive)
REMARK    1  A    between atoms: C_3  and  C_4 
REMARK    2  A    between atoms: C_11  and  C_12 
REMARK    3  A    between atoms: C_15  and  O_16 
REMARK    4  A    between atoms: C_17  and  O_18 
ROOT
ATOM      1  C   UNL d   1      28.134 -13.330  -1.594  0.00  0.00     0.074 C 
ATOM      2  C   UNL d   1      27.166 -14.325  -2.083  0.00  0.00     0.069 A 
ATOM      3  C   UNL d   1      26.982 -14.893  -3.349  0.00  0.00     0.069 A 
ATOM      4  N   UNL d   1      25.895 -15.756  -3.292  0.00  0.00    -0.338 N 
ATOM      5  C   UNL d   1      25.468 -15.702  -1.982  0.00  0.00     0.147 A 
ATOM      6  N   UNL d   1      26.211 -14.866  -1.292  0.00  0.00    -0.173 N 
ATOM      7  O   UNL d   1      25.989 -14.672  -0.067  0.00  0.00    -0.079 OA
ATOM      8  H   UNL d   1      25.514 -16.312  -4.049  0.00  0.00     0.167 HD
ENDROOT
BRANCH   5   9
ATOM      9  C   UNL d   1      24.364 -16.525  -1.466  0.00  0.00     0.013 A 
ATOM     10  C   UNL d   1      23.122 -15.954  -1.141  0.00  0.00     0.018 A 
ATOM     11  C   UNL d   1      22.116 -16.710  -0.519  0.00  0.00     0.040 A 
ATOM     12  C   UNL d   1      22.329 -18.062  -0.282  0.00  0.00     0.098 A 
ATOM     13  C   UNL d   1      23.545 -18.644  -0.630  0.00  0.00     0.099 A 
ATOM     14  C   UNL d   1      24.557 -17.892  -1.222  0.00  0.00     0.054 A 
BRANCH  12  15
ATOM     15  O   UNL d   1      21.369 -18.854   0.284  0.00  0.00    -0.358 OA
ATOM     16  H   UNL d   1      21.782 -19.699   0.537  0.00  0.00     0.217 HD
ENDBRANCH  12  15
BRANCH  13  17
ATOM     17  O   UNL d   1      23.778 -19.966  -0.370  0.00  0.00    -0.358 OA
ATOM     18  H   UNL d   1      23.068 -20.235   0.245  0.00  0.00     0.217 HD
ENDBRANCH  13  17
ENDBRANCH   5   9
BRANCH   3  19
ATOM     19  C   UNL d   1      27.757 -14.612  -4.556  0.00  0.00    -0.007 A 
ATOM     20  C   UNL d   1      29.017 -15.205  -4.724  0.00  0.00     0.014 A 
ATOM     21  C   UNL d   1      29.875 -14.777  -5.738  0.00  0.00     0.001 A 
ATOM     22  C   UNL d   1      29.449 -13.803  -6.638  0.00  0.00     0.000 A 
ATOM     23  C   UNL d   1      28.186 -13.229  -6.498  0.00  0.00     0.001 A 
ATOM     24  C   UNL d   1      27.345 -13.623  -5.452  0.00  0.00     0.014 A 
ENDBRANCH   3  19
TORSDOF 4
ENDMDL
MODEL 9
REMARK VINA RESULT:    -5.634      4.051      6.287
REMARK INTER + INTRA:          -8.657
REMARK INTER:                  -6.827
REMARK INTRA:                  -1.831
REMARK CONF_INDEPENDENT:        1.193
REMARK UNBOUND:                -1.831
REMARK  4 active torsions:
REMARK  status: ('A' for Active; 'I' for Inactive)
REMARK    1  A    between atoms: C_3  and  C_4 
REMARK    2  A    between atoms: C_11  and  C_12 
REMARK    3  A    between atoms: C_15  and  O_16 
REMARK    4  A    between atoms: C_17  and  O_18 
ROOT
ATOM      1  C   UNL d   1      27.781 -13.138  -6.621  0.00  0.00     0.074 C 
ATOM      2  C   UNL d   1      27.205 -13.385  -5.290  0.00  0.00     0.069 A 
ATOM      3  C   UNL d   1      26.468 -12.560  -4.432  0.00  0.00     0.069 A 
ATOM      4  N   UNL d   1      26.196 -13.265  -3.266  0.00  0.00    -0.338 N 
ATOM      5  C   UNL d   1      26.758 -14.509  -3.465  0.00  0.00     0.147 A 
ATOM      6  N   UNL d   1      27.343 -14.565  -4.640  0.00  0.00    -0.173 N 
ATOM      7  O   UNL d   1      27.918 -15.619  -5.021  0.00  0.00    -0.079 OA
ATOM      8  H   UNL d   1      25.683 -12.936  -2.456  0.00  0.00     0.167 HD
ENDROOT
BRANCH   5   9
ATOM      9  C   UNL d   1      26.645 -15.603  -2.489  0.00  0.00     0.013 A 
ATOM     10  C   UNL d   1      25.391 -16.125  -2.125  0.00  0.00     0.018 A 
ATOM     11  C   UNL d   1      25.271 -17.069  -1.094  0.00  0.00     0.040 A 
ATOM     12  C   UNL d   1      26.417 -17.544  -0.468  0.00  0.00     0.098 A 
ATOM     13  C   UNL d   1      27.666 -17.055  -0.843  0.00  0.00     0.099 A 
ATOM     14  C   UNL d   1      27.788 -16.097  -1.847  0.00  0.00     0.054 A 
BRANCH  12  15
ATOM     15  O   UNL d   1      26.361 -18.493   0.515  0.00  0.00    -0.358 OA
ATOM     16  H   UNL d   1      27.255 -18.603   0.882  0.00  0.00     0.217 HD
ENDBRANCH  12  15
BRANCH  13  17
ATOM     17  O   UNL d   1      28.797 -17.489  -0.210  0.00  0.00    -0.358 OA
ATOM     18  H   UNL d   1      28.529 -18.300   0.265  0.00  0.00     0.217 HD
ENDBRANCH  13  17
ENDBRANCH   5   9
BRANCH   3  19
ATOM     19  C   UNL d   1      26.075 -11.173  -4.675  0.00  0.00    -0.007 A 
ATOM     20  C   UNL d   1      25.881 -10.308  -3.588  0.00  0.00     0.014 A 
ATOM     21  C   UNL d   1      25.282  -9.061  -3.771  0.00  0.00     0.001 A 
ATOM     22  C   UNL d   1      24.941  -8.640  -5.053  0.00  0.00     0.000 A 
ATOM     23  C   UNL d   1      25.159  -9.480  -6.144  0.00  0.00     0.001 A 
ATOM     24  C   UNL d   1      25.714 -10.750  -5.956  0.00  0.00     0.014 A 
ENDBRANCH   3  19
TORSDOF 4
ENDMDL
