MODEL 1
REMARK VINA RESULT:    -9.482      0.000      0.000
REMARK INTER + INTRA:         -14.845
REMARK INTER:                 -12.763
REMARK INTRA:                  -2.082
REMARK CONF_INDEPENDENT:        3.281
REMARK UNBOUND:                -2.082
REMARK  11 active torsions:
REMARK  status: ('A' for Active; 'I' for Inactive)
REMARK    1  A    between atoms: C_2  and  C_3 
REMARK    2  A    between atoms: C_3  and  C_4 
REMARK    3  A    between atoms: C_4  and  O_5 
REMARK    4  A    between atoms: O_5  and  C_6 
REMARK    5  A    between atoms: C_11  and  C_12 
REMARK       I    between atoms: C_12  and  N_14 
REMARK    6  A    between atoms: N_14  and  C_15 
REMARK    7  A    between atoms: C_15  and  N_17 
REMARK    8  A    between atoms: N_17  and  N_18 
REMARK       I    between atoms: N_18  and  C_19 
REMARK    9  A    between atoms: C_19  and  C_21 
REMARK   10  A    between atoms: C_24  and  N_25 
REMARK       I    between atoms: N_25  and  C_26 
REMARK   11  A    between atoms: C_26  and  C_28 
ROOT
ATOM      1  N   UNL d   1      27.426 -14.121  -0.436  0.00  0.00    -0.273 N 
ATOM      2  H   UNL d   1      27.367 -13.156  -0.753  0.00  0.00     0.189 HD
ENDROOT
BRANCH   1   3
ATOM      3  C   UNL d   1      28.538 -14.721   0.196  0.00  0.00     0.193 C 
ATOM      4  S   UNL d   1      29.788 -15.334  -0.756  0.00  0.00    -0.039 SA
BRANCH   3   5
ATOM      5  N   UNL d   1      28.511 -14.768   1.616  0.00  0.00    -0.298 N 
ATOM      6  C   UNL d   1      27.648 -14.014   2.466  0.00  0.00     0.260 C 
ATOM      7  O   UNL d   1      26.566 -13.568   2.085  0.00  0.00    -0.267 OA
ATOM      8  H   UNL d   1      29.278 -15.226   2.091  0.00  0.00     0.171 HD
BRANCH   6   9
ATOM      9  C   UNL d   1      27.973 -13.722   3.917  0.00  0.00     0.065 A 
ATOM     10  C   UNL d   1      28.449 -14.823   4.686  0.00  0.00     0.020 A 
ATOM     11  C   UNL d   1      28.851 -14.700   6.024  0.00  0.00     0.001 A 
ATOM     12  C   UNL d   1      28.789 -13.462   6.637  0.00  0.00     0.003 A 
ATOM     13  C   UNL d   1      28.238 -12.383   5.937  0.00  0.00     0.038 A 
ATOM     14  C   UNL d   1      27.816 -12.508   4.589  0.00  0.00     0.084 A 
BRANCH  14  15
ATOM     15  O   UNL d   1      27.404 -11.347   4.005  0.00  0.00    -0.350 OA
BRANCH  15  16
ATOM     16  C   UNL d   1      27.659 -10.139   4.727  0.00  0.00     0.175 C 
BRANCH  16  17
ATOM     17  C   UNL d   1      27.957  -9.106   3.647  0.00  0.00     0.026 C 
BRANCH  17  18
ATOM     18  C   UNL d   1      27.247  -9.439   2.348  0.00  0.00    -0.002 C 
ATOM     19  C   UNL d   1      25.749  -9.292   2.526  0.00  0.00     0.005 C 
ENDBRANCH  17  18
ENDBRANCH  16  17
ENDBRANCH  15  16
ENDBRANCH  14  15
ENDBRANCH   6   9
ENDBRANCH   3   5
ENDBRANCH   1   3
BRANCH   1  20
ATOM     20  N   UNL d   1      26.123 -14.799  -0.374  0.00  0.00    -0.264 N 
ATOM     21  C   UNL d   1      25.748 -15.763  -1.302  0.00  0.00     0.270 C 
ATOM     22  O   UNL d   1      26.302 -15.947  -2.380  0.00  0.00    -0.266 OA
ATOM     23  H   UNL d   1      25.680 -14.751   0.541  0.00  0.00     0.190 HD
BRANCH  21  24
ATOM     24  C   UNL d   1      24.639 -16.694  -0.943  0.00  0.00     0.033 A 
ATOM     25  C   UNL d   1      24.936 -18.053  -0.727  0.00  0.00     0.019 A 
ATOM     26  C   UNL d   1      23.923 -18.984  -0.406  0.00  0.00     0.030 A 
ATOM     27  C   UNL d   1      22.603 -18.550  -0.235  0.00  0.00     0.034 A 
ATOM     28  C   UNL d   1      22.321 -17.211  -0.533  0.00  0.00     0.030 A 
ATOM     29  C   UNL d   1      23.316 -16.285  -0.879  0.00  0.00     0.019 A 
BRANCH  27  30
ATOM     30  N   UNL d   1      21.600 -19.440   0.257  0.00  0.00    -0.327 N 
ATOM     31  C   UNL d   1      20.527 -19.926  -0.480  0.00  0.00     0.226 C 
ATOM     32  O   UNL d   1      20.282 -19.698  -1.668  0.00  0.00    -0.273 OA
ATOM     33  H   UNL d   1      21.634 -19.678   1.244  0.00  0.00     0.169 HD
BRANCH  31  34
ATOM     34  C   UNL d   1      19.603 -20.851   0.234  0.00  0.00     0.078 A 
ATOM     35  C   UNL d   1      19.126 -20.553   1.637  0.00  0.00     0.015 A 
ATOM     36  C   UNL d   1      18.154 -20.450   0.502  0.00  0.00     0.015 A 
ENDBRANCH  31  34
ENDBRANCH  27  30
ENDBRANCH  21  24
ENDBRANCH   1  20
TORSDOF 11
ENDMDL
MODEL 2
REMARK VINA RESULT:    -9.316      4.501      6.634
REMARK INTER + INTRA:         -15.609
REMARK INTER:                 -12.597
REMARK INTRA:                  -3.012
REMARK CONF_INDEPENDENT:        3.281
REMARK UNBOUND:                -3.012
REMARK  11 active torsions:
REMARK  status: ('A' for Active; 'I' for Inactive)
REMARK    1  A    between atoms: C_2  and  C_3 
REMARK    2  A    between atoms: C_3  and  C_4 
REMARK    3  A    between atoms: C_4  and  O_5 
REMARK    4  A    between atoms: O_5  and  C_6 
REMARK    5  A    between atoms: C_11  and  C_12 
REMARK       I    between atoms: C_12  and  N_14 
REMARK    6  A    between atoms: N_14  and  C_15 
REMARK    7  A    between atoms: C_15  and  N_17 
REMARK    8  A    between atoms: N_17  and  N_18 
REMARK       I    between atoms: N_18  and  C_19 
REMARK    9  A    between atoms: C_19  and  C_21 
REMARK   10  A    between atoms: C_24  and  N_25 
REMARK       I    between atoms: N_25  and  C_26 
REMARK   11  A    between atoms: C_26  and  C_28 
ROOT
ATOM      1  N   UNL d   1      28.943 -16.584  -0.165  0.00  0.00    -0.273 N 
ATOM      2  H   UNL d   1      29.456 -16.145   0.596  0.00  0.00     0.189 HD
ENDROOT
BRANCH   1   3
ATOM      3  C   UNL d   1      29.508 -17.315  -1.235  0.00  0.00     0.193 C 
ATOM      4  S   UNL d   1      30.597 -18.557  -0.892  0.00  0.00    -0.039 SA
BRANCH   3   5
ATOM      5  N   UNL d   1      29.110 -16.932  -2.545  0.00  0.00    -0.298 N 
ATOM      6  C   UNL d   1      29.971 -16.763  -3.669  0.00  0.00     0.260 C 
ATOM      7  O   UNL d   1      31.063 -17.324  -3.758  0.00  0.00    -0.267 OA
ATOM      8  H   UNL d   1      28.175 -16.566  -2.668  0.00  0.00     0.171 HD
BRANCH   6   9
ATOM      9  C   UNL d   1      29.605 -15.906  -4.864  0.00  0.00     0.065 A 
ATOM     10  C   UNL d   1      30.658 -15.630  -5.783  0.00  0.00     0.020 A 
ATOM     11  C   UNL d   1      30.465 -14.905  -6.968  0.00  0.00     0.001 A 
ATOM     12  C   UNL d   1      29.201 -14.430  -7.270  0.00  0.00     0.003 A 
ATOM     13  C   UNL d   1      28.169 -14.605  -6.342  0.00  0.00     0.038 A 
ATOM     14  C   UNL d   1      28.365 -15.324  -5.136  0.00  0.00     0.084 A 
BRANCH  14  15
ATOM     15  O   UNL d   1      27.242 -15.506  -4.385  0.00  0.00    -0.350 OA
BRANCH  15  16
ATOM     16  C   UNL d   1      25.993 -15.217  -5.017  0.00  0.00     0.175 C 
BRANCH  16  17
ATOM     17  C   UNL d   1      25.695 -13.774  -4.631  0.00  0.00     0.026 C 
BRANCH  17  18
ATOM     18  C   UNL d   1      25.152 -13.677  -3.217  0.00  0.00    -0.002 C 
ATOM     19  C   UNL d   1      26.232 -13.167  -2.284  0.00  0.00     0.005 C 
ENDBRANCH  17  18
ENDBRANCH  16  17
ENDBRANCH  15  16
ENDBRANCH  14  15
ENDBRANCH   6   9
ENDBRANCH   3   5
ENDBRANCH   1   3
BRANCH   1  20
ATOM     20  N   UNL d   1      27.501 -16.702   0.090  0.00  0.00    -0.264 N 
ATOM     21  C   UNL d   1      26.556 -16.508  -0.911  0.00  0.00     0.270 C 
ATOM     22  O   UNL d   1      26.782 -15.970  -1.989  0.00  0.00    -0.266 OA
ATOM     23  H   UNL d   1      27.275 -17.234   0.928  0.00  0.00     0.190 HD
BRANCH  21  24
ATOM     24  C   UNL d   1      25.184 -17.054  -0.701  0.00  0.00     0.033 A 
ATOM     25  C   UNL d   1      25.041 -18.377  -0.242  0.00  0.00     0.019 A 
ATOM     26  C   UNL d   1      23.766 -18.953  -0.047  0.00  0.00     0.030 A 
ATOM     27  C   UNL d   1      22.613 -18.186  -0.251  0.00  0.00     0.034 A 
ATOM     28  C   UNL d   1      22.779 -16.900  -0.783  0.00  0.00     0.030 A 
ATOM     29  C   UNL d   1      24.040 -16.330  -1.005  0.00  0.00     0.019 A 
BRANCH  27  30
ATOM     30  N   UNL d   1      21.326 -18.693   0.107  0.00  0.00    -0.327 N 
ATOM     31  C   UNL d   1      20.458 -19.354  -0.754  0.00  0.00     0.226 C 
ATOM     32  O   UNL d   1      20.661 -19.634  -1.939  0.00  0.00    -0.273 OA
ATOM     33  H   UNL d   1      20.990 -18.489   1.043  0.00  0.00     0.169 HD
BRANCH  31  34
ATOM     34  C   UNL d   1      19.165 -19.804  -0.165  0.00  0.00     0.078 A 
ATOM     35  C   UNL d   1      19.064 -21.099   0.607  0.00  0.00     0.015 A 
ATOM     36  C   UNL d   1      18.955 -19.801   1.347  0.00  0.00     0.015 A 
ENDBRANCH  31  34
ENDBRANCH  27  30
ENDBRANCH  21  24
ENDBRANCH   1  20
TORSDOF 11
ENDMDL
MODEL 3
REMARK VINA RESULT:    -9.315      4.776      6.861
REMARK INTER + INTRA:         -14.617
REMARK INTER:                 -12.597
REMARK INTRA:                  -2.020
REMARK CONF_INDEPENDENT:        3.281
REMARK UNBOUND:                -2.020
REMARK  11 active torsions:
REMARK  status: ('A' for Active; 'I' for Inactive)
REMARK    1  A    between atoms: C_2  and  C_3 
REMARK    2  A    between atoms: C_3  and  C_4 
REMARK    3  A    between atoms: C_4  and  O_5 
REMARK    4  A    between atoms: O_5  and  C_6 
REMARK    5  A    between atoms: C_11  and  C_12 
REMARK       I    between atoms: C_12  and  N_14 
REMARK    6  A    between atoms: N_14  and  C_15 
REMARK    7  A    between atoms: C_15  and  N_17 
REMARK    8  A    between atoms: N_17  and  N_18 
REMARK       I    between atoms: N_18  and  C_19 
REMARK    9  A    between atoms: C_19  and  C_21 
REMARK   10  A    between atoms: C_24  and  N_25 
REMARK       I    between atoms: N_25  and  C_26 
REMARK   11  A    between atoms: C_26  and  C_28 
ROOT
ATOM      1  N   UNL d   1      26.991 -13.783  -1.993  0.00  0.00    -0.273 N 
ATOM      2  H   UNL d   1      27.750 -13.884  -1.323  0.00  0.00     0.189 HD
ENDROOT
BRANCH   1   3
ATOM      3  C   UNL d   1      27.113 -13.334  -3.327  0.00  0.00     0.193 C 
ATOM      4  S   UNL d   1      26.003 -12.208  -3.916  0.00  0.00    -0.039 SA
BRANCH   3   5
ATOM      5  N   UNL d   1      28.182 -13.883  -4.086  0.00  0.00    -0.298 N 
ATOM      6  C   UNL d   1      28.080 -14.938  -5.040  0.00  0.00     0.260 C 
ATOM      7  O   UNL d   1      27.030 -15.205  -5.624  0.00  0.00    -0.267 OA
ATOM      8  H   UNL d   1      29.128 -13.649  -3.812  0.00  0.00     0.171 HD
BRANCH   6   9
ATOM      9  C   UNL d   1      29.259 -15.801  -5.441  0.00  0.00     0.065 A 
ATOM     10  C   UNL d   1      29.770 -15.593  -6.754  0.00  0.00     0.020 A 
ATOM     11  C   UNL d   1      30.895 -16.268  -7.250  0.00  0.00     0.001 A 
ATOM     12  C   UNL d   1      31.548 -17.179  -6.439  0.00  0.00     0.003 A 
ATOM     13  C   UNL d   1      31.014 -17.473  -5.180  0.00  0.00     0.038 A 
ATOM     14  C   UNL d   1      29.867 -16.803  -4.682  0.00  0.00     0.084 A 
BRANCH  14  15
ATOM     15  O   UNL d   1      29.530 -17.116  -3.399  0.00  0.00    -0.350 OA
BRANCH  15  16
ATOM     16  C   UNL d   1      30.435 -16.695  -2.375  0.00  0.00     0.175 C 
BRANCH  16  17
ATOM     17  C   UNL d   1      29.767 -17.124  -1.075  0.00  0.00     0.026 C 
BRANCH  17  18
ATOM     18  C   UNL d   1      28.422 -16.445  -0.890  0.00  0.00    -0.002 C 
ATOM     19  C   UNL d   1      27.405 -17.444  -0.376  0.00  0.00     0.005 C 
ENDBRANCH  17  18
ENDBRANCH  16  17
ENDBRANCH  15  16
ENDBRANCH  14  15
ENDBRANCH   6   9
ENDBRANCH   3   5
ENDBRANCH   1   3
BRANCH   1  20
ATOM     20  N   UNL d   1      25.755 -14.466  -1.585  0.00  0.00    -0.264 N 
ATOM     21  C   UNL d   1      25.195 -15.491  -2.338  0.00  0.00     0.270 C 
ATOM     22  O   UNL d   1      25.487 -15.741  -3.502  0.00  0.00    -0.266 OA
ATOM     23  H   UNL d   1      25.536 -14.361  -0.597  0.00  0.00     0.190 HD
BRANCH  21  24
ATOM     24  C   UNL d   1      24.222 -16.405  -1.673  0.00  0.00     0.033 A 
ATOM     25  C   UNL d   1      24.492 -17.787  -1.652  0.00  0.00     0.019 A 
ATOM     26  C   UNL d   1      23.596 -18.701  -1.056  0.00  0.00     0.030 A 
ATOM     27  C   UNL d   1      22.443 -18.233  -0.413  0.00  0.00     0.034 A 
ATOM     28  C   UNL d   1      22.158 -16.866  -0.516  0.00  0.00     0.030 A 
ATOM     29  C   UNL d   1      23.028 -15.954  -1.131  0.00  0.00     0.019 A 
BRANCH  27  30
ATOM     30  N   UNL d   1      21.618 -19.121   0.343  0.00  0.00    -0.327 N 
ATOM     31  C   UNL d   1      20.485 -19.767  -0.137  0.00  0.00     0.226 C 
ATOM     32  O   UNL d   1      20.028 -19.707  -1.283  0.00  0.00    -0.273 OA
ATOM     33  H   UNL d   1      21.834 -19.229   1.329  0.00  0.00     0.169 HD
BRANCH  31  34
ATOM     34  C   UNL d   1      19.776 -20.655   0.826  0.00  0.00     0.078 A 
ATOM     35  C   UNL d   1      18.688 -20.122   1.729  0.00  0.00     0.015 A 
ATOM     36  C   UNL d   1      18.315 -21.037   0.603  0.00  0.00     0.015 A 
ENDBRANCH  31  34
ENDBRANCH  27  30
ENDBRANCH  21  24
ENDBRANCH   1  20
TORSDOF 11
ENDMDL
MODEL 4
REMARK VINA RESULT:    -8.715      4.748      7.037
REMARK INTER + INTRA:         -14.985
REMARK INTER:                 -11.996
REMARK INTRA:                  -2.989
REMARK CONF_INDEPENDENT:        3.281
REMARK UNBOUND:                -2.989
REMARK  11 active torsions:
REMARK  status: ('A' for Active; 'I' for Inactive)
REMARK    1  A    between atoms: C_2  and  C_3 
REMARK    2  A    between atoms: C_3  and  C_4 
REMARK    3  A    between atoms: C_4  and  O_5 
REMARK    4  A    between atoms: O_5  and  C_6 
REMARK    5  A    between atoms: C_11  and  C_12 
REMARK       I    between atoms: C_12  and  N_14 
REMARK    6  A    between atoms: N_14  and  C_15 
REMARK    7  A    between atoms: C_15  and  N_17 
REMARK    8  A    between atoms: N_17  and  N_18 
REMARK       I    between atoms: N_18  and  C_19 
REMARK    9  A    between atoms: C_19  and  C_21 
REMARK   10  A    between atoms: C_24  and  N_25 
REMARK       I    between atoms: N_25  and  C_26 
REMARK   11  A    between atoms: C_26  and  C_28 
ROOT
ATOM      1  N   UNL d   1      29.593 -16.345  -1.998  0.00  0.00    -0.273 N 
ATOM      2  H   UNL d   1      30.408 -16.240  -1.399  0.00  0.00     0.189 HD
ENDROOT
BRANCH   1   3
ATOM      3  C   UNL d   1      29.591 -16.318  -3.411  0.00  0.00     0.193 C 
ATOM      4  S   UNL d   1      30.529 -17.441  -4.251  0.00  0.00    -0.039 SA
BRANCH   3   5
ATOM      5  N   UNL d   1      28.786 -15.321  -4.026  0.00  0.00    -0.298 N 
ATOM      6  C   UNL d   1      28.730 -15.029  -5.421  0.00  0.00     0.260 C 
ATOM      7  O   UNL d   1      29.030 -15.854  -6.284  0.00  0.00    -0.267 OA
ATOM      8  H   UNL d   1      28.349 -14.630  -3.430  0.00  0.00     0.171 HD
BRANCH   6   9
ATOM      9  C   UNL d   1      28.268 -13.691  -5.963  0.00  0.00     0.065 A 
ATOM     10  C   UNL d   1      28.756 -13.336  -7.253  0.00  0.00     0.020 A 
ATOM     11  C   UNL d   1      28.371 -12.161  -7.916  0.00  0.00     0.001 A 
ATOM     12  C   UNL d   1      27.478 -11.301  -7.302  0.00  0.00     0.003 A 
ATOM     13  C   UNL d   1      27.056 -11.577  -5.997  0.00  0.00     0.038 A 
ATOM     14  C   UNL d   1      27.456 -12.756  -5.319  0.00  0.00     0.084 A 
BRANCH  14  15
ATOM     15  O   UNL d   1      26.877 -12.941  -4.098  0.00  0.00    -0.350 OA
BRANCH  15  16
ATOM     16  C   UNL d   1      25.517 -12.524  -3.962  0.00  0.00     0.175 C 
BRANCH  16  17
ATOM     17  C   UNL d   1      24.726 -13.824  -3.872  0.00  0.00     0.026 C 
BRANCH  17  18
ATOM     18  C   UNL d   1      25.634 -15.035  -3.986  0.00  0.00    -0.002 C 
ATOM     19  C   UNL d   1      25.570 -15.598  -5.391  0.00  0.00     0.005 C 
ENDBRANCH  17  18
ENDBRANCH  16  17
ENDBRANCH  15  16
ENDBRANCH  14  15
ENDBRANCH   6   9
ENDBRANCH   3   5
ENDBRANCH   1   3
BRANCH   1  20
ATOM     20  N   UNL d   1      28.413 -16.871  -1.298  0.00  0.00    -0.264 N 
ATOM     21  C   UNL d   1      27.195 -16.199  -1.295  0.00  0.00     0.270 C 
ATOM     22  O   UNL d   1      27.046 -15.026  -1.615  0.00  0.00    -0.266 OA
ATOM     23  H   UNL d   1      28.462 -17.869  -1.106  0.00  0.00     0.190 HD
BRANCH  21  24
ATOM     24  C   UNL d   1      25.966 -16.970  -0.952  0.00  0.00     0.033 A 
ATOM     25  C   UNL d   1      24.783 -16.720  -1.672  0.00  0.00     0.019 A 
ATOM     26  C   UNL d   1      23.583 -17.404  -1.375  0.00  0.00     0.030 A 
ATOM     27  C   UNL d   1      23.570 -18.398  -0.389  0.00  0.00     0.034 A 
ATOM     28  C   UNL d   1      24.737 -18.572   0.366  0.00  0.00     0.030 A 
ATOM     29  C   UNL d   1      25.925 -17.878   0.096  0.00  0.00     0.019 A 
BRANCH  27  30
ATOM     30  N   UNL d   1      22.417 -19.218  -0.195  0.00  0.00    -0.327 N 
ATOM     31  C   UNL d   1      21.114 -18.861  -0.525  0.00  0.00     0.226 C 
ATOM     32  O   UNL d   1      20.748 -17.809  -1.058  0.00  0.00    -0.273 OA
ATOM     33  H   UNL d   1      22.550 -20.100   0.289  0.00  0.00     0.169 HD
BRANCH  31  34
ATOM     34  C   UNL d   1      20.062 -19.876  -0.240  0.00  0.00     0.078 A 
ATOM     35  C   UNL d   1      20.152 -20.781   0.967  0.00  0.00     0.015 A 
ATOM     36  C   UNL d   1      19.112 -19.703   0.942  0.00  0.00     0.015 A 
ENDBRANCH  31  34
ENDBRANCH  27  30
ENDBRANCH  21  24
ENDBRANCH   1  20
TORSDOF 11
ENDMDL
MODEL 5
REMARK VINA RESULT:    -8.606      4.031      5.869
REMARK INTER + INTRA:         -15.250
REMARK INTER:                 -11.887
REMARK INTRA:                  -3.363
REMARK CONF_INDEPENDENT:        3.281
REMARK UNBOUND:                -3.363
REMARK  11 active torsions:
REMARK  status: ('A' for Active; 'I' for Inactive)
REMARK    1  A    between atoms: C_2  and  C_3 
REMARK    2  A    between atoms: C_3  and  C_4 
REMARK    3  A    between atoms: C_4  and  O_5 
REMARK    4  A    between atoms: O_5  and  C_6 
REMARK    5  A    between atoms: C_11  and  C_12 
REMARK       I    between atoms: C_12  and  N_14 
REMARK    6  A    between atoms: N_14  and  C_15 
REMARK    7  A    between atoms: C_15  and  N_17 
REMARK    8  A    between atoms: N_17  and  N_18 
REMARK       I    between atoms: N_18  and  C_19 
REMARK    9  A    between atoms: C_19  and  C_21 
REMARK   10  A    between atoms: C_24  and  N_25 
REMARK       I    between atoms: N_25  and  C_26 
REMARK   11  A    between atoms: C_26  and  C_28 
ROOT
ATOM      1  N   UNL d   1      28.725 -15.989   0.392  0.00  0.00    -0.273 N 
ATOM      2  H   UNL d   1      29.125 -16.413   1.226  0.00  0.00     0.189 HD
ENDROOT
BRANCH   1   3
ATOM      3  C   UNL d   1      29.438 -15.590  -0.761  0.00  0.00     0.193 C 
ATOM      4  S   UNL d   1      31.075 -15.978  -0.886  0.00  0.00    -0.039 SA
BRANCH   3   5
ATOM      5  N   UNL d   1      28.704 -14.872  -1.744  0.00  0.00    -0.298 N 
ATOM      6  C   UNL d   1      28.609 -13.453  -1.852  0.00  0.00     0.260 C 
ATOM      7  O   UNL d   1      29.463 -12.695  -1.394  0.00  0.00    -0.267 OA
ATOM      8  H   UNL d   1      28.040 -15.386  -2.310  0.00  0.00     0.171 HD
BRANCH   6   9
ATOM      9  C   UNL d   1      27.467 -12.757  -2.565  0.00  0.00     0.065 A 
ATOM     10  C   UNL d   1      27.504 -11.333  -2.565  0.00  0.00     0.020 A 
ATOM     11  C   UNL d   1      26.555 -10.547  -3.235  0.00  0.00     0.001 A 
ATOM     12  C   UNL d   1      25.533 -11.168  -3.931  0.00  0.00     0.003 A 
ATOM     13  C   UNL d   1      25.418 -12.561  -3.870  0.00  0.00     0.038 A 
ATOM     14  C   UNL d   1      26.367 -13.357  -3.181  0.00  0.00     0.084 A 
BRANCH  14  15
ATOM     15  O   UNL d   1      26.185 -14.703  -3.302  0.00  0.00    -0.350 OA
BRANCH  15  16
ATOM     16  C   UNL d   1      26.001 -15.210  -4.626  0.00  0.00     0.175 C 
BRANCH  16  17
ATOM     17  C   UNL d   1      27.280 -14.827  -5.361  0.00  0.00     0.026 C 
BRANCH  17  18
ATOM     18  C   UNL d   1      28.501 -15.459  -4.719  0.00  0.00    -0.002 C 
ATOM     19  C   UNL d   1      29.462 -15.931  -5.791  0.00  0.00     0.005 C 
ENDBRANCH  17  18
ENDBRANCH  16  17
ENDBRANCH  15  16
ENDBRANCH  14  15
ENDBRANCH   6   9
ENDBRANCH   3   5
ENDBRANCH   1   3
BRANCH   1  20
ATOM     20  N   UNL d   1      27.263 -16.113   0.314  0.00  0.00    -0.264 N 
ATOM     21  C   UNL d   1      26.630 -16.721  -0.764  0.00  0.00     0.270 C 
ATOM     22  O   UNL d   1      27.162 -16.957  -1.843  0.00  0.00    -0.266 OA
ATOM     23  H   UNL d   1      26.795 -16.022   1.213  0.00  0.00     0.190 HD
BRANCH  21  24
ATOM     24  C   UNL d   1      25.226 -17.191  -0.584  0.00  0.00     0.033 A 
ATOM     25  C   UNL d   1      24.996 -18.550  -0.300  0.00  0.00     0.019 A 
ATOM     26  C   UNL d   1      23.686 -19.056  -0.141  0.00  0.00     0.030 A 
ATOM     27  C   UNL d   1      22.589 -18.188  -0.205  0.00  0.00     0.034 A 
ATOM     28  C   UNL d   1      22.839 -16.858  -0.568  0.00  0.00     0.030 A 
ATOM     29  C   UNL d   1      24.134 -16.354  -0.753  0.00  0.00     0.019 A 
BRANCH  27  30
ATOM     30  N   UNL d   1      21.276 -18.646   0.124  0.00  0.00    -0.327 N 
ATOM     31  C   UNL d   1      20.419 -19.312  -0.745  0.00  0.00     0.226 C 
ATOM     32  O   UNL d   1      20.655 -19.640  -1.911  0.00  0.00    -0.273 OA
ATOM     33  H   UNL d   1      20.914 -18.400   1.039  0.00  0.00     0.169 HD
BRANCH  31  34
ATOM     34  C   UNL d   1      19.094 -19.705  -0.188  0.00  0.00     0.078 A 
ATOM     35  C   UNL d   1      18.916 -20.998   0.573  0.00  0.00     0.015 A 
ATOM     36  C   UNL d   1      18.851 -19.701   1.319  0.00  0.00     0.015 A 
ENDBRANCH  31  34
ENDBRANCH  27  30
ENDBRANCH  21  24
ENDBRANCH   1  20
TORSDOF 11
ENDMDL
MODEL 6
REMARK VINA RESULT:    -8.512      5.459      7.820
REMARK INTER + INTRA:         -14.609
REMARK INTER:                 -11.793
REMARK INTRA:                  -2.815
REMARK CONF_INDEPENDENT:        3.281
REMARK UNBOUND:                -2.815
REMARK  11 active torsions:
REMARK  status: ('A' for Active; 'I' for Inactive)
REMARK    1  A    between atoms: C_2  and  C_3 
REMARK    2  A    between atoms: C_3  and  C_4 
REMARK    3  A    between atoms: C_4  and  O_5 
REMARK    4  A    between atoms: O_5  and  C_6 
REMARK    5  A    between atoms: C_11  and  C_12 
REMARK       I    between atoms: C_12  and  N_14 
REMARK    6  A    between atoms: N_14  and  C_15 
REMARK    7  A    between atoms: C_15  and  N_17 
REMARK    8  A    between atoms: N_17  and  N_18 
REMARK       I    between atoms: N_18  and  C_19 
REMARK    9  A    between atoms: C_19  and  C_21 
REMARK   10  A    between atoms: C_24  and  N_25 
REMARK       I    between atoms: N_25  and  C_26 
REMARK   11  A    between atoms: C_26  and  C_28 
ROOT
ATOM      1  N   UNL d   1      26.746 -15.188  -3.749  0.00  0.00    -0.273 N 
ATOM      2  H   UNL d   1      27.708 -15.501  -3.640  0.00  0.00     0.189 HD
ENDROOT
BRANCH   1   3
ATOM      3  C   UNL d   1      26.296 -14.172  -4.622  0.00  0.00     0.193 C 
ATOM      4  S   UNL d   1      24.875 -13.343  -4.250  0.00  0.00    -0.039 SA
BRANCH   3   5
ATOM      5  N   UNL d   1      27.091 -13.928  -5.775  0.00  0.00    -0.298 N 
ATOM      6  C   UNL d   1      28.339 -14.548  -6.082  0.00  0.00     0.260 C 
ATOM      7  O   UNL d   1      28.664 -15.645  -5.627  0.00  0.00    -0.267 OA
ATOM      8  H   UNL d   1      26.867 -13.122  -6.344  0.00  0.00     0.171 HD
BRANCH   6   9
ATOM      9  C   UNL d   1      29.357 -13.928  -7.016  0.00  0.00     0.065 A 
ATOM     10  C   UNL d   1      30.666 -14.489  -6.978  0.00  0.00     0.020 A 
ATOM     11  C   UNL d   1      31.701 -14.067  -7.825  0.00  0.00     0.001 A 
ATOM     12  C   UNL d   1      31.455 -13.062  -8.744  0.00  0.00     0.003 A 
ATOM     13  C   UNL d   1      30.207 -12.429  -8.740  0.00  0.00     0.038 A 
ATOM     14  C   UNL d   1      29.164 -12.843  -7.874  0.00  0.00     0.084 A 
BRANCH  14  15
ATOM     15  O   UNL d   1      27.974 -12.205  -8.061  0.00  0.00    -0.350 OA
BRANCH  15  16
ATOM     16  C   UNL d   1      27.812 -10.943  -7.411  0.00  0.00     0.175 C 
BRANCH  16  17
ATOM     17  C   UNL d   1      26.344 -10.908  -7.004  0.00  0.00     0.026 C 
BRANCH  17  18
ATOM     18  C   UNL d   1      26.162 -10.273  -5.637  0.00  0.00    -0.002 C 
ATOM     19  C   UNL d   1      25.093  -9.201  -5.706  0.00  0.00     0.005 C 
ENDBRANCH  17  18
ENDBRANCH  16  17
ENDBRANCH  15  16
ENDBRANCH  14  15
ENDBRANCH   6   9
ENDBRANCH   3   5
ENDBRANCH   1   3
BRANCH   1  20
ATOM     20  N   UNL d   1      25.760 -16.106  -3.163  0.00  0.00    -0.264 N 
ATOM     21  C   UNL d   1      25.937 -16.676  -1.907  0.00  0.00     0.270 C 
ATOM     22  O   UNL d   1      27.000 -16.706  -1.299  0.00  0.00    -0.266 OA
ATOM     23  H   UNL d   1      24.835 -16.034  -3.580  0.00  0.00     0.190 HD
BRANCH  21  24
ATOM     24  C   UNL d   1      24.741 -17.230  -1.209  0.00  0.00     0.033 A 
ATOM     25  C   UNL d   1      23.556 -16.471  -1.186  0.00  0.00     0.019 A 
ATOM     26  C   UNL d   1      22.399 -16.936  -0.521  0.00  0.00     0.030 A 
ATOM     27  C   UNL d   1      22.397 -18.201   0.079  0.00  0.00     0.034 A 
ATOM     28  C   UNL d   1      23.611 -18.901   0.111  0.00  0.00     0.030 A 
ATOM     29  C   UNL d   1      24.771 -18.435  -0.523  0.00  0.00     0.019 A 
BRANCH  27  30
ATOM     30  N   UNL d   1      21.191 -18.759   0.603  0.00  0.00    -0.327 N 
ATOM     31  C   UNL d   1      20.236 -19.442  -0.140  0.00  0.00     0.226 C 
ATOM     32  O   UNL d   1      20.282 -19.702  -1.346  0.00  0.00    -0.273 OA
ATOM     33  H   UNL d   1      20.981 -18.577   1.579  0.00  0.00     0.169 HD
BRANCH  31  34
ATOM     34  C   UNL d   1      19.053 -19.946   0.614  0.00  0.00     0.078 A 
ATOM     35  C   UNL d   1      18.020 -20.828  -0.047  0.00  0.00     0.015 A 
ATOM     36  C   UNL d   1      18.935 -21.423   0.979  0.00  0.00     0.015 A 
ENDBRANCH  31  34
ENDBRANCH  27  30
ENDBRANCH  21  24
ENDBRANCH   1  20
TORSDOF 11
ENDMDL
MODEL 7
REMARK VINA RESULT:    -8.422      5.006      7.518
REMARK INTER + INTRA:         -14.537
REMARK INTER:                 -11.704
REMARK INTRA:                  -2.834
REMARK CONF_INDEPENDENT:        3.281
REMARK UNBOUND:                -2.834
REMARK  11 active torsions:
REMARK  status: ('A' for Active; 'I' for Inactive)
REMARK    1  A    between atoms: C_2  and  C_3 
REMARK    2  A    between atoms: C_3  and  C_4 
REMARK    3  A    between atoms: C_4  and  O_5 
REMARK    4  A    between atoms: O_5  and  C_6 
REMARK    5  A    between atoms: C_11  and  C_12 
REMARK       I    between atoms: C_12  and  N_14 
REMARK    6  A    between atoms: N_14  and  C_15 
REMARK    7  A    between atoms: C_15  and  N_17 
REMARK    8  A    between atoms: N_17  and  N_18 
REMARK       I    between atoms: N_18  and  C_19 
REMARK    9  A    between atoms: C_19  and  C_21 
REMARK   10  A    between atoms: C_24  and  N_25 
REMARK       I    between atoms: N_25  and  C_26 
REMARK   11  A    between atoms: C_26  and  C_28 
ROOT
ATOM      1  N   UNL d   1      26.277 -14.014  -3.130  0.00  0.00    -0.273 N 
ATOM      2  H   UNL d   1      26.680 -13.445  -2.390  0.00  0.00     0.189 HD
ENDROOT
BRANCH   1   3
ATOM      3  C   UNL d   1      26.485 -13.841  -4.517  0.00  0.00     0.193 C 
ATOM      4  S   UNL d   1      26.756 -15.200  -5.480  0.00  0.00    -0.039 SA
BRANCH   3   5
ATOM      5  N   UNL d   1      26.454 -12.505  -5.002  0.00  0.00    -0.298 N 
ATOM      6  C   UNL d   1      26.269 -11.330  -4.215  0.00  0.00     0.260 C 
ATOM      7  O   UNL d   1      26.535 -11.287  -3.014  0.00  0.00    -0.267 OA
ATOM      8  H   UNL d   1      26.371 -12.364  -6.001  0.00  0.00     0.171 HD
BRANCH   6   9
ATOM      9  C   UNL d   1      25.760 -10.025  -4.793  0.00  0.00     0.065 A 
ATOM     10  C   UNL d   1      25.447  -9.002  -3.852  0.00  0.00     0.020 A 
ATOM     11  C   UNL d   1      25.025  -7.720  -4.233  0.00  0.00     0.001 A 
ATOM     12  C   UNL d   1      24.903  -7.421  -5.578  0.00  0.00     0.003 A 
ATOM     13  C   UNL d   1      25.112  -8.432  -6.521  0.00  0.00     0.038 A 
ATOM     14  C   UNL d   1      25.524  -9.734  -6.139  0.00  0.00     0.084 A 
BRANCH  14  15
ATOM     15  O   UNL d   1      25.793 -10.579  -7.173  0.00  0.00    -0.350 OA
BRANCH  15  16
ATOM     16  C   UNL d   1      27.056 -10.417  -7.824  0.00  0.00     0.175 C 
BRANCH  16  17
ATOM     17  C   UNL d   1      27.412 -11.813  -8.321  0.00  0.00     0.026 C 
BRANCH  17  18
ATOM     18  C   UNL d   1      28.875 -12.134  -8.073  0.00  0.00    -0.002 C 
ATOM     19  C   UNL d   1      28.993 -13.400  -7.249  0.00  0.00     0.005 C 
ENDBRANCH  17  18
ENDBRANCH  16  17
ENDBRANCH  15  16
ENDBRANCH  14  15
ENDBRANCH   6   9
ENDBRANCH   3   5
ENDBRANCH   1   3
BRANCH   1  20
ATOM     20  N   UNL d   1      25.700 -15.278  -2.652  0.00  0.00    -0.264 N 
ATOM     21  C   UNL d   1      25.541 -15.552  -1.299  0.00  0.00     0.270 C 
ATOM     22  O   UNL d   1      26.088 -14.934  -0.393  0.00  0.00    -0.266 OA
ATOM     23  H   UNL d   1      25.152 -15.770  -3.355  0.00  0.00     0.190 HD
BRANCH  21  24
ATOM     24  C   UNL d   1      24.582 -16.625  -0.905  0.00  0.00     0.033 A 
ATOM     25  C   UNL d   1      23.205 -16.336  -0.895  0.00  0.00     0.019 A 
ATOM     26  C   UNL d   1      22.253 -17.306  -0.509  0.00  0.00     0.030 A 
ATOM     27  C   UNL d   1      22.669 -18.604  -0.186  0.00  0.00     0.034 A 
ATOM     28  C   UNL d   1      24.048 -18.843  -0.127  0.00  0.00     0.030 A 
ATOM     29  C   UNL d   1      25.001 -17.878  -0.482  0.00  0.00     0.019 A 
BRANCH  27  30
ATOM     30  N   UNL d   1      21.713 -19.642   0.036  0.00  0.00    -0.327 N 
ATOM     31  C   UNL d   1      20.370 -19.583  -0.316  0.00  0.00     0.226 C 
ATOM     32  O   UNL d   1      19.796 -18.656  -0.895  0.00  0.00    -0.273 OA
ATOM     33  H   UNL d   1      22.023 -20.454   0.559  0.00  0.00     0.169 HD
BRANCH  31  34
ATOM     34  C   UNL d   1      19.553 -20.787   0.007  0.00  0.00     0.078 A 
ATOM     35  C   UNL d   1      18.682 -20.836   1.241  0.00  0.00     0.015 A 
ATOM     36  C   UNL d   1      18.031 -20.747  -0.105  0.00  0.00     0.015 A 
ENDBRANCH  31  34
ENDBRANCH  27  30
ENDBRANCH  21  24
ENDBRANCH   1  20
TORSDOF 11
ENDMDL
MODEL 8
REMARK VINA RESULT:    -8.305      2.124      3.524
REMARK INTER + INTRA:         -14.523
REMARK INTER:                 -11.586
REMARK INTRA:                  -2.937
REMARK CONF_INDEPENDENT:        3.281
REMARK UNBOUND:                -2.937
REMARK  11 active torsions:
REMARK  status: ('A' for Active; 'I' for Inactive)
REMARK    1  A    between atoms: C_2  and  C_3 
REMARK    2  A    between atoms: C_3  and  C_4 
REMARK    3  A    between atoms: C_4  and  O_5 
REMARK    4  A    between atoms: O_5  and  C_6 
REMARK    5  A    between atoms: C_11  and  C_12 
REMARK       I    between atoms: C_12  and  N_14 
REMARK    6  A    between atoms: N_14  and  C_15 
REMARK    7  A    between atoms: C_15  and  N_17 
REMARK    8  A    between atoms: N_17  and  N_18 
REMARK       I    between atoms: N_18  and  C_19 
REMARK    9  A    between atoms: C_19  and  C_21 
REMARK   10  A    between atoms: C_24  and  N_25 
REMARK       I    between atoms: N_25  and  C_26 
REMARK   11  A    between atoms: C_26  and  C_28 
ROOT
ATOM      1  N   UNL d   1      27.045 -13.813  -1.911  0.00  0.00    -0.273 N 
ATOM      2  H   UNL d   1      27.114 -13.785  -2.926  0.00  0.00     0.189 HD
ENDROOT
BRANCH   1   3
ATOM      3  C   UNL d   1      27.761 -12.996  -1.006  0.00  0.00     0.193 C 
ATOM      4  S   UNL d   1      27.996 -11.369  -1.383  0.00  0.00    -0.039 SA
BRANCH   3   5
ATOM      5  N   UNL d   1      28.244 -13.627   0.173  0.00  0.00    -0.298 N 
ATOM      6  C   UNL d   1      27.543 -13.744   1.410  0.00  0.00     0.260 C 
ATOM      7  O   UNL d   1      26.315 -13.700   1.483  0.00  0.00    -0.267 OA
ATOM      8  H   UNL d   1      29.228 -13.856   0.220  0.00  0.00     0.171 HD
BRANCH   6   9
ATOM      9  C   UNL d   1      28.245 -13.963   2.735  0.00  0.00     0.065 A 
ATOM     10  C   UNL d   1      27.404 -14.053   3.881  0.00  0.00     0.020 A 
ATOM     11  C   UNL d   1      27.897 -14.316   5.168  0.00  0.00     0.001 A 
ATOM     12  C   UNL d   1      29.257 -14.499   5.346  0.00  0.00     0.003 A 
ATOM     13  C   UNL d   1      30.115 -14.323   4.256  0.00  0.00     0.038 A 
ATOM     14  C   UNL d   1      29.621 -14.042   2.957  0.00  0.00     0.084 A 
BRANCH  14  15
ATOM     15  O   UNL d   1      30.568 -14.007   1.977  0.00  0.00    -0.350 OA
BRANCH  15  16
ATOM     16  C   UNL d   1      30.742 -15.201   1.209  0.00  0.00     0.175 C 
BRANCH  16  17
ATOM     17  C   UNL d   1      32.195 -15.151   0.751  0.00  0.00     0.026 C 
BRANCH  17  18
ATOM     18  C   UNL d   1      33.142 -15.572   1.860  0.00  0.00    -0.002 C 
ATOM     19  C   UNL d   1      32.666 -16.870   2.480  0.00  0.00     0.005 C 
ENDBRANCH  17  18
ENDBRANCH  16  17
ENDBRANCH  15  16
ENDBRANCH  14  15
ENDBRANCH   6   9
ENDBRANCH   3   5
ENDBRANCH   1   3
BRANCH   1  20
ATOM     20  N   UNL d   1      25.874 -14.553  -1.422  0.00  0.00    -0.264 N 
ATOM     21  C   UNL d   1      25.210 -15.487  -2.209  0.00  0.00     0.270 C 
ATOM     22  O   UNL d   1      25.336 -15.592  -3.423  0.00  0.00    -0.266 OA
ATOM     23  H   UNL d   1      25.795 -14.571  -0.407  0.00  0.00     0.190 HD
BRANCH  21  24
ATOM     24  C   UNL d   1      24.334 -16.486  -1.530  0.00  0.00     0.033 A 
ATOM     25  C   UNL d   1      23.022 -16.114  -1.183  0.00  0.00     0.019 A 
ATOM     26  C   UNL d   1      22.155 -17.011  -0.519  0.00  0.00     0.030 A 
ATOM     27  C   UNL d   1      22.575 -18.320  -0.250  0.00  0.00     0.034 A 
ATOM     28  C   UNL d   1      23.910 -18.639  -0.532  0.00  0.00     0.030 A 
ATOM     29  C   UNL d   1      24.785 -17.746  -1.167  0.00  0.00     0.019 A 
BRANCH  27  30
ATOM     30  N   UNL d   1      21.660 -19.289   0.261  0.00  0.00    -0.327 N 
ATOM     31  C   UNL d   1      20.596 -19.838  -0.446  0.00  0.00     0.226 C 
ATOM     32  O   UNL d   1      20.290 -19.607  -1.619  0.00  0.00    -0.273 OA
ATOM     33  H   UNL d   1      21.749 -19.542   1.240  0.00  0.00     0.169 HD
BRANCH  31  34
ATOM     34  C   UNL d   1      19.770 -20.841   0.283  0.00  0.00     0.078 A 
ATOM     35  C   UNL d   1      18.965 -20.456   1.502  0.00  0.00     0.015 A 
ATOM     36  C   UNL d   1      18.245 -20.780   0.229  0.00  0.00     0.015 A 
ENDBRANCH  31  34
ENDBRANCH  27  30
ENDBRANCH  21  24
ENDBRANCH   1  20
TORSDOF 11
ENDMDL
MODEL 9
REMARK VINA RESULT:    -8.147      4.283      6.603
REMARK INTER + INTRA:         -14.705
REMARK INTER:                 -11.428
REMARK INTRA:                  -3.276
REMARK CONF_INDEPENDENT:        3.281
REMARK UNBOUND:                -3.276
REMARK  11 active torsions:
REMARK  status: ('A' for Active; 'I' for Inactive)
REMARK    1  A    between atoms: C_2  and  C_3 
REMARK    2  A    between atoms: C_3  and  C_4 
REMARK    3  A    between atoms: C_4  and  O_5 
REMARK    4  A    between atoms: O_5  and  C_6 
REMARK    5  A    between atoms: C_11  and  C_12 
REMARK       I    between atoms: C_12  and  N_14 
REMARK    6  A    between atoms: N_14  and  C_15 
REMARK    7  A    between atoms: C_15  and  N_17 
REMARK    8  A    between atoms: N_17  and  N_18 
REMARK       I    between atoms: N_18  and  C_19 
REMARK    9  A    between atoms: C_19  and  C_21 
REMARK   10  A    between atoms: C_24  and  N_25 
REMARK       I    between atoms: N_25  and  C_26 
REMARK   11  A    between atoms: C_26  and  C_28 
ROOT
ATOM      1  N   UNL d   1      28.035 -15.168  -0.169  0.00  0.00    -0.273 N 
ATOM      2  H   UNL d   1      28.595 -15.745   0.454  0.00  0.00     0.189 HD
ENDROOT
BRANCH   1   3
ATOM      3  C   UNL d   1      28.528 -14.340  -1.203  0.00  0.00     0.193 C 
ATOM      4  S   UNL d   1      28.739 -12.694  -0.903  0.00  0.00    -0.039 SA
BRANCH   3   5
ATOM      5  N   UNL d   1      28.808 -14.974  -2.444  0.00  0.00    -0.298 N 
ATOM      6  C   UNL d   1      30.099 -15.149  -3.026  0.00  0.00     0.260 C 
ATOM      7  O   UNL d   1      31.131 -15.163  -2.357  0.00  0.00    -0.267 OA
ATOM      8  H   UNL d   1      28.033 -15.158  -3.068  0.00  0.00     0.171 HD
BRANCH   6   9
ATOM      9  C   UNL d   1      30.309 -15.365  -4.511  0.00  0.00     0.065 A 
ATOM     10  C   UNL d   1      31.660 -15.356  -4.960  0.00  0.00     0.020 A 
ATOM     11  C   UNL d   1      32.022 -15.603  -6.293  0.00  0.00     0.001 A 
ATOM     12  C   UNL d   1      31.033 -15.868  -7.223  0.00  0.00     0.003 A 
ATOM     13  C   UNL d   1      29.692 -15.790  -6.831  0.00  0.00     0.038 A 
ATOM     14  C   UNL d   1      29.323 -15.526  -5.488  0.00  0.00     0.084 A 
BRANCH  14  15
ATOM     15  O   UNL d   1      27.985 -15.590  -5.235  0.00  0.00    -0.350 OA
BRANCH  15  16
ATOM     16  C   UNL d   1      27.189 -14.504  -5.715  0.00  0.00     0.175 C 
BRANCH  16  17
ATOM     17  C   UNL d   1      27.492 -13.356  -4.760  0.00  0.00     0.026 C 
BRANCH  17  18
ATOM     18  C   UNL d   1      26.270 -12.972  -3.947  0.00  0.00    -0.002 C 
ATOM     19  C   UNL d   1      25.209 -14.047  -4.070  0.00  0.00     0.005 C 
ENDBRANCH  17  18
ENDBRANCH  16  17
ENDBRANCH  15  16
ENDBRANCH  14  15
ENDBRANCH   6   9
ENDBRANCH   3   5
ENDBRANCH   1   3
BRANCH   1  20
ATOM     20  N   UNL d   1      26.604 -15.501  -0.150  0.00  0.00    -0.264 N 
ATOM     21  C   UNL d   1      25.992 -16.191  -1.191  0.00  0.00     0.270 C 
ATOM     22  O   UNL d   1      26.477 -16.344  -2.306  0.00  0.00    -0.266 OA
ATOM     23  H   UNL d   1      26.191 -15.481   0.780  0.00  0.00     0.190 HD
BRANCH  21  24
ATOM     24  C   UNL d   1      24.686 -16.859  -0.922  0.00  0.00     0.033 A 
ATOM     25  C   UNL d   1      24.684 -18.195  -0.478  0.00  0.00     0.019 A 
ATOM     26  C   UNL d   1      23.477 -18.884  -0.230  0.00  0.00     0.030 A 
ATOM     27  C   UNL d   1      22.251 -18.220  -0.364  0.00  0.00     0.034 A 
ATOM     28  C   UNL d   1      22.276 -16.919  -0.882  0.00  0.00     0.030 A 
ATOM     29  C   UNL d   1      23.470 -16.236  -1.158  0.00  0.00     0.019 A 
BRANCH  27  30
ATOM     30  N   UNL d   1      21.034 -18.844   0.048  0.00  0.00    -0.327 N 
ATOM     31  C   UNL d   1      20.151 -19.512  -0.792  0.00  0.00     0.226 C 
ATOM     32  O   UNL d   1      20.282 -19.699  -2.005  0.00  0.00    -0.273 OA
ATOM     33  H   UNL d   1      20.757 -18.727   1.018  0.00  0.00     0.169 HD
BRANCH  31  34
ATOM     34  C   UNL d   1      18.941 -20.094  -0.146  0.00  0.00     0.078 A 
ATOM     35  C   UNL d   1      19.009 -21.401   0.609  0.00  0.00     0.015 A 
ATOM     36  C   UNL d   1      18.812 -20.129   1.375  0.00  0.00     0.015 A 
ENDBRANCH  31  34
ENDBRANCH  27  30
ENDBRANCH  21  24
ENDBRANCH   1  20
TORSDOF 11
ENDMDL
