MODEL 1
REMARK VINA RESULT:    -6.665      0.000      0.000
REMARK INTER + INTRA:         -13.224
REMARK INTER:                  -9.648
REMARK INTRA:                  -3.577
REMARK CONF_INDEPENDENT:        2.983
REMARK UNBOUND:                -3.577
REMARK  10 active torsions:
REMARK  status: ('A' for Active; 'I' for Inactive)
REMARK    1  A    between atoms: O_2  and  C_3 
REMARK    2  A    between atoms: C_6  and  O_7 
REMARK    3  A    between atoms: C_9  and  C_10 
REMARK    4  A    between atoms: C_10  and  C_11 
REMARK    5  A    between atoms: C_11  and  N_12 
REMARK       I    between atoms: N_12  and  C_13 
REMARK       I    between atoms: C_13  and  N_15 
REMARK    6  A    between atoms: N_15  and  C_16 
REMARK    7  A    between atoms: C_16  and  C_17 
REMARK    8  A    between atoms: C_17  and  N_18 
REMARK    9  A    between atoms: N_18  and  C_19 
REMARK   10  A    between atoms: C_24  and  N_25 
ROOT
ATOM      1  N   UNL d   1      27.110 -15.816  -2.940  0.00  0.00    -0.343 N 
ATOM      2  C   UNL d   1      28.386 -15.582  -3.372  0.00  0.00     0.316 C 
ATOM      3  O   UNL d   1      29.244 -15.080  -2.666  0.00  0.00    -0.247 OA
ATOM      4  N   UNL d   1      28.613 -16.009  -4.646  0.00  0.00    -0.342 N 
ATOM      5  H   UNL d   1      26.406 -16.206  -3.548  0.00  0.00     0.164 HD
ATOM      6  H   UNL d   1      27.826 -16.228  -5.237  0.00  0.00     0.164 HD
ENDROOT
BRANCH   1   7
ATOM      7  C   UNL d   1      26.807 -15.479  -1.571  0.00  0.00     0.129 C 
BRANCH   7   8
ATOM      8  C   UNL d   1      25.324 -15.347  -1.302  0.00  0.00     0.061 C 
BRANCH   8   9
ATOM      9  C   UNL d   1      24.563 -16.619  -1.012  0.00  0.00    -0.021 A 
ATOM     10  C   UNL d   1      25.174 -17.780  -0.503  0.00  0.00     0.074 A 
ATOM     11  C   UNL d   1      24.354 -18.866  -0.145  0.00  0.00     0.040 A 
ATOM     12  C   UNL d   1      22.967 -18.842  -0.350  0.00  0.00     0.039 A 
ATOM     13  C   UNL d   1      22.358 -17.708  -0.864  0.00  0.00     0.068 A 
ATOM     14  C   UNL d   1      23.156 -16.619  -1.189  0.00  0.00     0.046 A 
BRANCH  10  15
ATOM     15  O   UNL d   1      26.507 -18.016  -0.273  0.00  0.00    -0.355 OA
ATOM     16  C   UNL d   1      27.123 -17.529   0.910  0.00  0.00     0.210 C 
ENDBRANCH  10  15
BRANCH  13  17
ATOM     17  O   UNL d   1      20.992 -17.699  -0.902  0.00  0.00    -0.356 OA
ATOM     18  C   UNL d   1      20.350 -18.956  -1.110  0.00  0.00     0.210 C 
ENDBRANCH  13  17
ENDBRANCH   8   9
ENDBRANCH   7   8
ENDBRANCH   1   7
BRANCH   4  19
ATOM     19  C   UNL d   1      29.927 -15.797  -5.236  0.00  0.00     0.144 C 
BRANCH  19  20
ATOM     20  C   UNL d   1      29.845 -14.997  -6.534  0.00  0.00     0.139 C 
BRANCH  20  21
ATOM     21  N   UNL d   1      28.499 -14.515  -6.825  0.00  0.00    -0.386 N 
ATOM     22  H   UNL d   1      28.098 -14.716  -7.739  0.00  0.00     0.159 HD
BRANCH  21  23
ATOM     23  C   UNL d   1      27.891 -13.503  -6.091  0.00  0.00     0.061 A 
ATOM     24  C   UNL d   1      28.565 -12.260  -6.060  0.00  0.00     0.031 A 
ATOM     25  C   UNL d   1      28.052 -11.145  -5.379  0.00  0.00     0.002 A 
ATOM     26  C   UNL d   1      26.814 -11.224  -4.756  0.00  0.00     0.003 A 
ATOM     27  C   UNL d   1      26.132 -12.435  -4.749  0.00  0.00     0.038 A 
ATOM     28  C   UNL d   1      26.675 -13.573  -5.380  0.00  0.00     0.129 A 
BRANCH  28  29
ATOM     29  N   UNL d   1      25.932 -14.822  -5.165  0.00  0.00    -0.113 N 
ATOM     30  O   UNL d   1      25.002 -14.791  -4.343  0.00  0.00    -0.532 OA
ATOM     31  O   UNL d   1      26.280 -15.845  -5.772  0.00  0.00    -0.532 OA
ENDBRANCH  28  29
ENDBRANCH  21  23
ENDBRANCH  20  21
ENDBRANCH  19  20
ENDBRANCH   4  19
TORSDOF 10
ENDMDL
MODEL 2
REMARK VINA RESULT:    -6.617      6.123      7.780
REMARK INTER + INTRA:         -12.529
REMARK INTER:                  -9.600
REMARK INTRA:                  -2.929
REMARK CONF_INDEPENDENT:        2.983
REMARK UNBOUND:                -2.929
REMARK  10 active torsions:
REMARK  status: ('A' for Active; 'I' for Inactive)
REMARK    1  A    between atoms: O_2  and  C_3 
REMARK    2  A    between atoms: C_6  and  O_7 
REMARK    3  A    between atoms: C_9  and  C_10 
REMARK    4  A    between atoms: C_10  and  C_11 
REMARK    5  A    between atoms: C_11  and  N_12 
REMARK       I    between atoms: N_12  and  C_13 
REMARK       I    between atoms: C_13  and  N_15 
REMARK    6  A    between atoms: N_15  and  C_16 
REMARK    7  A    between atoms: C_16  and  C_17 
REMARK    8  A    between atoms: C_17  and  N_18 
REMARK    9  A    between atoms: N_18  and  C_19 
REMARK   10  A    between atoms: C_24  and  N_25 
ROOT
ATOM      1  N   UNL d   1      27.608 -14.512   0.982  0.00  0.00    -0.343 N 
ATOM      2  C   UNL d   1      27.386 -14.068   2.256  0.00  0.00     0.316 C 
ATOM      3  O   UNL d   1      26.619 -13.157   2.518  0.00  0.00    -0.247 OA
ATOM      4  N   UNL d   1      28.067 -14.775   3.203  0.00  0.00    -0.342 N 
ATOM      5  H   UNL d   1      28.268 -15.248   0.783  0.00  0.00     0.164 HD
ATOM      6  H   UNL d   1      28.825 -15.374   2.915  0.00  0.00     0.164 HD
ENDROOT
BRANCH   1   7
ATOM      7  C   UNL d   1      26.857 -13.879  -0.074  0.00  0.00     0.129 C 
BRANCH   7   8
ATOM      8  C   UNL d   1      26.461 -14.833  -1.180  0.00  0.00     0.061 C 
BRANCH   8   9
ATOM      9  C   UNL d   1      25.762 -16.108  -0.769  0.00  0.00    -0.021 A 
ATOM     10  C   UNL d   1      26.383 -17.112  -0.005  0.00  0.00     0.074 A 
ATOM     11  C   UNL d   1      25.605 -18.199   0.434  0.00  0.00     0.040 A 
ATOM     12  C   UNL d   1      24.258 -18.335   0.069  0.00  0.00     0.039 A 
ATOM     13  C   UNL d   1      23.640 -17.357  -0.695  0.00  0.00     0.068 A 
ATOM     14  C   UNL d   1      24.393 -16.265  -1.104  0.00  0.00     0.046 A 
BRANCH  10  15
ATOM     15  O   UNL d   1      27.689 -17.186   0.414  0.00  0.00    -0.355 OA
ATOM     16  C   UNL d   1      28.724 -17.458  -0.522  0.00  0.00     0.210 C 
ENDBRANCH  10  15
BRANCH  13  17
ATOM     17  O   UNL d   1      22.293 -17.480  -0.891  0.00  0.00    -0.356 OA
ATOM     18  C   UNL d   1      21.724 -18.763  -0.633  0.00  0.00     0.210 C 
ENDBRANCH  13  17
ENDBRANCH   8   9
ENDBRANCH   7   8
ENDBRANCH   1   7
BRANCH   4  19
ATOM     19  C   UNL d   1      27.937 -14.388   4.600  0.00  0.00     0.144 C 
BRANCH  19  20
ATOM     20  C   UNL d   1      28.657 -13.075   4.895  0.00  0.00     0.139 C 
BRANCH  20  21
ATOM     21  N   UNL d   1      27.847 -11.898   4.596  0.00  0.00    -0.386 N 
ATOM     22  H   UNL d   1      27.219 -11.930   3.795  0.00  0.00     0.159 HD
BRANCH  21  23
ATOM     23  C   UNL d   1      28.148 -10.637   5.097  0.00  0.00     0.061 A 
ATOM     24  C   UNL d   1      29.002 -10.596   6.224  0.00  0.00     0.031 A 
ATOM     25  C   UNL d   1      29.407  -9.391   6.816  0.00  0.00     0.002 A 
ATOM     26  C   UNL d   1      29.017  -8.181   6.259  0.00  0.00     0.003 A 
ATOM     27  C   UNL d   1      28.162  -8.180   5.164  0.00  0.00     0.038 A 
ATOM     28  C   UNL d   1      27.704  -9.392   4.606  0.00  0.00     0.129 A 
BRANCH  28  29
ATOM     29  N   UNL d   1      26.685  -9.250   3.556  0.00  0.00    -0.113 N 
ATOM     30  O   UNL d   1      26.366  -8.096   3.230  0.00  0.00    -0.532 OA
ATOM     31  O   UNL d   1      26.167 -10.269   3.075  0.00  0.00    -0.532 OA
ENDBRANCH  28  29
ENDBRANCH  21  23
ENDBRANCH  20  21
ENDBRANCH  19  20
ENDBRANCH   4  19
TORSDOF 10
ENDMDL
MODEL 3
REMARK VINA RESULT:    -6.378      1.350      2.922
REMARK INTER + INTRA:         -13.145
REMARK INTER:                  -9.361
REMARK INTRA:                  -3.784
REMARK CONF_INDEPENDENT:        2.983
REMARK UNBOUND:                -3.784
REMARK  10 active torsions:
REMARK  status: ('A' for Active; 'I' for Inactive)
REMARK    1  A    between atoms: O_2  and  C_3 
REMARK    2  A    between atoms: C_6  and  O_7 
REMARK    3  A    between atoms: C_9  and  C_10 
REMARK    4  A    between atoms: C_10  and  C_11 
REMARK    5  A    between atoms: C_11  and  N_12 
REMARK       I    between atoms: N_12  and  C_13 
REMARK       I    between atoms: C_13  and  N_15 
REMARK    6  A    between atoms: N_15  and  C_16 
REMARK    7  A    between atoms: C_16  and  C_17 
REMARK    8  A    between atoms: C_17  and  N_18 
REMARK    9  A    between atoms: N_18  and  C_19 
REMARK   10  A    between atoms: C_24  and  N_25 
ROOT
ATOM      1  N   UNL d   1      26.008 -14.483  -3.560  0.00  0.00    -0.343 N 
ATOM      2  C   UNL d   1      26.193 -13.152  -3.809  0.00  0.00     0.316 C 
ATOM      3  O   UNL d   1      25.403 -12.294  -3.455  0.00  0.00    -0.247 OA
ATOM      4  N   UNL d   1      27.368 -12.878  -4.445  0.00  0.00    -0.342 N 
ATOM      5  H   UNL d   1      26.659 -15.181  -3.886  0.00  0.00     0.164 HD
ATOM      6  H   UNL d   1      27.875 -13.632  -4.882  0.00  0.00     0.164 HD
ENDROOT
BRANCH   1   7
ATOM      7  C   UNL d   1      24.834 -14.854  -2.808  0.00  0.00     0.129 C 
BRANCH   7   8
ATOM      8  C   UNL d   1      25.155 -15.498  -1.478  0.00  0.00     0.061 C 
BRANCH   8   9
ATOM      9  C   UNL d   1      24.387 -16.748  -1.117  0.00  0.00    -0.021 A 
ATOM     10  C   UNL d   1      24.995 -17.890  -0.567  0.00  0.00     0.074 A 
ATOM     11  C   UNL d   1      24.171 -18.950  -0.145  0.00  0.00     0.040 A 
ATOM     12  C   UNL d   1      22.781 -18.921  -0.327  0.00  0.00     0.039 A 
ATOM     13  C   UNL d   1      22.174 -17.805  -0.881  0.00  0.00     0.068 A 
ATOM     14  C   UNL d   1      22.977 -16.741  -1.269  0.00  0.00     0.046 A 
BRANCH  10  15
ATOM     15  O   UNL d   1      26.330 -18.130  -0.349  0.00  0.00    -0.355 OA
ATOM     16  C   UNL d   1      27.058 -17.326   0.568  0.00  0.00     0.210 C 
ENDBRANCH  10  15
BRANCH  13  17
ATOM     17  O   UNL d   1      20.808 -17.783  -0.895  0.00  0.00    -0.356 OA
ATOM     18  C   UNL d   1      20.148 -19.049  -0.893  0.00  0.00     0.210 C 
ENDBRANCH  13  17
ENDBRANCH   8   9
ENDBRANCH   7   8
ENDBRANCH   1   7
BRANCH   4  19
ATOM     19  C   UNL d   1      27.677 -11.498  -4.791  0.00  0.00     0.144 C 
BRANCH  19  20
ATOM     20  C   UNL d   1      28.346 -11.392  -6.159  0.00  0.00     0.139 C 
BRANCH  20  21
ATOM     21  N   UNL d   1      28.236 -12.615  -6.947  0.00  0.00    -0.386 N 
ATOM     22  H   UNL d   1      27.312 -12.922  -7.244  0.00  0.00     0.159 HD
BRANCH  21  23
ATOM     23  C   UNL d   1      29.250 -13.565  -6.997  0.00  0.00     0.061 A 
ATOM     24  C   UNL d   1      30.366 -13.250  -7.807  0.00  0.00     0.031 A 
ATOM     25  C   UNL d   1      31.471 -14.106  -7.929  0.00  0.00     0.002 A 
ATOM     26  C   UNL d   1      31.520 -15.281  -7.193  0.00  0.00     0.003 A 
ATOM     27  C   UNL d   1      30.433 -15.635  -6.402  0.00  0.00     0.038 A 
ATOM     28  C   UNL d   1      29.296 -14.805  -6.327  0.00  0.00     0.129 A 
BRANCH  28  29
ATOM     29  N   UNL d   1      28.160 -15.368  -5.583  0.00  0.00    -0.113 N 
ATOM     30  O   UNL d   1      27.029 -15.201  -6.069  0.00  0.00    -0.532 OA
ATOM     31  O   UNL d   1      28.367 -15.940  -4.504  0.00  0.00    -0.532 OA
ENDBRANCH  28  29
ENDBRANCH  21  23
ENDBRANCH  20  21
ENDBRANCH  19  20
ENDBRANCH   4  19
TORSDOF 10
ENDMDL
MODEL 4
REMARK VINA RESULT:    -6.233      2.199      3.070
REMARK INTER + INTRA:         -12.635
REMARK INTER:                  -9.216
REMARK INTRA:                  -3.419
REMARK CONF_INDEPENDENT:        2.983
REMARK UNBOUND:                -3.419
REMARK  10 active torsions:
REMARK  status: ('A' for Active; 'I' for Inactive)
REMARK    1  A    between atoms: O_2  and  C_3 
REMARK    2  A    between atoms: C_6  and  O_7 
REMARK    3  A    between atoms: C_9  and  C_10 
REMARK    4  A    between atoms: C_10  and  C_11 
REMARK    5  A    between atoms: C_11  and  N_12 
REMARK       I    between atoms: N_12  and  C_13 
REMARK       I    between atoms: C_13  and  N_15 
REMARK    6  A    between atoms: N_15  and  C_16 
REMARK    7  A    between atoms: C_16  and  C_17 
REMARK    8  A    between atoms: C_17  and  N_18 
REMARK    9  A    between atoms: N_18  and  C_19 
REMARK   10  A    between atoms: C_24  and  N_25 
ROOT
ATOM      1  N   UNL d   1      26.409 -14.311  -3.374  0.00  0.00    -0.343 N 
ATOM      2  C   UNL d   1      26.782 -14.192  -4.684  0.00  0.00     0.316 C 
ATOM      3  O   UNL d   1      26.861 -15.144  -5.441  0.00  0.00    -0.247 OA
ATOM      4  N   UNL d   1      27.006 -12.903  -5.069  0.00  0.00    -0.342 N 
ATOM      5  H   UNL d   1      26.377 -13.514  -2.756  0.00  0.00     0.164 HD
ATOM      6  H   UNL d   1      27.118 -12.194  -4.361  0.00  0.00     0.164 HD
ENDROOT
BRANCH   1   7
ATOM      7  C   UNL d   1      26.063 -15.631  -2.907  0.00  0.00     0.129 C 
BRANCH   7   8
ATOM      8  C   UNL d   1      25.538 -15.644  -1.488  0.00  0.00     0.061 C 
BRANCH   8   9
ATOM      9  C   UNL d   1      24.672 -16.815  -1.087  0.00  0.00    -0.021 A 
ATOM     10  C   UNL d   1      25.181 -17.972  -0.472  0.00  0.00     0.074 A 
ATOM     11  C   UNL d   1      24.273 -18.947  -0.021  0.00  0.00     0.040 A 
ATOM     12  C   UNL d   1      22.893 -18.822  -0.234  0.00  0.00     0.039 A 
ATOM     13  C   UNL d   1      22.382 -17.691  -0.852  0.00  0.00     0.068 A 
ATOM     14  C   UNL d   1      23.269 -16.710  -1.270  0.00  0.00     0.046 A 
BRANCH  10  15
ATOM     15  O   UNL d   1      26.490 -18.300  -0.215  0.00  0.00    -0.355 OA
ATOM     16  C   UNL d   1      27.321 -17.404   0.511  0.00  0.00     0.210 C 
ENDBRANCH  10  15
BRANCH  13  17
ATOM     17  O   UNL d   1      21.021 -17.569  -0.896  0.00  0.00    -0.356 OA
ATOM     18  C   UNL d   1      20.270 -18.782  -0.902  0.00  0.00     0.210 C 
ENDBRANCH  13  17
ENDBRANCH   8   9
ENDBRANCH   7   8
ENDBRANCH   1   7
BRANCH   4  19
ATOM     19  C   UNL d   1      27.433 -12.640  -6.435  0.00  0.00     0.144 C 
BRANCH  19  20
ATOM     20  C   UNL d   1      26.825 -11.350  -6.981  0.00  0.00     0.139 C 
BRANCH  20  21
ATOM     21  N   UNL d   1      25.630 -10.929  -6.257  0.00  0.00    -0.386 N 
ATOM     22  H   UNL d   1      24.718 -11.198  -6.623  0.00  0.00     0.159 HD
BRANCH  21  23
ATOM     23  C   UNL d   1      25.643  -9.893  -5.331  0.00  0.00     0.061 A 
ATOM     24  C   UNL d   1      25.624  -8.580  -5.857  0.00  0.00     0.031 A 
ATOM     25  C   UNL d   1      25.609  -7.442  -5.036  0.00  0.00     0.002 A 
ATOM     26  C   UNL d   1      25.551  -7.585  -3.657  0.00  0.00     0.003 A 
ATOM     27  C   UNL d   1      25.588  -8.858  -3.102  0.00  0.00     0.038 A 
ATOM     28  C   UNL d   1      25.666 -10.001  -3.925  0.00  0.00     0.129 A 
BRANCH  28  29
ATOM     29  N   UNL d   1      25.856 -11.272  -3.212  0.00  0.00    -0.113 N 
ATOM     30  O   UNL d   1      25.039 -12.177  -3.444  0.00  0.00    -0.532 OA
ATOM     31  O   UNL d   1      26.784 -11.375  -2.396  0.00  0.00    -0.532 OA
ENDBRANCH  28  29
ENDBRANCH  21  23
ENDBRANCH  20  21
ENDBRANCH  19  20
ENDBRANCH   4  19
TORSDOF 10
ENDMDL
MODEL 5
REMARK VINA RESULT:    -5.888      1.702      2.226
REMARK INTER + INTRA:         -12.410
REMARK INTER:                  -8.871
REMARK INTRA:                  -3.539
REMARK CONF_INDEPENDENT:        2.983
REMARK UNBOUND:                -3.539
REMARK  10 active torsions:
REMARK  status: ('A' for Active; 'I' for Inactive)
REMARK    1  A    between atoms: O_2  and  C_3 
REMARK    2  A    between atoms: C_6  and  O_7 
REMARK    3  A    between atoms: C_9  and  C_10 
REMARK    4  A    between atoms: C_10  and  C_11 
REMARK    5  A    between atoms: C_11  and  N_12 
REMARK       I    between atoms: N_12  and  C_13 
REMARK       I    between atoms: C_13  and  N_15 
REMARK    6  A    between atoms: N_15  and  C_16 
REMARK    7  A    between atoms: C_16  and  C_17 
REMARK    8  A    between atoms: C_17  and  N_18 
REMARK    9  A    between atoms: N_18  and  C_19 
REMARK   10  A    between atoms: C_24  and  N_25 
ROOT
ATOM      1  N   UNL d   1      26.672 -14.539  -3.440  0.00  0.00    -0.343 N 
ATOM      2  C   UNL d   1      26.998 -14.887  -4.722  0.00  0.00     0.316 C 
ATOM      3  O   UNL d   1      26.280 -15.578  -5.425  0.00  0.00    -0.247 OA
ATOM      4  N   UNL d   1      28.174 -14.345  -5.148  0.00  0.00    -0.342 N 
ATOM      5  H   UNL d   1      27.292 -13.989  -2.864  0.00  0.00     0.164 HD
ATOM      6  H   UNL d   1      28.808 -13.955  -4.468  0.00  0.00     0.164 HD
ENDROOT
BRANCH   1   7
ATOM      7  C   UNL d   1      25.398 -14.993  -2.939  0.00  0.00     0.129 C 
BRANCH   7   8
ATOM      8  C   UNL d   1      25.409 -15.283  -1.455  0.00  0.00     0.061 C 
BRANCH   8   9
ATOM      9  C   UNL d   1      24.657 -16.508  -0.989  0.00  0.00    -0.021 A 
ATOM     10  C   UNL d   1      25.258 -17.542  -0.250  0.00  0.00     0.074 A 
ATOM     11  C   UNL d   1      24.440 -18.574   0.247  0.00  0.00     0.040 A 
ATOM     12  C   UNL d   1      23.069 -18.629  -0.039  0.00  0.00     0.039 A 
ATOM     13  C   UNL d   1      22.470 -17.621  -0.779  0.00  0.00     0.068 A 
ATOM     14  C   UNL d   1      23.264 -16.582  -1.244  0.00  0.00     0.046 A 
BRANCH  10  15
ATOM     15  O   UNL d   1      26.579 -17.694   0.095  0.00  0.00    -0.355 OA
ATOM     16  C   UNL d   1      27.601 -17.321  -0.819  0.00  0.00     0.210 C 
ENDBRANCH  10  15
BRANCH  13  17
ATOM     17  O   UNL d   1      21.109 -17.661  -0.896  0.00  0.00    -0.356 OA
ATOM     18  C   UNL d   1      20.504 -18.954  -0.894  0.00  0.00     0.210 C 
ENDBRANCH  13  17
ENDBRANCH   8   9
ENDBRANCH   7   8
ENDBRANCH   1   7
BRANCH   4  19
ATOM     19  C   UNL d   1      28.648 -14.657  -6.488  0.00  0.00     0.144 C 
BRANCH  19  20
ATOM     20  C   UNL d   1      29.115 -13.407  -7.231  0.00  0.00     0.139 C 
BRANCH  20  21
ATOM     21  N   UNL d   1      29.081 -12.205  -6.405  0.00  0.00    -0.386 N 
ATOM     22  H   UNL d   1      29.831 -12.054  -5.733  0.00  0.00     0.159 HD
BRANCH  21  23
ATOM     23  C   UNL d   1      27.923 -11.459  -6.218  0.00  0.00     0.061 A 
ATOM     24  C   UNL d   1      27.451 -10.740  -7.341  0.00  0.00     0.031 A 
ATOM     25  C   UNL d   1      26.280  -9.968  -7.301  0.00  0.00     0.002 A 
ATOM     26  C   UNL d   1      25.510  -9.939  -6.147  0.00  0.00     0.003 A 
ATOM     27  C   UNL d   1      25.952 -10.617  -5.016  0.00  0.00     0.038 A 
ATOM     28  C   UNL d   1      27.160 -11.343  -5.037  0.00  0.00     0.129 A 
BRANCH  28  29
ATOM     29  N   UNL d   1      27.590 -11.879  -3.738  0.00  0.00    -0.113 N 
ATOM     30  O   UNL d   1      28.741 -12.340  -3.671  0.00  0.00    -0.532 OA
ATOM     31  O   UNL d   1      26.790 -11.885  -2.792  0.00  0.00    -0.532 OA
ENDBRANCH  28  29
ENDBRANCH  21  23
ENDBRANCH  20  21
ENDBRANCH  19  20
ENDBRANCH   4  19
TORSDOF 10
ENDMDL
MODEL 6
REMARK VINA RESULT:    -5.324      3.780      6.305
REMARK INTER + INTRA:         -12.887
REMARK INTER:                  -8.307
REMARK INTRA:                  -4.580
REMARK CONF_INDEPENDENT:        2.983
REMARK UNBOUND:                -4.580
REMARK  10 active torsions:
REMARK  status: ('A' for Active; 'I' for Inactive)
REMARK    1  A    between atoms: O_2  and  C_3 
REMARK    2  A    between atoms: C_6  and  O_7 
REMARK    3  A    between atoms: C_9  and  C_10 
REMARK    4  A    between atoms: C_10  and  C_11 
REMARK    5  A    between atoms: C_11  and  N_12 
REMARK       I    between atoms: N_12  and  C_13 
REMARK       I    between atoms: C_13  and  N_15 
REMARK    6  A    between atoms: N_15  and  C_16 
REMARK    7  A    between atoms: C_16  and  C_17 
REMARK    8  A    between atoms: C_17  and  N_18 
REMARK    9  A    between atoms: N_18  and  C_19 
REMARK   10  A    between atoms: C_24  and  N_25 
ROOT
ATOM      1  N   UNL d   1      27.662 -15.993  -0.243  0.00  0.00    -0.343 N 
ATOM      2  C   UNL d   1      28.951 -15.551  -0.127  0.00  0.00     0.316 C 
ATOM      3  O   UNL d   1      29.912 -16.301  -0.125  0.00  0.00    -0.247 OA
ATOM      4  N   UNL d   1      29.054 -14.193  -0.063  0.00  0.00    -0.342 N 
ATOM      5  H   UNL d   1      26.877 -15.359  -0.213  0.00  0.00     0.164 HD
ATOM      6  H   UNL d   1      28.228 -13.648   0.130  0.00  0.00     0.164 HD
ENDROOT
BRANCH   1   7
ATOM      7  C   UNL d   1      27.467 -17.412  -0.409  0.00  0.00     0.129 C 
BRANCH   7   8
ATOM      8  C   UNL d   1      26.340 -17.964   0.437  0.00  0.00     0.061 C 
BRANCH   8   9
ATOM      9  C   UNL d   1      24.931 -17.640  -0.000  0.00  0.00    -0.021 A 
ATOM     10  C   UNL d   1      24.603 -16.492  -0.743  0.00  0.00     0.074 A 
ATOM     11  C   UNL d   1      23.283 -16.351  -1.211  0.00  0.00     0.040 A 
ATOM     12  C   UNL d   1      22.286 -17.285  -0.895  0.00  0.00     0.039 A 
ATOM     13  C   UNL d   1      22.597 -18.412  -0.151  0.00  0.00     0.068 A 
ATOM     14  C   UNL d   1      23.904 -18.575   0.286  0.00  0.00     0.046 A 
BRANCH  10  15
ATOM     15  O   UNL d   1      25.417 -15.450  -1.115  0.00  0.00    -0.355 OA
ATOM     16  C   UNL d   1      25.260 -14.844  -2.391  0.00  0.00     0.210 C 
ENDBRANCH  10  15
BRANCH  13  17
ATOM     17  O   UNL d   1      21.614 -19.350  -0.004  0.00  0.00    -0.356 OA
ATOM     18  C   UNL d   1      20.499 -19.252  -0.889  0.00  0.00     0.210 C 
ENDBRANCH  13  17
ENDBRANCH   8   9
ENDBRANCH   7   8
ENDBRANCH   1   7
BRANCH   4  19
ATOM     19  C   UNL d   1      30.371 -13.593   0.087  0.00  0.00     0.144 C 
BRANCH  19  20
ATOM     20  C   UNL d   1      30.863 -13.656   1.531  0.00  0.00     0.139 C 
BRANCH  20  21
ATOM     21  N   UNL d   1      30.173 -14.664   2.328  0.00  0.00    -0.386 N 
ATOM     22  H   UNL d   1      30.080 -15.605   1.949  0.00  0.00     0.159 HD
BRANCH  21  23
ATOM     23  C   UNL d   1      29.327 -14.335   3.381  0.00  0.00     0.061 A 
ATOM     24  C   UNL d   1      29.727 -14.769   4.666  0.00  0.00     0.031 A 
ATOM     25  C   UNL d   1      28.983 -14.484   5.821  0.00  0.00     0.002 A 
ATOM     26  C   UNL d   1      27.841 -13.701   5.731  0.00  0.00     0.003 A 
ATOM     27  C   UNL d   1      27.405 -13.273   4.483  0.00  0.00     0.038 A 
ATOM     28  C   UNL d   1      28.119 -13.611   3.315  0.00  0.00     0.129 A 
BRANCH  28  29
ATOM     29  N   UNL d   1      27.469 -13.231   2.053  0.00  0.00    -0.113 N 
ATOM     30  O   UNL d   1      26.727 -14.074   1.524  0.00  0.00    -0.532 OA
ATOM     31  O   UNL d   1      27.713 -12.121   1.557  0.00  0.00    -0.532 OA
ENDBRANCH  28  29
ENDBRANCH  21  23
ENDBRANCH  20  21
ENDBRANCH  19  20
ENDBRANCH   4  19
TORSDOF 10
ENDMDL
MODEL 7
REMARK VINA RESULT:    -5.306      2.337      4.468
REMARK INTER + INTRA:         -13.109
REMARK INTER:                  -8.289
REMARK INTRA:                  -4.821
REMARK CONF_INDEPENDENT:        2.983
REMARK UNBOUND:                -4.821
REMARK  10 active torsions:
REMARK  status: ('A' for Active; 'I' for Inactive)
REMARK    1  A    between atoms: O_2  and  C_3 
REMARK    2  A    between atoms: C_6  and  O_7 
REMARK    3  A    between atoms: C_9  and  C_10 
REMARK    4  A    between atoms: C_10  and  C_11 
REMARK    5  A    between atoms: C_11  and  N_12 
REMARK       I    between atoms: N_12  and  C_13 
REMARK       I    between atoms: C_13  and  N_15 
REMARK    6  A    between atoms: N_15  and  C_16 
REMARK    7  A    between atoms: C_16  and  C_17 
REMARK    8  A    between atoms: C_17  and  N_18 
REMARK    9  A    between atoms: N_18  and  C_19 
REMARK   10  A    between atoms: C_24  and  N_25 
ROOT
ATOM      1  N   UNL d   1      27.454 -15.314  -3.980  0.00  0.00    -0.343 N 
ATOM      2  C   UNL d   1      28.177 -15.014  -5.101  0.00  0.00     0.316 C 
ATOM      3  O   UNL d   1      27.691 -14.993  -6.219  0.00  0.00    -0.247 OA
ATOM      4  N   UNL d   1      29.476 -14.694  -4.839  0.00  0.00    -0.342 N 
ATOM      5  H   UNL d   1      27.881 -15.355  -3.067  0.00  0.00     0.164 HD
ATOM      6  H   UNL d   1      29.863 -14.921  -3.936  0.00  0.00     0.164 HD
ENDROOT
BRANCH   1   7
ATOM      7  C   UNL d   1      26.047 -15.575  -4.156  0.00  0.00     0.129 C 
BRANCH   7   8
ATOM      8  C   UNL d   1      25.232 -15.323  -2.907  0.00  0.00     0.061 C 
BRANCH   8   9
ATOM      9  C   UNL d   1      25.328 -16.352  -1.805  0.00  0.00    -0.021 A 
ATOM     10  C   UNL d   1      26.443 -16.464  -0.955  0.00  0.00     0.074 A 
ATOM     11  C   UNL d   1      26.377 -17.368   0.121  0.00  0.00     0.040 A 
ATOM     12  C   UNL d   1      25.265 -18.200   0.318  0.00  0.00     0.039 A 
ATOM     13  C   UNL d   1      24.167 -18.107  -0.524  0.00  0.00     0.068 A 
ATOM     14  C   UNL d   1      24.211 -17.194  -1.568  0.00  0.00     0.046 A 
BRANCH  10  15
ATOM     15  O   UNL d   1      27.632 -15.778  -1.006  0.00  0.00    -0.355 OA
ATOM     16  C   UNL d   1      28.710 -16.159  -0.163  0.00  0.00     0.210 C 
ENDBRANCH  10  15
BRANCH  13  17
ATOM     17  O   UNL d   1      23.065 -18.841  -0.189  0.00  0.00    -0.356 OA
ATOM     18  C   UNL d   1      21.859 -18.539  -0.889  0.00  0.00     0.210 C 
ENDBRANCH  13  17
ENDBRANCH   8   9
ENDBRANCH   7   8
ENDBRANCH   1   7
BRANCH   4  19
ATOM     19  C   UNL d   1      30.362 -14.377  -5.949  0.00  0.00     0.144 C 
BRANCH  19  20
ATOM     20  C   UNL d   1      30.917 -15.637  -6.610  0.00  0.00     0.139 C 
BRANCH  20  21
ATOM     21  N   UNL d   1      30.030 -16.788  -6.486  0.00  0.00    -0.386 N 
ATOM     22  H   UNL d   1      29.037 -16.660  -6.674  0.00  0.00     0.159 HD
BRANCH  21  23
ATOM     23  C   UNL d   1      30.384 -17.933  -5.781  0.00  0.00     0.061 A 
ATOM     24  C   UNL d   1      30.416 -19.139  -6.519  0.00  0.00     0.031 A 
ATOM     25  C   UNL d   1      30.782 -20.364  -5.941  0.00  0.00     0.002 A 
ATOM     26  C   UNL d   1      31.186 -20.408  -4.614  0.00  0.00     0.003 A 
ATOM     27  C   UNL d   1      31.149 -19.247  -3.851  0.00  0.00     0.038 A 
ATOM     28  C   UNL d   1      30.722 -18.028  -4.416  0.00  0.00     0.129 A 
BRANCH  28  29
ATOM     29  N   UNL d   1      30.580 -16.915  -3.466  0.00  0.00    -0.113 N 
ATOM     30  O   UNL d   1      29.480 -16.791  -2.902  0.00  0.00    -0.532 OA
ATOM     31  O   UNL d   1      31.531 -16.139  -3.297  0.00  0.00    -0.532 OA
ENDBRANCH  28  29
ENDBRANCH  21  23
ENDBRANCH  20  21
ENDBRANCH  19  20
ENDBRANCH   4  19
TORSDOF 10
ENDMDL
MODEL 8
REMARK VINA RESULT:    -4.834      1.817      4.114
REMARK INTER + INTRA:         -12.497
REMARK INTER:                  -7.817
REMARK INTRA:                  -4.680
REMARK CONF_INDEPENDENT:        2.983
REMARK UNBOUND:                -4.680
REMARK  10 active torsions:
REMARK  status: ('A' for Active; 'I' for Inactive)
REMARK    1  A    between atoms: O_2  and  C_3 
REMARK    2  A    between atoms: C_6  and  O_7 
REMARK    3  A    between atoms: C_9  and  C_10 
REMARK    4  A    between atoms: C_10  and  C_11 
REMARK    5  A    between atoms: C_11  and  N_12 
REMARK       I    between atoms: N_12  and  C_13 
REMARK       I    between atoms: C_13  and  N_15 
REMARK    6  A    between atoms: N_15  and  C_16 
REMARK    7  A    between atoms: C_16  and  C_17 
REMARK    8  A    between atoms: C_17  and  N_18 
REMARK    9  A    between atoms: N_18  and  C_19 
REMARK   10  A    between atoms: C_24  and  N_25 
ROOT
ATOM      1  N   UNL d   1      26.536 -13.401  -4.375  0.00  0.00    -0.343 N 
ATOM      2  C   UNL d   1      27.195 -12.640  -5.301  0.00  0.00     0.316 C 
ATOM      3  O   UNL d   1      26.691 -11.670  -5.842  0.00  0.00    -0.247 OA
ATOM      4  N   UNL d   1      28.478 -13.043  -5.520  0.00  0.00    -0.342 N 
ATOM      5  H   UNL d   1      26.960 -14.217  -3.960  0.00  0.00     0.164 HD
ATOM      6  H   UNL d   1      28.767 -13.954  -5.199  0.00  0.00     0.164 HD
ENDROOT
BRANCH   1   7
ATOM      7  C   UNL d   1      25.202 -12.989  -4.014  0.00  0.00     0.129 C 
BRANCH   7   8
ATOM      8  C   UNL d   1      24.408 -14.075  -3.324  0.00  0.00     0.061 C 
BRANCH   8   9
ATOM      9  C   UNL d   1      25.155 -14.964  -2.357  0.00  0.00    -0.021 A 
ATOM     10  C   UNL d   1      26.345 -14.572  -1.718  0.00  0.00     0.074 A 
ATOM     11  C   UNL d   1      26.890 -15.422  -0.738  0.00  0.00     0.040 A 
ATOM     12  C   UNL d   1      26.317 -16.667  -0.441  0.00  0.00     0.039 A 
ATOM     13  C   UNL d   1      25.152 -17.067  -1.075  0.00  0.00     0.068 A 
ATOM     14  C   UNL d   1      24.590 -16.220  -2.020  0.00  0.00     0.046 A 
BRANCH  10  15
ATOM     15  O   UNL d   1      27.078 -13.425  -1.900  0.00  0.00    -0.355 OA
ATOM     16  C   UNL d   1      28.490 -13.449  -1.743  0.00  0.00     0.210 C 
ENDBRANCH  10  15
BRANCH  13  17
ATOM     17  O   UNL d   1      24.570 -18.223  -0.635  0.00  0.00    -0.356 OA
ATOM     18  C   UNL d   1      23.150 -18.213  -0.499  0.00  0.00     0.210 C 
ENDBRANCH  13  17
ENDBRANCH   8   9
ENDBRANCH   7   8
ENDBRANCH   1   7
BRANCH   4  19
ATOM     19  C   UNL d   1      29.282 -12.331  -6.502  0.00  0.00     0.144 C 
BRANCH  19  20
ATOM     20  C   UNL d   1      30.306 -13.246  -7.170  0.00  0.00     0.139 C 
BRANCH  20  21
ATOM     21  N   UNL d   1      29.773 -14.568  -7.485  0.00  0.00    -0.386 N 
ATOM     22  H   UNL d   1      28.905 -14.630  -8.012  0.00  0.00     0.159 HD
BRANCH  21  23
ATOM     23  C   UNL d   1      30.167 -15.715  -6.805  0.00  0.00     0.061 A 
ATOM     24  C   UNL d   1      31.263 -16.423  -7.351  0.00  0.00     0.031 A 
ATOM     25  C   UNL d   1      31.781 -17.581  -6.754  0.00  0.00     0.002 A 
ATOM     26  C   UNL d   1      31.255 -18.035  -5.552  0.00  0.00     0.003 A 
ATOM     27  C   UNL d   1      30.165 -17.377  -4.995  0.00  0.00     0.038 A 
ATOM     28  C   UNL d   1      29.604 -16.248  -5.627  0.00  0.00     0.129 A 
BRANCH  28  29
ATOM     29  N   UNL d   1      28.365 -15.743  -5.020  0.00  0.00    -0.113 N 
ATOM     30  O   UNL d   1      28.366 -15.576  -3.790  0.00  0.00    -0.532 OA
ATOM     31  O   UNL d   1      27.376 -15.546  -5.740  0.00  0.00    -0.532 OA
ENDBRANCH  28  29
ENDBRANCH  21  23
ENDBRANCH  20  21
ENDBRANCH  19  20
ENDBRANCH   4  19
TORSDOF 10
ENDMDL
MODEL 9
REMARK VINA RESULT:    -4.397      2.169      7.098
REMARK INTER + INTRA:         -12.365
REMARK INTER:                  -7.380
REMARK INTRA:                  -4.985
REMARK CONF_INDEPENDENT:        2.983
REMARK UNBOUND:                -4.985
REMARK  10 active torsions:
REMARK  status: ('A' for Active; 'I' for Inactive)
REMARK    1  A    between atoms: O_2  and  C_3 
REMARK    2  A    between atoms: C_6  and  O_7 
REMARK    3  A    between atoms: C_9  and  C_10 
REMARK    4  A    between atoms: C_10  and  C_11 
REMARK    5  A    between atoms: C_11  and  N_12 
REMARK       I    between atoms: N_12  and  C_13 
REMARK       I    between atoms: C_13  and  N_15 
REMARK    6  A    between atoms: N_15  and  C_16 
REMARK    7  A    between atoms: C_16  and  C_17 
REMARK    8  A    between atoms: C_17  and  N_18 
REMARK    9  A    between atoms: N_18  and  C_19 
REMARK   10  A    between atoms: C_24  and  N_25 
ROOT
ATOM      1  N   UNL d   1      26.026 -12.491  -3.422  0.00  0.00    -0.343 N 
ATOM      2  C   UNL d   1      26.959 -12.674  -2.439  0.00  0.00     0.316 C 
ATOM      3  O   UNL d   1      27.972 -12.002  -2.353  0.00  0.00    -0.247 OA
ATOM      4  N   UNL d   1      26.620 -13.645  -1.544  0.00  0.00    -0.342 N 
ATOM      5  H   UNL d   1      25.208 -13.077  -3.494  0.00  0.00     0.164 HD
ATOM      6  H   UNL d   1      25.882 -14.290  -1.778  0.00  0.00     0.164 HD
ENDROOT
BRANCH   1   7
ATOM      7  C   UNL d   1      26.261 -11.421  -4.360  0.00  0.00     0.129 C 
BRANCH   7   8
ATOM      8  C   UNL d   1      26.386 -11.897  -5.791  0.00  0.00     0.061 C 
BRANCH   8   9
ATOM      9  C   UNL d   1      27.404 -12.978  -6.068  0.00  0.00    -0.021 A 
ATOM     10  C   UNL d   1      28.359 -12.887  -7.096  0.00  0.00     0.074 A 
ATOM     11  C   UNL d   1      29.344 -13.887  -7.186  0.00  0.00     0.040 A 
ATOM     12  C   UNL d   1      29.348 -14.996  -6.328  0.00  0.00     0.039 A 
ATOM     13  C   UNL d   1      28.402 -15.103  -5.321  0.00  0.00     0.068 A 
ATOM     14  C   UNL d   1      27.447 -14.102  -5.204  0.00  0.00     0.046 A 
BRANCH  10  15
ATOM     15  O   UNL d   1      28.496 -11.914  -8.055  0.00  0.00    -0.355 OA
ATOM     16  C   UNL d   1      28.159 -12.194  -9.407  0.00  0.00     0.210 C 
ENDBRANCH  10  15
BRANCH  13  17
ATOM     17  O   UNL d   1      28.552 -16.130  -4.433  0.00  0.00    -0.356 OA
ATOM     18  C   UNL d   1      29.667 -16.052  -3.545  0.00  0.00     0.210 C 
ENDBRANCH  13  17
ENDBRANCH   8   9
ENDBRANCH   7   8
ENDBRANCH   1   7
BRANCH   4  19
ATOM     19  C   UNL d   1      27.540 -13.956  -0.460  0.00  0.00     0.144 C 
BRANCH  19  20
ATOM     20  C   UNL d   1      28.041 -15.396  -0.536  0.00  0.00     0.139 C 
BRANCH  20  21
ATOM     21  N   UNL d   1      27.297 -16.212  -1.490  0.00  0.00    -0.386 N 
ATOM     22  H   UNL d   1      27.565 -16.180  -2.471  0.00  0.00     0.159 HD
BRANCH  21  23
ATOM     23  C   UNL d   1      26.036 -16.728  -1.210  0.00  0.00     0.061 A 
ATOM     24  C   UNL d   1      25.991 -17.820  -0.313  0.00  0.00     0.031 A 
ATOM     25  C   UNL d   1      24.785 -18.421   0.078  0.00  0.00     0.002 A 
ATOM     26  C   UNL d   1      23.578 -17.906  -0.372  0.00  0.00     0.003 A 
ATOM     27  C   UNL d   1      23.583 -16.845  -1.270  0.00  0.00     0.038 A 
ATOM     28  C   UNL d   1      24.797 -16.280  -1.711  0.00  0.00     0.129 A 
BRANCH  28  29
ATOM     29  N   UNL d   1      24.668 -15.274  -2.775  0.00  0.00    -0.113 N 
ATOM     30  O   UNL d   1      25.530 -15.283  -3.668  0.00  0.00    -0.532 OA
ATOM     31  O   UNL d   1      23.744 -14.450  -2.719  0.00  0.00    -0.532 OA
ENDBRANCH  28  29
ENDBRANCH  21  23
ENDBRANCH  20  21
ENDBRANCH  19  20
ENDBRANCH   4  19
TORSDOF 10
ENDMDL
