MODEL 1
REMARK VINA RESULT:    -7.860      0.000      0.000
REMARK INTER + INTRA:         -10.254
REMARK INTER:                  -9.351
REMARK INTRA:                  -0.903
REMARK CONF_INDEPENDENT:        1.492
REMARK UNBOUND:                -0.903
REMARK  5 active torsions:
REMARK  status: ('A' for Active; 'I' for Inactive)
REMARK    1  A    between atoms: C_5  and  N_6 
REMARK       I    between atoms: N_6  and  C_7 
REMARK    2  A    between atoms: C_7  and  C_9 
REMARK    3  A    between atoms: C_14  and  O_15 
REMARK    4  A    between atoms: O_15  and  C_16 
REMARK    5  A    between atoms: C_22  and  N_23 
ROOT
ATOM      1  N   UNL d   1      28.199 -14.947   2.379  0.00  0.00    -0.321 N 
ATOM      2  C   UNL d   1      27.312 -14.403   1.452  0.00  0.00     0.260 C 
ATOM      3  O   UNL d   1      26.417 -13.585   1.677  0.00  0.00    -0.267 OA
ATOM      4  H   UNL d   1      28.789 -15.718   2.097  0.00  0.00     0.169 HD
ENDROOT
BRANCH   2   5
ATOM      5  C   UNL d   1      27.392 -14.880   0.061  0.00  0.00     0.085 A 
ATOM      6  C   UNL d   1      28.236 -14.156  -0.790  0.00  0.00     0.023 A 
ATOM      7  C   UNL d   1      28.570 -14.673  -2.035  0.00  0.00     0.020 A 
ATOM      8  C   UNL d   1      28.034 -15.894  -2.399  0.00  0.00     0.119 A 
ATOM      9  N   UNL d   1      27.189 -16.601  -1.615  0.00  0.00    -0.236 NA
ATOM     10  C   UNL d   1      26.875 -16.107  -0.380  0.00  0.00     0.185 A 
BRANCH  10  11
ATOM     11  O   UNL d   1      26.070 -16.987   0.317  0.00  0.00    -0.291 OA
BRANCH  11  12
ATOM     12  C   UNL d   1      24.826 -17.340  -0.145  0.00  0.00     0.077 A 
ATOM     13  C   UNL d   1      24.511 -18.704  -0.160  0.00  0.00     0.037 A 
ATOM     14  C   UNL d   1      23.233 -19.123  -0.534  0.00  0.00     0.003 A 
ATOM     15  C   UNL d   1      22.263 -18.177  -0.859  0.00  0.00     0.000 A 
ATOM     16  C   UNL d   1      22.585 -16.817  -0.862  0.00  0.00     0.003 A 
ATOM     17  C   UNL d   1      23.879 -16.398  -0.547  0.00  0.00     0.037 A 
ENDBRANCH  11  12
ENDBRANCH  10  11
ENDBRANCH   2   5
BRANCH   1  18
ATOM     18  C   UNL d   1      28.427 -14.426   3.694  0.00  0.00     0.061 A 
ATOM     19  C   UNL d   1      27.381 -13.844   4.424  0.00  0.00     0.032 A 
ATOM     20  C   UNL d   1      27.575 -13.211   5.649  0.00  0.00     0.009 A 
ATOM     21  C   UNL d   1      28.825 -13.224   6.241  0.00  0.00    -0.060 A 
ATOM     22  C   UNL d   1      28.995 -12.680   7.627  0.00  0.00     0.048 C 
ATOM     23  C   UNL d   1      29.889 -13.817   5.540  0.00  0.00     0.038 A 
ATOM     24  C   UNL d   1      29.712 -14.429   4.273  0.00  0.00     0.053 A 
BRANCH  24  25
ATOM     25  N   UNL d   1      30.861 -14.835   3.570  0.00  0.00    -0.397 N 
ATOM     26  H   UNL d   1      30.746 -15.547   2.864  0.00  0.00     0.156 HD
ATOM     27  H   UNL d   1      31.683 -14.978   4.151  0.00  0.00     0.156 HD
ENDBRANCH  24  25
ENDBRANCH   1  18
TORSDOF 5
ENDMDL
MODEL 2
REMARK VINA RESULT:    -6.852      2.145      3.066
REMARK INTER + INTRA:         -10.971
REMARK INTER:                  -8.343
REMARK INTRA:                  -2.628
REMARK CONF_INDEPENDENT:        1.492
REMARK UNBOUND:                -2.628
REMARK  5 active torsions:
REMARK  status: ('A' for Active; 'I' for Inactive)
REMARK    1  A    between atoms: C_5  and  N_6 
REMARK       I    between atoms: N_6  and  C_7 
REMARK    2  A    between atoms: C_7  and  C_9 
REMARK    3  A    between atoms: C_14  and  O_15 
REMARK    4  A    between atoms: O_15  and  C_16 
REMARK    5  A    between atoms: C_22  and  N_23 
ROOT
ATOM      1  N   UNL d   1      26.637 -13.886  -0.525  0.00  0.00    -0.321 N 
ATOM      2  C   UNL d   1      27.545 -14.033  -1.572  0.00  0.00     0.260 C 
ATOM      3  O   UNL d   1      28.772 -13.925  -1.508  0.00  0.00    -0.267 OA
ATOM      4  H   UNL d   1      25.650 -13.851  -0.735  0.00  0.00     0.169 HD
ENDROOT
BRANCH   2   5
ATOM      5  C   UNL d   1      27.006 -14.285  -2.919  0.00  0.00     0.085 A 
ATOM      6  C   UNL d   1      27.936 -14.267  -3.966  0.00  0.00     0.023 A 
ATOM      7  C   UNL d   1      27.572 -14.739  -5.221  0.00  0.00     0.020 A 
ATOM      8  C   UNL d   1      26.281 -15.200  -5.395  0.00  0.00     0.119 A 
ATOM      9  N   UNL d   1      25.351 -15.199  -4.414  0.00  0.00    -0.236 NA
ATOM     10  C   UNL d   1      25.710 -14.757  -3.172  0.00  0.00     0.185 A 
BRANCH  10  11
ATOM     11  O   UNL d   1      24.669 -14.897  -2.275  0.00  0.00    -0.291 OA
BRANCH  11  12
ATOM     12  C   UNL d   1      24.515 -16.039  -1.528  0.00  0.00     0.077 A 
ATOM     13  C   UNL d   1      25.668 -16.781  -1.247  0.00  0.00     0.037 A 
ATOM     14  C   UNL d   1      25.594 -17.903  -0.421  0.00  0.00     0.003 A 
ATOM     15  C   UNL d   1      24.375 -18.261   0.151  0.00  0.00     0.000 A 
ATOM     16  C   UNL d   1      23.222 -17.531  -0.145  0.00  0.00     0.003 A 
ATOM     17  C   UNL d   1      23.280 -16.444  -1.020  0.00  0.00     0.037 A 
ENDBRANCH  11  12
ENDBRANCH  10  11
ENDBRANCH   2   5
BRANCH   1  18
ATOM     18  C   UNL d   1      26.987 -13.887   0.864  0.00  0.00     0.061 A 
ATOM     19  C   UNL d   1      26.610 -12.825   1.698  0.00  0.00     0.032 A 
ATOM     20  C   UNL d   1      27.032 -12.715   3.021  0.00  0.00     0.009 A 
ATOM     21  C   UNL d   1      27.778 -13.730   3.593  0.00  0.00    -0.060 A 
ATOM     22  C   UNL d   1      28.096 -13.682   5.056  0.00  0.00     0.048 C 
ATOM     23  C   UNL d   1      28.155 -14.817   2.785  0.00  0.00     0.038 A 
ATOM     24  C   UNL d   1      27.766 -14.920   1.426  0.00  0.00     0.053 A 
BRANCH  24  25
ATOM     25  N   UNL d   1      28.337 -15.946   0.651  0.00  0.00    -0.397 N 
ATOM     26  H   UNL d   1      28.910 -16.625   1.129  0.00  0.00     0.156 HD
ATOM     27  H   UNL d   1      28.739 -15.635  -0.231  0.00  0.00     0.156 HD
ENDBRANCH  24  25
ENDBRANCH   1  18
TORSDOF 5
ENDMDL
MODEL 3
REMARK VINA RESULT:    -6.552      4.704      8.166
REMARK INTER + INTRA:         -10.333
REMARK INTER:                  -8.043
REMARK INTRA:                  -2.290
REMARK CONF_INDEPENDENT:        1.492
REMARK UNBOUND:                -2.290
REMARK  5 active torsions:
REMARK  status: ('A' for Active; 'I' for Inactive)
REMARK    1  A    between atoms: C_5  and  N_6 
REMARK       I    between atoms: N_6  and  C_7 
REMARK    2  A    between atoms: C_7  and  C_9 
REMARK    3  A    between atoms: C_14  and  O_15 
REMARK    4  A    between atoms: O_15  and  C_16 
REMARK    5  A    between atoms: C_22  and  N_23 
ROOT
ATOM      1  N   UNL d   1      29.073 -16.083  -4.670  0.00  0.00    -0.321 N 
ATOM      2  C   UNL d   1      28.168 -15.221  -5.288  0.00  0.00     0.260 C 
ATOM      3  O   UNL d   1      28.084 -14.980  -6.495  0.00  0.00    -0.267 OA
ATOM      4  H   UNL d   1      29.140 -16.080  -3.662  0.00  0.00     0.169 HD
ENDROOT
BRANCH   2   5
ATOM      5  C   UNL d   1      27.245 -14.462  -4.429  0.00  0.00     0.085 A 
ATOM      6  C   UNL d   1      26.593 -13.380  -5.033  0.00  0.00     0.023 A 
ATOM      7  C   UNL d   1      25.527 -12.767  -4.387  0.00  0.00     0.020 A 
ATOM      8  C   UNL d   1      25.155 -13.246  -3.145  0.00  0.00     0.119 A 
ATOM      9  N   UNL d   1      25.785 -14.266  -2.521  0.00  0.00    -0.236 NA
ATOM     10  C   UNL d   1      26.821 -14.887  -3.162  0.00  0.00     0.185 A 
BRANCH  10  11
ATOM     11  O   UNL d   1      27.296 -15.952  -2.421  0.00  0.00    -0.291 OA
BRANCH  11  12
ATOM     12  C   UNL d   1      26.463 -16.707  -1.635  0.00  0.00     0.077 A 
ATOM     13  C   UNL d   1      26.961 -17.131  -0.397  0.00  0.00     0.037 A 
ATOM     14  C   UNL d   1      26.136 -17.827   0.488  0.00  0.00     0.003 A 
ATOM     15  C   UNL d   1      24.806 -18.068   0.149  0.00  0.00     0.000 A 
ATOM     16  C   UNL d   1      24.316 -17.661  -1.094  0.00  0.00     0.003 A 
ATOM     17  C   UNL d   1      25.155 -17.019  -2.007  0.00  0.00     0.037 A 
ENDBRANCH  11  12
ENDBRANCH  10  11
ENDBRANCH   2   5
BRANCH   1  18
ATOM     18  C   UNL d   1      29.858 -17.068  -5.353  0.00  0.00     0.061 A 
ATOM     19  C   UNL d   1      30.161 -18.292  -4.739  0.00  0.00     0.032 A 
ATOM     20  C   UNL d   1      31.024 -19.228  -5.304  0.00  0.00     0.009 A 
ATOM     21  C   UNL d   1      31.543 -19.011  -6.569  0.00  0.00    -0.060 A 
ATOM     22  C   UNL d   1      32.342 -20.089  -7.236  0.00  0.00     0.048 C 
ATOM     23  C   UNL d   1      31.240 -17.801  -7.215  0.00  0.00     0.038 A 
ATOM     24  C   UNL d   1      30.397 -16.822  -6.632  0.00  0.00     0.053 A 
BRANCH  24  25
ATOM     25  N   UNL d   1      30.296 -15.572  -7.270  0.00  0.00    -0.397 N 
ATOM     26  H   UNL d   1      30.289 -14.751  -6.684  0.00  0.00     0.156 HD
ATOM     27  H   UNL d   1      29.607 -15.535  -8.018  0.00  0.00     0.156 HD
ENDBRANCH  24  25
ENDBRANCH   1  18
TORSDOF 5
ENDMDL
MODEL 4
REMARK VINA RESULT:    -6.425      3.551      7.622
REMARK INTER + INTRA:         -10.535
REMARK INTER:                  -7.917
REMARK INTRA:                  -2.618
REMARK CONF_INDEPENDENT:        1.492
REMARK UNBOUND:                -2.618
REMARK  5 active torsions:
REMARK  status: ('A' for Active; 'I' for Inactive)
REMARK    1  A    between atoms: C_5  and  N_6 
REMARK       I    between atoms: N_6  and  C_7 
REMARK    2  A    between atoms: C_7  and  C_9 
REMARK    3  A    between atoms: C_14  and  O_15 
REMARK    4  A    between atoms: O_15  and  C_16 
REMARK    5  A    between atoms: C_22  and  N_23 
ROOT
ATOM      1  N   UNL d   1      26.177 -15.363  -2.873  0.00  0.00    -0.321 N 
ATOM      2  C   UNL d   1      24.855 -15.308  -2.434  0.00  0.00     0.260 C 
ATOM      3  O   UNL d   1      23.998 -14.488  -2.770  0.00  0.00    -0.267 OA
ATOM      4  H   UNL d   1      26.821 -15.990  -2.411  0.00  0.00     0.169 HD
ENDROOT
BRANCH   2   5
ATOM      5  C   UNL d   1      24.428 -16.283  -1.416  0.00  0.00     0.085 A 
ATOM      6  C   UNL d   1      23.055 -16.325  -1.144  0.00  0.00     0.023 A 
ATOM      7  C   UNL d   1      22.531 -17.372  -0.397  0.00  0.00     0.020 A 
ATOM      8  C   UNL d   1      23.401 -18.339   0.071  0.00  0.00     0.119 A 
ATOM      9  N   UNL d   1      24.735 -18.308  -0.145  0.00  0.00    -0.236 NA
ATOM     10  C   UNL d   1      25.253 -17.292  -0.899  0.00  0.00     0.185 A 
BRANCH  10  11
ATOM     11  O   UNL d   1      26.612 -17.457  -1.087  0.00  0.00    -0.291 OA
BRANCH  11  12
ATOM     12  C   UNL d   1      27.526 -16.675  -0.428  0.00  0.00     0.077 A 
ATOM     13  C   UNL d   1      28.858 -16.751  -0.852  0.00  0.00     0.037 A 
ATOM     14  C   UNL d   1      29.823 -15.918  -0.283  0.00  0.00     0.003 A 
ATOM     15  C   UNL d   1      29.449 -14.987   0.684  0.00  0.00     0.000 A 
ATOM     16  C   UNL d   1      28.123 -14.925   1.119  0.00  0.00     0.003 A 
ATOM     17  C   UNL d   1      27.167 -15.798   0.596  0.00  0.00     0.037 A 
ENDBRANCH  11  12
ENDBRANCH  10  11
ENDBRANCH   2   5
BRANCH   1  18
ATOM     18  C   UNL d   1      26.685 -14.668  -4.018  0.00  0.00     0.061 A 
ATOM     19  C   UNL d   1      27.691 -15.237  -4.812  0.00  0.00     0.032 A 
ATOM     20  C   UNL d   1      28.309 -14.553  -5.857  0.00  0.00     0.009 A 
ATOM     21  C   UNL d   1      27.864 -13.291  -6.211  0.00  0.00    -0.060 A 
ATOM     22  C   UNL d   1      28.424 -12.625  -7.431  0.00  0.00     0.048 C 
ATOM     23  C   UNL d   1      26.844 -12.704  -5.444  0.00  0.00     0.038 A 
ATOM     24  C   UNL d   1      26.236 -13.374  -4.353  0.00  0.00     0.053 A 
BRANCH  24  25
ATOM     25  N   UNL d   1      25.355 -12.643  -3.536  0.00  0.00    -0.397 N 
ATOM     26  H   UNL d   1      25.391 -12.815  -2.542  0.00  0.00     0.156 HD
ATOM     27  H   UNL d   1      24.405 -12.575  -3.895  0.00  0.00     0.156 HD
ENDBRANCH  24  25
ENDBRANCH   1  18
TORSDOF 5
ENDMDL
MODEL 5
REMARK VINA RESULT:    -6.311      2.119      2.857
REMARK INTER + INTRA:         -10.066
REMARK INTER:                  -7.802
REMARK INTRA:                  -2.264
REMARK CONF_INDEPENDENT:        1.492
REMARK UNBOUND:                -2.264
REMARK  5 active torsions:
REMARK  status: ('A' for Active; 'I' for Inactive)
REMARK    1  A    between atoms: C_5  and  N_6 
REMARK       I    between atoms: N_6  and  C_7 
REMARK    2  A    between atoms: C_7  and  C_9 
REMARK    3  A    between atoms: C_14  and  O_15 
REMARK    4  A    between atoms: O_15  and  C_16 
REMARK    5  A    between atoms: C_22  and  N_23 
ROOT
ATOM      1  N   UNL d   1      26.458 -13.988   0.433  0.00  0.00    -0.321 N 
ATOM      2  C   UNL d   1      26.650 -13.263  -0.741  0.00  0.00     0.260 C 
ATOM      3  O   UNL d   1      27.178 -12.154  -0.848  0.00  0.00    -0.267 OA
ATOM      4  H   UNL d   1      25.879 -14.815   0.408  0.00  0.00     0.169 HD
ENDROOT
BRANCH   2   5
ATOM      5  C   UNL d   1      26.122 -13.830  -1.994  0.00  0.00     0.085 A 
ATOM      6  C   UNL d   1      26.059 -12.956  -3.085  0.00  0.00     0.023 A 
ATOM      7  C   UNL d   1      25.818 -13.457  -4.359  0.00  0.00     0.020 A 
ATOM      8  C   UNL d   1      25.632 -14.819  -4.498  0.00  0.00     0.119 A 
ATOM      9  N   UNL d   1      25.653 -15.685  -3.460  0.00  0.00    -0.236 NA
ATOM     10  C   UNL d   1      25.911 -15.200  -2.209  0.00  0.00     0.185 A 
BRANCH  10  11
ATOM     11  O   UNL d   1      25.975 -16.224  -1.283  0.00  0.00    -0.291 OA
BRANCH  11  12
ATOM     12  C   UNL d   1      24.856 -16.927  -0.913  0.00  0.00     0.077 A 
ATOM     13  C   UNL d   1      23.614 -16.328  -1.157  0.00  0.00     0.037 A 
ATOM     14  C   UNL d   1      22.436 -17.026  -0.886  0.00  0.00     0.003 A 
ATOM     15  C   UNL d   1      22.501 -18.332  -0.405  0.00  0.00     0.000 A 
ATOM     16  C   UNL d   1      23.741 -18.921  -0.145  0.00  0.00     0.003 A 
ATOM     17  C   UNL d   1      24.920 -18.204  -0.356  0.00  0.00     0.037 A 
ENDBRANCH  11  12
ENDBRANCH  10  11
ENDBRANCH   2   5
BRANCH   1  18
ATOM     18  C   UNL d   1      27.113 -13.713   1.678  0.00  0.00     0.061 A 
ATOM     19  C   UNL d   1      27.779 -14.730   2.376  0.00  0.00     0.032 A 
ATOM     20  C   UNL d   1      28.319 -14.546   3.647  0.00  0.00     0.009 A 
ATOM     21  C   UNL d   1      28.297 -13.292   4.230  0.00  0.00    -0.060 A 
ATOM     22  C   UNL d   1      29.016 -13.064   5.525  0.00  0.00     0.048 C 
ATOM     23  C   UNL d   1      27.652 -12.249   3.545  0.00  0.00     0.038 A 
ATOM     24  C   UNL d   1      27.061 -12.433   2.268  0.00  0.00     0.053 A 
BRANCH  24  25
ATOM     25  N   UNL d   1      26.285 -11.386   1.742  0.00  0.00    -0.397 N 
ATOM     26  H   UNL d   1      26.407 -11.162   0.765  0.00  0.00     0.156 HD
ATOM     27  H   UNL d   1      26.231 -10.561   2.335  0.00  0.00     0.156 HD
ENDBRANCH  24  25
ENDBRANCH   1  18
TORSDOF 5
ENDMDL
MODEL 6
REMARK VINA RESULT:    -5.979      3.051      5.102
REMARK INTER + INTRA:         -10.009
REMARK INTER:                  -7.470
REMARK INTRA:                  -2.539
REMARK CONF_INDEPENDENT:        1.492
REMARK UNBOUND:                -2.539
REMARK  5 active torsions:
REMARK  status: ('A' for Active; 'I' for Inactive)
REMARK    1  A    between atoms: C_5  and  N_6 
REMARK       I    between atoms: N_6  and  C_7 
REMARK    2  A    between atoms: C_7  and  C_9 
REMARK    3  A    between atoms: C_14  and  O_15 
REMARK    4  A    between atoms: O_15  and  C_16 
REMARK    5  A    between atoms: C_22  and  N_23 
ROOT
ATOM      1  N   UNL d   1      27.390 -15.980  -0.244  0.00  0.00    -0.321 N 
ATOM      2  C   UNL d   1      26.829 -17.255  -0.223  0.00  0.00     0.260 C 
ATOM      3  O   UNL d   1      27.418 -18.319  -0.018  0.00  0.00    -0.267 OA
ATOM      4  H   UNL d   1      26.830 -15.204  -0.570  0.00  0.00     0.169 HD
ENDROOT
BRANCH   2   5
ATOM      5  C   UNL d   1      25.394 -17.380  -0.532  0.00  0.00     0.085 A 
ATOM      6  C   UNL d   1      24.780 -18.571  -0.126  0.00  0.00     0.023 A 
ATOM      7  C   UNL d   1      23.395 -18.675  -0.145  0.00  0.00     0.020 A 
ATOM      8  C   UNL d   1      22.666 -17.587  -0.587  0.00  0.00     0.119 A 
ATOM      9  N   UNL d   1      23.230 -16.437  -1.018  0.00  0.00    -0.236 NA
ATOM     10  C   UNL d   1      24.591 -16.321  -0.980  0.00  0.00     0.185 A 
BRANCH  10  11
ATOM     11  O   UNL d   1      24.994 -15.061  -1.378  0.00  0.00    -0.291 OA
BRANCH  11  12
ATOM     12  C   UNL d   1      25.527 -14.838  -2.622  0.00  0.00     0.077 A 
ATOM     13  C   UNL d   1      24.947 -13.825  -3.396  0.00  0.00     0.037 A 
ATOM     14  C   UNL d   1      25.496 -13.489  -4.634  0.00  0.00     0.003 A 
ATOM     15  C   UNL d   1      26.643 -14.141  -5.082  0.00  0.00     0.000 A 
ATOM     16  C   UNL d   1      27.209 -15.164  -4.318  0.00  0.00     0.003 A 
ATOM     17  C   UNL d   1      26.627 -15.546  -3.107  0.00  0.00     0.037 A 
ENDBRANCH  11  12
ENDBRANCH  10  11
ENDBRANCH   2   5
BRANCH   1  18
ATOM     18  C   UNL d   1      28.687 -15.650   0.269  0.00  0.00     0.061 A 
ATOM     19  C   UNL d   1      28.918 -14.416   0.892  0.00  0.00     0.032 A 
ATOM     20  C   UNL d   1      30.184 -13.995   1.291  0.00  0.00     0.009 A 
ATOM     21  C   UNL d   1      31.265 -14.851   1.168  0.00  0.00    -0.060 A 
ATOM     22  C   UNL d   1      32.592 -14.455   1.741  0.00  0.00     0.048 C 
ATOM     23  C   UNL d   1      31.059 -16.102   0.564  0.00  0.00     0.038 A 
ATOM     24  C   UNL d   1      29.782 -16.525   0.115  0.00  0.00     0.053 A 
BRANCH  24  25
ATOM     25  N   UNL d   1      29.705 -17.712  -0.636  0.00  0.00    -0.397 N 
ATOM     26  H   UNL d   1      29.064 -17.728  -1.416  0.00  0.00     0.156 HD
ATOM     27  H   UNL d   1      29.676 -18.563  -0.079  0.00  0.00     0.156 HD
ENDBRANCH  24  25
ENDBRANCH   1  18
TORSDOF 5
ENDMDL
MODEL 7
REMARK VINA RESULT:    -5.646      2.259      4.343
REMARK INTER + INTRA:          -9.627
REMARK INTER:                  -7.138
REMARK INTRA:                  -2.489
REMARK CONF_INDEPENDENT:        1.492
REMARK UNBOUND:                -2.489
REMARK  5 active torsions:
REMARK  status: ('A' for Active; 'I' for Inactive)
REMARK    1  A    between atoms: C_5  and  N_6 
REMARK       I    between atoms: N_6  and  C_7 
REMARK    2  A    between atoms: C_7  and  C_9 
REMARK    3  A    between atoms: C_14  and  O_15 
REMARK    4  A    between atoms: O_15  and  C_16 
REMARK    5  A    between atoms: C_22  and  N_23 
ROOT
ATOM      1  N   UNL d   1      26.646 -14.952   0.442  0.00  0.00    -0.321 N 
ATOM      2  C   UNL d   1      26.720 -16.340   0.337  0.00  0.00     0.260 C 
ATOM      3  O   UNL d   1      27.654 -17.060   0.697  0.00  0.00    -0.267 OA
ATOM      4  H   UNL d   1      25.894 -14.465  -0.025  0.00  0.00     0.169 HD
ENDROOT
BRANCH   2   5
ATOM      5  C   UNL d   1      25.605 -17.039  -0.323  0.00  0.00     0.085 A 
ATOM      6  C   UNL d   1      25.223 -18.261   0.245  0.00  0.00     0.023 A 
ATOM      7  C   UNL d   1      24.034 -18.863  -0.146  0.00  0.00     0.020 A 
ATOM      8  C   UNL d   1      23.269 -18.232  -1.108  0.00  0.00     0.119 A 
ATOM      9  N   UNL d   1      23.626 -17.070  -1.700  0.00  0.00    -0.236 NA
ATOM     10  C   UNL d   1      24.784 -16.462  -1.303  0.00  0.00     0.185 A 
BRANCH  10  11
ATOM     11  O   UNL d   1      24.957 -15.252  -1.949  0.00  0.00    -0.291 OA
BRANCH  11  12
ATOM     12  C   UNL d   1      25.885 -15.099  -2.947  0.00  0.00     0.077 A 
ATOM     13  C   UNL d   1      27.234 -15.103  -2.574  0.00  0.00     0.037 A 
ATOM     14  C   UNL d   1      28.231 -15.039  -3.549  0.00  0.00     0.003 A 
ATOM     15  C   UNL d   1      27.878 -15.006  -4.897  0.00  0.00     0.000 A 
ATOM     16  C   UNL d   1      26.531 -14.983  -5.267  0.00  0.00     0.003 A 
ATOM     17  C   UNL d   1      25.531 -14.985  -4.292  0.00  0.00     0.037 A 
ENDBRANCH  11  12
ENDBRANCH  10  11
ENDBRANCH   2   5
BRANCH   1  18
ATOM     18  C   UNL d   1      27.505 -14.149   1.261  0.00  0.00     0.061 A 
ATOM     19  C   UNL d   1      27.019 -12.995   1.892  0.00  0.00     0.032 A 
ATOM     20  C   UNL d   1      27.839 -12.113   2.592  0.00  0.00     0.009 A 
ATOM     21  C   UNL d   1      29.178 -12.412   2.770  0.00  0.00    -0.060 A 
ATOM     22  C   UNL d   1      30.019 -11.542   3.654  0.00  0.00     0.048 C 
ATOM     23  C   UNL d   1      29.689 -13.572   2.165  0.00  0.00     0.038 A 
ATOM     24  C   UNL d   1      28.873 -14.457   1.415  0.00  0.00     0.053 A 
BRANCH  24  25
ATOM     25  N   UNL d   1      29.502 -15.491   0.699  0.00  0.00    -0.397 N 
ATOM     26  H   UNL d   1      29.168 -15.681  -0.234  0.00  0.00     0.156 HD
ATOM     27  H   UNL d   1      29.675 -16.335   1.241  0.00  0.00     0.156 HD
ENDBRANCH  24  25
ENDBRANCH   1  18
TORSDOF 5
ENDMDL
MODEL 8
REMARK VINA RESULT:    -5.570      1.936      6.732
REMARK INTER + INTRA:          -9.557
REMARK INTER:                  -7.061
REMARK INTRA:                  -2.496
REMARK CONF_INDEPENDENT:        1.492
REMARK UNBOUND:                -2.496
REMARK  5 active torsions:
REMARK  status: ('A' for Active; 'I' for Inactive)
REMARK    1  A    between atoms: C_5  and  N_6 
REMARK       I    between atoms: N_6  and  C_7 
REMARK    2  A    between atoms: C_7  and  C_9 
REMARK    3  A    between atoms: C_14  and  O_15 
REMARK    4  A    between atoms: O_15  and  C_16 
REMARK    5  A    between atoms: C_22  and  N_23 
ROOT
ATOM      1  N   UNL d   1      27.113 -16.039   0.101  0.00  0.00    -0.321 N 
ATOM      2  C   UNL d   1      28.365 -16.621  -0.091  0.00  0.00     0.260 C 
ATOM      3  O   UNL d   1      28.605 -17.819  -0.261  0.00  0.00    -0.267 OA
ATOM      4  H   UNL d   1      27.063 -15.069   0.378  0.00  0.00     0.169 HD
ENDROOT
BRANCH   2   5
ATOM      5  C   UNL d   1      29.547 -15.745  -0.031  0.00  0.00     0.085 A 
ATOM      6  C   UNL d   1      30.620 -16.105  -0.856  0.00  0.00     0.023 A 
ATOM      7  C   UNL d   1      31.666 -15.212  -1.057  0.00  0.00     0.020 A 
ATOM      8  C   UNL d   1      31.614 -13.991  -0.412  0.00  0.00     0.119 A 
ATOM      9  N   UNL d   1      30.609 -13.628   0.416  0.00  0.00    -0.236 NA
ATOM     10  C   UNL d   1      29.567 -14.493   0.600  0.00  0.00     0.185 A 
BRANCH  10  11
ATOM     11  O   UNL d   1      28.595 -13.935   1.408  0.00  0.00    -0.291 OA
BRANCH  11  12
ATOM     12  C   UNL d   1      28.631 -14.075   2.773  0.00  0.00     0.077 A 
ATOM     13  C   UNL d   1      27.433 -13.875   3.469  0.00  0.00     0.037 A 
ATOM     14  C   UNL d   1      27.381 -14.086   4.848  0.00  0.00     0.003 A 
ATOM     15  C   UNL d   1      28.517 -14.531   5.522  0.00  0.00     0.000 A 
ATOM     16  C   UNL d   1      29.716 -14.713   4.829  0.00  0.00     0.003 A 
ATOM     17  C   UNL d   1      29.788 -14.443   3.461  0.00  0.00     0.037 A 
ENDBRANCH  11  12
ENDBRANCH  10  11
ENDBRANCH   2   5
BRANCH   1  18
ATOM     18  C   UNL d   1      25.863 -16.685  -0.169  0.00  0.00     0.061 A 
ATOM     19  C   UNL d   1      24.765 -15.950  -0.638  0.00  0.00     0.032 A 
ATOM     20  C   UNL d   1      23.496 -16.503  -0.793  0.00  0.00     0.009 A 
ATOM     21  C   UNL d   1      23.302 -17.855  -0.575  0.00  0.00    -0.060 A 
ATOM     22  C   UNL d   1      21.975 -18.474  -0.893  0.00  0.00     0.048 C 
ATOM     23  C   UNL d   1      24.390 -18.620  -0.122  0.00  0.00     0.038 A 
ATOM     24  C   UNL d   1      25.677 -18.060   0.080  0.00  0.00     0.053 A 
BRANCH  24  25
ATOM     25  N   UNL d   1      26.654 -18.857   0.704  0.00  0.00    -0.397 N 
ATOM     26  H   UNL d   1      27.245 -18.414   1.392  0.00  0.00     0.156 HD
ATOM     27  H   UNL d   1      27.167 -19.468   0.072  0.00  0.00     0.156 HD
ENDBRANCH  24  25
ENDBRANCH   1  18
TORSDOF 5
ENDMDL
MODEL 9
REMARK VINA RESULT:    -5.518      4.074      6.196
REMARK INTER + INTRA:          -9.858
REMARK INTER:                  -7.010
REMARK INTRA:                  -2.848
REMARK CONF_INDEPENDENT:        1.492
REMARK UNBOUND:                -2.848
REMARK  5 active torsions:
REMARK  status: ('A' for Active; 'I' for Inactive)
REMARK    1  A    between atoms: C_5  and  N_6 
REMARK       I    between atoms: N_6  and  C_7 
REMARK    2  A    between atoms: C_7  and  C_9 
REMARK    3  A    between atoms: C_14  and  O_15 
REMARK    4  A    between atoms: O_15  and  C_16 
REMARK    5  A    between atoms: C_22  and  N_23 
ROOT
ATOM      1  N   UNL d   1      26.832 -16.089  -0.442  0.00  0.00    -0.321 N 
ATOM      2  C   UNL d   1      28.077 -16.714  -0.470  0.00  0.00     0.260 C 
ATOM      3  O   UNL d   1      28.309 -17.908  -0.267  0.00  0.00    -0.267 OA
ATOM      4  H   UNL d   1      26.790 -15.080  -0.477  0.00  0.00     0.169 HD
ENDROOT
BRANCH   2   5
ATOM      5  C   UNL d   1      29.263 -15.874  -0.705  0.00  0.00     0.085 A 
ATOM      6  C   UNL d   1      30.503 -16.486  -0.485  0.00  0.00     0.023 A 
ATOM      7  C   UNL d   1      31.667 -15.864  -0.918  0.00  0.00     0.020 A 
ATOM      8  C   UNL d   1      31.556 -14.638  -1.544  0.00  0.00     0.119 A 
ATOM      9  N   UNL d   1      30.378 -14.005  -1.741  0.00  0.00    -0.236 NA
ATOM     10  C   UNL d   1      29.228 -14.623  -1.337  0.00  0.00     0.185 A 
BRANCH  10  11
ATOM     11  O   UNL d   1      28.116 -13.879  -1.684  0.00  0.00    -0.291 OA
BRANCH  11  12
ATOM     12  C   UNL d   1      27.321 -14.231  -2.745  0.00  0.00     0.077 A 
ATOM     13  C   UNL d   1      26.008 -13.746  -2.751  0.00  0.00     0.037 A 
ATOM     14  C   UNL d   1      25.174 -13.994  -3.843  0.00  0.00     0.003 A 
ATOM     15  C   UNL d   1      25.665 -14.697  -4.941  0.00  0.00     0.000 A 
ATOM     16  C   UNL d   1      26.969 -15.196  -4.926  0.00  0.00     0.003 A 
ATOM     17  C   UNL d   1      27.786 -15.003  -3.811  0.00  0.00     0.037 A 
ENDBRANCH  11  12
ENDBRANCH  10  11
ENDBRANCH   2   5
BRANCH   1  18
ATOM     18  C   UNL d   1      25.574 -16.774  -0.477  0.00  0.00     0.061 A 
ATOM     19  C   UNL d   1      24.468 -16.207  -1.125  0.00  0.00     0.032 A 
ATOM     20  C   UNL d   1      23.194 -16.769  -1.078  0.00  0.00     0.009 A 
ATOM     21  C   UNL d   1      23.001 -17.988  -0.453  0.00  0.00    -0.060 A 
ATOM     22  C   UNL d   1      21.666 -18.662  -0.540  0.00  0.00     0.048 C 
ATOM     23  C   UNL d   1      24.096 -18.589   0.189  0.00  0.00     0.038 A 
ATOM     24  C   UNL d   1      25.390 -18.006   0.184  0.00  0.00     0.053 A 
BRANCH  24  25
ATOM     25  N   UNL d   1      26.378 -18.584   1.001  0.00  0.00    -0.397 N 
ATOM     26  H   UNL d   1      26.978 -17.958   1.518  0.00  0.00     0.156 HD
ATOM     27  H   UNL d   1      26.883 -19.356   0.571  0.00  0.00     0.156 HD
ENDBRANCH  24  25
ENDBRANCH   1  18
TORSDOF 5
ENDMDL
