MODEL 1
REMARK VINA RESULT:   -10.418      0.000      0.000
REMARK INTER + INTRA:         -16.312
REMARK INTER:                 -14.594
REMARK INTRA:                  -1.718
REMARK CONF_INDEPENDENT:        4.176
REMARK UNBOUND:                -1.718
REMARK  14 active torsions:
REMARK  status: ('A' for Active; 'I' for Inactive)
REMARK    1  A    between atoms: C_2  and  C_3 
REMARK    2  A    between atoms: C_3  and  C_4 
REMARK    3  A    between atoms: C_4  and  O_5 
REMARK    4  A    between atoms: O_5  and  C_6 
REMARK    5  A    between atoms: C_11  and  C_12 
REMARK       I    between atoms: C_12  and  N_14 
REMARK    6  A    between atoms: N_14  and  C_15 
REMARK    7  A    between atoms: C_15  and  N_17 
REMARK    8  A    between atoms: C_23  and  C_24 
REMARK    9  A    between atoms: C_24  and  C_25 
REMARK   10  A    between atoms: C_25  and  O_27 
REMARK   11  A    between atoms: O_27  and  C_28 
REMARK   12  A    between atoms: C_28  and  C_29 
REMARK   13  A    between atoms: C_29  and  C_30 
REMARK   14  A    between atoms: C_30  and  C_31 
ROOT
ATOM      1  N   UNL d   1      27.168 -14.806  -3.035  0.00  0.00    -0.343 N 
ATOM      2  C   UNL d   1      27.401 -13.341  -2.850  0.00  0.00     0.146 C 
ATOM      3  C   UNL d   1      26.808 -12.522  -3.992  0.00  0.00     0.142 C 
ATOM      4  N   UNL d   1      25.375 -12.731  -4.013  0.00  0.00    -0.358 N 
ATOM      5  C   UNL d   1      24.794 -13.946  -3.732  0.00  0.00     0.241 C 
ATOM      6  O   UNL d   1      23.575 -14.075  -3.894  0.00  0.00    -0.271 OA
ATOM      7  C   UNL d   1      25.673 -15.095  -3.119  0.00  0.00     0.188 C 
ATOM      8  H   UNL d   1      24.780 -12.096  -4.538  0.00  0.00     0.162 HD
ENDROOT
BRANCH   1   9
ATOM      9  C   UNL d   1      28.266 -15.736  -2.817  0.00  0.00     0.177 C 
ATOM     10  S   UNL d   1      28.281 -16.700  -1.416  0.00  0.00    -0.041 SA
BRANCH   9  11
ATOM     11  N   UNL d   1      29.339 -15.788  -3.766  0.00  0.00    -0.299 N 
ATOM     12  C   UNL d   1      29.187 -15.944  -5.190  0.00  0.00     0.260 C 
ATOM     13  O   UNL d   1      28.217 -15.506  -5.811  0.00  0.00    -0.267 OA
ATOM     14  H   UNL d   1      30.280 -15.920  -3.426  0.00  0.00     0.171 HD
BRANCH  12  15
ATOM     15  C   UNL d   1      30.199 -16.652  -6.079  0.00  0.00     0.065 A 
ATOM     16  C   UNL d   1      30.815 -15.877  -7.098  0.00  0.00     0.020 A 
ATOM     17  C   UNL d   1      31.792 -16.397  -7.964  0.00  0.00     0.001 A 
ATOM     18  C   UNL d   1      32.188 -17.717  -7.837  0.00  0.00     0.003 A 
ATOM     19  C   UNL d   1      31.532 -18.526  -6.914  0.00  0.00     0.038 A 
ATOM     20  C   UNL d   1      30.544 -18.000  -6.052  0.00  0.00     0.084 A 
BRANCH  20  21
ATOM     21  O   UNL d   1      30.095 -18.879  -5.132  0.00  0.00    -0.350 OA
BRANCH  21  22
ATOM     22  C   UNL d   1      30.389 -20.236  -5.401  0.00  0.00     0.175 C 
BRANCH  22  23
ATOM     23  C   UNL d   1      31.230 -20.590  -4.207  0.00  0.00     0.026 C 
BRANCH  23  24
ATOM     24  C   UNL d   1      31.490 -19.349  -3.430  0.00  0.00    -0.002 C 
ATOM     25  C   UNL d   1      31.482 -19.675  -1.962  0.00  0.00     0.005 C 
ENDBRANCH  23  24
ENDBRANCH  22  23
ENDBRANCH  21  22
ENDBRANCH  20  21
ENDBRANCH  12  15
ENDBRANCH   9  11
ENDBRANCH   1   9
BRANCH   7  26
ATOM     26  C   UNL d   1      24.942 -15.202  -1.792  0.00  0.00     0.146 C 
BRANCH  26  27
ATOM     27  C   UNL d   1      24.682 -16.604  -1.499  0.00  0.00     0.261 C 
ATOM     28  O   UNL d   1      25.510 -17.508  -1.655  0.00  0.00    -0.265 OA
BRANCH  27  29
ATOM     29  O   UNL d   1      23.434 -16.800  -1.070  0.00  0.00    -0.321 OA
BRANCH  29  30
ATOM     30  C   UNL d   1      23.406 -18.001  -0.324  0.00  0.00     0.179 C 
BRANCH  30  31
ATOM     31  C   UNL d   1      22.497 -18.924  -1.064  0.00  0.00     0.031 C 
BRANCH  31  32
ATOM     32  C   UNL d   1      21.085 -18.421  -0.919  0.00  0.00     0.041 C 
BRANCH  32  33
ATOM     33  C   UNL d   1      20.311 -19.316  -0.008  0.00  0.00    -0.058 C 
ATOM     34  C   UNL d   1      19.258 -20.077  -0.518  0.00  0.00     0.007 C 
ATOM     35  C   UNL d   1      18.409 -20.744   0.355  0.00  0.00     0.001 C 
ATOM     36  C   UNL d   1      18.684 -20.755   1.722  0.00  0.00     0.000 C 
ATOM     37  C   UNL d   1      19.791 -20.073   2.223  0.00  0.00     0.001 C 
ATOM     38  C   UNL d   1      20.606 -19.353   1.359  0.00  0.00     0.007 C 
ENDBRANCH  32  33
ENDBRANCH  31  32
ENDBRANCH  30  31
ENDBRANCH  29  30
ENDBRANCH  27  29
ENDBRANCH  26  27
ENDBRANCH   7  26
TORSDOF 14
ENDMDL
MODEL 2
REMARK VINA RESULT:   -10.360      1.811      3.227
REMARK INTER + INTRA:         -16.333
REMARK INTER:                 -14.537
REMARK INTRA:                  -1.797
REMARK CONF_INDEPENDENT:        4.176
REMARK UNBOUND:                -1.797
REMARK  14 active torsions:
REMARK  status: ('A' for Active; 'I' for Inactive)
REMARK    1  A    between atoms: C_2  and  C_3 
REMARK    2  A    between atoms: C_3  and  C_4 
REMARK    3  A    between atoms: C_4  and  O_5 
REMARK    4  A    between atoms: O_5  and  C_6 
REMARK    5  A    between atoms: C_11  and  C_12 
REMARK       I    between atoms: C_12  and  N_14 
REMARK    6  A    between atoms: N_14  and  C_15 
REMARK    7  A    between atoms: C_15  and  N_17 
REMARK    8  A    between atoms: C_23  and  C_24 
REMARK    9  A    between atoms: C_24  and  C_25 
REMARK   10  A    between atoms: C_25  and  O_27 
REMARK   11  A    between atoms: O_27  and  C_28 
REMARK   12  A    between atoms: C_28  and  C_29 
REMARK   13  A    between atoms: C_29  and  C_30 
REMARK   14  A    between atoms: C_30  and  C_31 
ROOT
ATOM      1  N   UNL d   1      27.059 -15.779  -2.010  0.00  0.00    -0.343 N 
ATOM      2  C   UNL d   1      28.269 -16.562  -2.408  0.00  0.00     0.146 C 
ATOM      3  C   UNL d   1      29.328 -16.570  -1.309  0.00  0.00     0.142 C 
ATOM      4  N   UNL d   1      28.769 -17.209  -0.135  0.00  0.00    -0.358 N 
ATOM      5  C   UNL d   1      27.457 -17.051   0.246  0.00  0.00     0.241 C 
ATOM      6  O   UNL d   1      27.089 -17.526   1.326  0.00  0.00    -0.271 OA
ATOM      7  C   UNL d   1      26.446 -16.366  -0.743  0.00  0.00     0.188 C 
ATOM      8  H   UNL d   1      29.384 -17.523   0.608  0.00  0.00     0.162 HD
ENDROOT
BRANCH   1   9
ATOM      9  C   UNL d   1      26.476 -14.838  -2.954  0.00  0.00     0.177 C 
ATOM     10  S   UNL d   1      24.814 -14.487  -2.868  0.00  0.00    -0.041 SA
BRANCH   9  11
ATOM     11  N   UNL d   1      27.307 -14.258  -3.969  0.00  0.00    -0.299 N 
ATOM     12  C   UNL d   1      27.595 -14.850  -5.249  0.00  0.00     0.260 C 
ATOM     13  O   UNL d   1      26.795 -15.571  -5.849  0.00  0.00    -0.267 OA
ATOM     14  H   UNL d   1      27.896 -13.477  -3.723  0.00  0.00     0.171 HD
BRANCH  12  15
ATOM     15  C   UNL d   1      28.902 -14.648  -6.003  0.00  0.00     0.065 A 
ATOM     16  C   UNL d   1      29.231 -13.317  -6.378  0.00  0.00     0.020 A 
ATOM     17  C   UNL d   1      30.423 -12.987  -7.045  0.00  0.00     0.001 A 
ATOM     18  C   UNL d   1      31.331 -13.983  -7.360  0.00  0.00     0.003 A 
ATOM     19  C   UNL d   1      30.991 -15.306  -7.094  0.00  0.00     0.038 A 
ATOM     20  C   UNL d   1      29.788 -15.633  -6.431  0.00  0.00     0.084 A 
BRANCH  20  21
ATOM     21  O   UNL d   1      29.664 -16.944  -6.134  0.00  0.00    -0.350 OA
BRANCH  21  22
ATOM     22  C   UNL d   1      30.461 -17.396  -5.058  0.00  0.00     0.175 C 
BRANCH  22  23
ATOM     23  C   UNL d   1      30.144 -18.866  -5.064  0.00  0.00     0.026 C 
BRANCH  23  24
ATOM     24  C   UNL d   1      31.203 -19.572  -5.833  0.00  0.00    -0.002 C 
ATOM     25  C   UNL d   1      31.109 -19.176  -7.281  0.00  0.00     0.005 C 
ENDBRANCH  23  24
ENDBRANCH  22  23
ENDBRANCH  21  22
ENDBRANCH  20  21
ENDBRANCH  12  15
ENDBRANCH   9  11
ENDBRANCH   1   9
BRANCH   7  26
ATOM     26  C   UNL d   1      25.536 -17.567  -0.941  0.00  0.00     0.146 C 
BRANCH  26  27
ATOM     27  C   UNL d   1      24.167 -17.109  -1.122  0.00  0.00     0.261 C 
ATOM     28  O   UNL d   1      23.667 -16.163  -0.502  0.00  0.00    -0.265 OA
BRANCH  27  29
ATOM     29  O   UNL d   1      23.507 -17.849  -2.014  0.00  0.00    -0.321 OA
BRANCH  29  30
ATOM     30  C   UNL d   1      23.193 -19.091  -1.412  0.00  0.00     0.179 C 
BRANCH  30  31
ATOM     31  C   UNL d   1      22.318 -18.772  -0.246  0.00  0.00     0.031 C 
BRANCH  31  32
ATOM     32  C   UNL d   1      20.907 -18.596  -0.742  0.00  0.00     0.041 C 
BRANCH  32  33
ATOM     33  C   UNL d   1      19.964 -19.400   0.091  0.00  0.00    -0.058 C 
ATOM     34  C   UNL d   1      20.201 -19.543   1.459  0.00  0.00     0.007 C 
ATOM     35  C   UNL d   1      19.452 -20.454   2.193  0.00  0.00     0.001 C 
ATOM     36  C   UNL d   1      18.388 -21.126   1.591  0.00  0.00     0.000 C 
ATOM     37  C   UNL d   1      18.090 -20.912   0.246  0.00  0.00     0.001 C 
ATOM     38  C   UNL d   1      18.878 -20.049  -0.506  0.00  0.00     0.007 C 
ENDBRANCH  32  33
ENDBRANCH  31  32
ENDBRANCH  30  31
ENDBRANCH  29  30
ENDBRANCH  27  29
ENDBRANCH  26  27
ENDBRANCH   7  26
TORSDOF 14
ENDMDL
MODEL 3
REMARK VINA RESULT:   -10.037      2.169      4.299
REMARK INTER + INTRA:         -16.281
REMARK INTER:                 -14.213
REMARK INTRA:                  -2.068
REMARK CONF_INDEPENDENT:        4.176
REMARK UNBOUND:                -2.068
REMARK  14 active torsions:
REMARK  status: ('A' for Active; 'I' for Inactive)
REMARK    1  A    between atoms: C_2  and  C_3 
REMARK    2  A    between atoms: C_3  and  C_4 
REMARK    3  A    between atoms: C_4  and  O_5 
REMARK    4  A    between atoms: O_5  and  C_6 
REMARK    5  A    between atoms: C_11  and  C_12 
REMARK       I    between atoms: C_12  and  N_14 
REMARK    6  A    between atoms: N_14  and  C_15 
REMARK    7  A    between atoms: C_15  and  N_17 
REMARK    8  A    between atoms: C_23  and  C_24 
REMARK    9  A    between atoms: C_24  and  C_25 
REMARK   10  A    between atoms: C_25  and  O_27 
REMARK   11  A    between atoms: O_27  and  C_28 
REMARK   12  A    between atoms: C_28  and  C_29 
REMARK   13  A    between atoms: C_29  and  C_30 
REMARK   14  A    between atoms: C_30  and  C_31 
ROOT
ATOM      1  N   UNL d   1      27.345 -15.266  -0.492  0.00  0.00    -0.343 N 
ATOM      2  C   UNL d   1      28.612 -15.595  -1.213  0.00  0.00     0.146 C 
ATOM      3  C   UNL d   1      29.498 -16.539  -0.406  0.00  0.00     0.142 C 
ATOM      4  N   UNL d   1      28.783 -17.782  -0.203  0.00  0.00    -0.358 N 
ATOM      5  C   UNL d   1      27.426 -17.834   0.021  0.00  0.00     0.241 C 
ATOM      6  O   UNL d   1      26.911 -18.920   0.308  0.00  0.00    -0.271 OA
ATOM      7  C   UNL d   1      26.561 -16.540  -0.197  0.00  0.00     0.188 C 
ATOM      8  H   UNL d   1      29.287 -18.610   0.098  0.00  0.00     0.162 HD
ENDROOT
BRANCH   1   9
ATOM      9  C   UNL d   1      26.892 -13.884  -0.439  0.00  0.00     0.177 C 
ATOM     10  S   UNL d   1      26.492 -13.191   1.061  0.00  0.00    -0.041 SA
BRANCH   9  11
ATOM     11  N   UNL d   1      26.749 -13.146  -1.660  0.00  0.00    -0.299 N 
ATOM     12  C   UNL d   1      26.429 -13.713  -2.945  0.00  0.00     0.260 C 
ATOM     13  O   UNL d   1      25.720 -14.713  -3.077  0.00  0.00    -0.267 OA
ATOM     14  H   UNL d   1      27.076 -12.192  -1.691  0.00  0.00     0.171 HD
BRANCH  12  15
ATOM     15  C   UNL d   1      26.916 -13.143  -4.269  0.00  0.00     0.065 A 
ATOM     16  C   UNL d   1      26.900 -11.729  -4.408  0.00  0.00     0.020 A 
ATOM     17  C   UNL d   1      27.356 -11.072  -5.563  0.00  0.00     0.001 A 
ATOM     18  C   UNL d   1      27.846 -11.814  -6.625  0.00  0.00     0.003 A 
ATOM     19  C   UNL d   1      27.781 -13.202  -6.557  0.00  0.00     0.038 A 
ATOM     20  C   UNL d   1      27.314 -13.857  -5.396  0.00  0.00     0.084 A 
BRANCH  20  21
ATOM     21  O   UNL d   1      27.432 -15.201  -5.440  0.00  0.00    -0.350 OA
BRANCH  21  22
ATOM     22  C   UNL d   1      28.483 -15.739  -4.664  0.00  0.00     0.175 C 
BRANCH  22  23
ATOM     23  C   UNL d   1      29.538 -15.950  -5.714  0.00  0.00     0.026 C 
BRANCH  23  24
ATOM     24  C   UNL d   1      30.817 -16.288  -5.034  0.00  0.00    -0.002 C 
ATOM     25  C   UNL d   1      30.685 -17.632  -4.374  0.00  0.00     0.005 C 
ENDBRANCH  23  24
ENDBRANCH  22  23
ENDBRANCH  21  22
ENDBRANCH  20  21
ENDBRANCH  12  15
ENDBRANCH   9  11
ENDBRANCH   1   9
BRANCH   7  26
ATOM     26  C   UNL d   1      25.709 -17.074  -1.336  0.00  0.00     0.146 C 
BRANCH  26  27
ATOM     27  C   UNL d   1      24.309 -16.790  -1.063  0.00  0.00     0.261 C 
ATOM     28  O   UNL d   1      23.654 -15.918  -1.647  0.00  0.00    -0.265 OA
BRANCH  27  29
ATOM     29  O   UNL d   1      23.824 -17.561  -0.088  0.00  0.00    -0.321 OA
BRANCH  29  30
ATOM     30  C   UNL d   1      22.417 -17.616  -0.226  0.00  0.00     0.179 C 
BRANCH  30  31
ATOM     31  C   UNL d   1      22.114 -18.948  -0.828  0.00  0.00     0.031 C 
BRANCH  31  32
ATOM     32  C   UNL d   1      20.645 -19.000  -1.157  0.00  0.00     0.041 C 
BRANCH  32  33
ATOM     33  C   UNL d   1      19.880 -19.571  -0.009  0.00  0.00    -0.058 C 
ATOM     34  C   UNL d   1      20.338 -19.373   1.294  0.00  0.00     0.007 C 
ATOM     35  C   UNL d   1      19.753 -20.073   2.341  0.00  0.00     0.001 C 
ATOM     36  C   UNL d   1      18.634 -20.870   2.105  0.00  0.00     0.000 C 
ATOM     37  C   UNL d   1      18.115 -20.994   0.817  0.00  0.00     0.001 C 
ATOM     38  C   UNL d   1      18.738 -20.345  -0.242  0.00  0.00     0.007 C 
ENDBRANCH  32  33
ENDBRANCH  31  32
ENDBRANCH  30  31
ENDBRANCH  29  30
ENDBRANCH  27  29
ENDBRANCH  26  27
ENDBRANCH   7  26
TORSDOF 14
ENDMDL
MODEL 4
REMARK VINA RESULT:    -9.954      2.499      4.671
REMARK INTER + INTRA:         -16.103
REMARK INTER:                 -14.130
REMARK INTRA:                  -1.973
REMARK CONF_INDEPENDENT:        4.176
REMARK UNBOUND:                -1.973
REMARK  14 active torsions:
REMARK  status: ('A' for Active; 'I' for Inactive)
REMARK    1  A    between atoms: C_2  and  C_3 
REMARK    2  A    between atoms: C_3  and  C_4 
REMARK    3  A    between atoms: C_4  and  O_5 
REMARK    4  A    between atoms: O_5  and  C_6 
REMARK    5  A    between atoms: C_11  and  C_12 
REMARK       I    between atoms: C_12  and  N_14 
REMARK    6  A    between atoms: N_14  and  C_15 
REMARK    7  A    between atoms: C_15  and  N_17 
REMARK    8  A    between atoms: C_23  and  C_24 
REMARK    9  A    between atoms: C_24  and  C_25 
REMARK   10  A    between atoms: C_25  and  O_27 
REMARK   11  A    between atoms: O_27  and  C_28 
REMARK   12  A    between atoms: C_28  and  C_29 
REMARK   13  A    between atoms: C_29  and  C_30 
REMARK   14  A    between atoms: C_30  and  C_31 
ROOT
ATOM      1  N   UNL d   1      26.983 -15.760  -2.019  0.00  0.00    -0.343 N 
ATOM      2  C   UNL d   1      28.317 -16.338  -2.364  0.00  0.00     0.146 C 
ATOM      3  C   UNL d   1      29.269 -16.323  -1.172  0.00  0.00     0.142 C 
ATOM      4  N   UNL d   1      28.703 -17.143  -0.120  0.00  0.00    -0.358 N 
ATOM      5  C   UNL d   1      27.354 -17.193   0.143  0.00  0.00     0.241 C 
ATOM      6  O   UNL d   1      26.963 -17.817   1.135  0.00  0.00    -0.271 OA
ATOM      7  C   UNL d   1      26.348 -16.545  -0.876  0.00  0.00     0.188 C 
ATOM      8  H   UNL d   1      29.289 -17.451   0.650  0.00  0.00     0.162 HD
ENDROOT
BRANCH   1   9
ATOM      9  C   UNL d   1      26.361 -14.809  -2.928  0.00  0.00     0.177 C 
ATOM     10  S   UNL d   1      24.706 -14.451  -2.762  0.00  0.00    -0.041 SA
BRANCH   9  11
ATOM     11  N   UNL d   1      27.146 -14.226  -3.977  0.00  0.00    -0.299 N 
ATOM     12  C   UNL d   1      27.403 -14.828  -5.259  0.00  0.00     0.260 C 
ATOM     13  O   UNL d   1      26.598 -15.572  -5.823  0.00  0.00    -0.267 OA
ATOM     14  H   UNL d   1      27.727 -13.430  -3.761  0.00  0.00     0.171 HD
BRANCH  12  15
ATOM     15  C   UNL d   1      28.680 -14.610  -6.059  0.00  0.00     0.065 A 
ATOM     16  C   UNL d   1      29.718 -15.565  -5.891  0.00  0.00     0.020 A 
ATOM     17  C   UNL d   1      30.932 -15.502  -6.595  0.00  0.00     0.001 A 
ATOM     18  C   UNL d   1      31.148 -14.474  -7.497  0.00  0.00     0.003 A 
ATOM     19  C   UNL d   1      30.192 -13.470  -7.607  0.00  0.00     0.038 A 
ATOM     20  C   UNL d   1      28.977 -13.534  -6.891  0.00  0.00     0.084 A 
BRANCH  20  21
ATOM     21  O   UNL d   1      28.104 -12.553  -7.203  0.00  0.00    -0.350 OA
BRANCH  21  22
ATOM     22  C   UNL d   1      27.970 -11.534  -6.234  0.00  0.00     0.175 C 
BRANCH  22  23
ATOM     23  C   UNL d   1      26.491 -11.271  -6.294  0.00  0.00     0.026 C 
BRANCH  23  24
ATOM     24  C   UNL d   1      25.913 -11.524  -4.947  0.00  0.00    -0.002 C 
ATOM     25  C   UNL d   1      25.825 -10.225  -4.196  0.00  0.00     0.005 C 
ENDBRANCH  23  24
ENDBRANCH  22  23
ENDBRANCH  21  22
ENDBRANCH  20  21
ENDBRANCH  12  15
ENDBRANCH   9  11
ENDBRANCH   1   9
BRANCH   7  26
ATOM     26  C   UNL d   1      25.630 -17.825  -1.268  0.00  0.00     0.146 C 
BRANCH  26  27
ATOM     27  C   UNL d   1      24.527 -18.059  -0.349  0.00  0.00     0.261 C 
ATOM     28  O   UNL d   1      24.254 -17.321   0.605  0.00  0.00    -0.265 OA
BRANCH  27  29
ATOM     29  O   UNL d   1      23.865 -19.180  -0.639  0.00  0.00    -0.321 OA
BRANCH  29  30
ATOM     30  C   UNL d   1      22.894 -18.878  -1.623  0.00  0.00     0.179 C 
BRANCH  30  31
ATOM     31  C   UNL d   1      21.758 -18.239  -0.896  0.00  0.00     0.031 C 
BRANCH  31  32
ATOM     32  C   UNL d   1      20.493 -18.980  -1.242  0.00  0.00     0.041 C 
BRANCH  32  33
ATOM     33  C   UNL d   1      19.950 -19.665  -0.032  0.00  0.00    -0.058 C 
ATOM     34  C   UNL d   1      18.804 -20.454  -0.140  0.00  0.00     0.007 C 
ATOM     35  C   UNL d   1      18.180 -20.918   1.010  0.00  0.00     0.001 C 
ATOM     36  C   UNL d   1      18.767 -20.702   2.256  0.00  0.00     0.000 C 
ATOM     37  C   UNL d   1      19.965 -19.996   2.358  0.00  0.00     0.001 C 
ATOM     38  C   UNL d   1      20.557 -19.476   1.214  0.00  0.00     0.007 C 
ENDBRANCH  32  33
ENDBRANCH  31  32
ENDBRANCH  30  31
ENDBRANCH  29  30
ENDBRANCH  27  29
ENDBRANCH  26  27
ENDBRANCH   7  26
TORSDOF 14
ENDMDL
MODEL 5
REMARK VINA RESULT:    -8.951      3.619      5.999
REMARK INTER + INTRA:         -16.663
REMARK INTER:                 -13.127
REMARK INTRA:                  -3.536
REMARK CONF_INDEPENDENT:        4.176
REMARK UNBOUND:                -3.536
REMARK  14 active torsions:
REMARK  status: ('A' for Active; 'I' for Inactive)
REMARK    1  A    between atoms: C_2  and  C_3 
REMARK    2  A    between atoms: C_3  and  C_4 
REMARK    3  A    between atoms: C_4  and  O_5 
REMARK    4  A    between atoms: O_5  and  C_6 
REMARK    5  A    between atoms: C_11  and  C_12 
REMARK       I    between atoms: C_12  and  N_14 
REMARK    6  A    between atoms: N_14  and  C_15 
REMARK    7  A    between atoms: C_15  and  N_17 
REMARK    8  A    between atoms: C_23  and  C_24 
REMARK    9  A    between atoms: C_24  and  C_25 
REMARK   10  A    between atoms: C_25  and  O_27 
REMARK   11  A    between atoms: O_27  and  C_28 
REMARK   12  A    between atoms: C_28  and  C_29 
REMARK   13  A    between atoms: C_29  and  C_30 
REMARK   14  A    between atoms: C_30  and  C_31 
ROOT
ATOM      1  N   UNL d   1      27.537 -15.210  -0.399  0.00  0.00    -0.343 N 
ATOM      2  C   UNL d   1      28.857 -15.525  -1.029  0.00  0.00     0.146 C 
ATOM      3  C   UNL d   1      29.652 -16.536  -0.209  0.00  0.00     0.142 C 
ATOM      4  N   UNL d   1      28.899 -17.772  -0.146  0.00  0.00    -0.358 N 
ATOM      5  C   UNL d   1      27.527 -17.806  -0.044  0.00  0.00     0.241 C 
ATOM      6  O   UNL d   1      26.969 -18.895   0.130  0.00  0.00    -0.271 OA
ATOM      7  C   UNL d   1      26.708 -16.481  -0.253  0.00  0.00     0.188 C 
ATOM      8  H   UNL d   1      29.359 -18.629   0.144  0.00  0.00     0.162 HD
ENDROOT
BRANCH   1   9
ATOM      9  C   UNL d   1      27.107 -13.824  -0.299  0.00  0.00     0.177 C 
ATOM     10  S   UNL d   1      26.722 -13.175   1.225  0.00  0.00    -0.041 SA
BRANCH   9  11
ATOM     11  N   UNL d   1      26.972 -13.044  -1.494  0.00  0.00    -0.299 N 
ATOM     12  C   UNL d   1      27.504 -11.720  -1.691  0.00  0.00     0.260 C 
ATOM     13  O   UNL d   1      28.545 -11.331  -1.159  0.00  0.00    -0.267 OA
ATOM     14  H   UNL d   1      26.302 -13.336  -2.190  0.00  0.00     0.171 HD
BRANCH  12  15
ATOM     15  C   UNL d   1      26.853 -10.667  -2.576  0.00  0.00     0.065 A 
ATOM     16  C   UNL d   1      27.320  -9.332  -2.442  0.00  0.00     0.020 A 
ATOM     17  C   UNL d   1      26.831  -8.271  -3.223  0.00  0.00     0.001 A 
ATOM     18  C   UNL d   1      25.851  -8.514  -4.171  0.00  0.00     0.003 A 
ATOM     19  C   UNL d   1      25.304  -9.790  -4.256  0.00  0.00     0.038 A 
ATOM     20  C   UNL d   1      25.795 -10.851  -3.462  0.00  0.00     0.084 A 
BRANCH  20  21
ATOM     21  O   UNL d   1      25.249 -12.050  -3.753  0.00  0.00    -0.350 OA
BRANCH  21  22
ATOM     22  C   UNL d   1      25.518 -12.537  -5.052  0.00  0.00     0.175 C 
BRANCH  22  23
ATOM     23  C   UNL d   1      26.975 -12.886  -4.932  0.00  0.00     0.026 C 
BRANCH  23  24
ATOM     24  C   UNL d   1      27.087 -14.229  -4.302  0.00  0.00    -0.002 C 
ATOM     25  C   UNL d   1      26.163 -15.184  -5.008  0.00  0.00     0.005 C 
ENDBRANCH  23  24
ENDBRANCH  22  23
ENDBRANCH  21  22
ENDBRANCH  20  21
ENDBRANCH  12  15
ENDBRANCH   9  11
ENDBRANCH   1   9
BRANCH   7  26
ATOM     26  C   UNL d   1      25.949 -16.925  -1.492  0.00  0.00     0.146 C 
BRANCH  26  27
ATOM     27  C   UNL d   1      24.768 -16.091  -1.656  0.00  0.00     0.261 C 
ATOM     28  O   UNL d   1      24.792 -14.938  -2.103  0.00  0.00    -0.265 OA
BRANCH  27  29
ATOM     29  O   UNL d   1      23.660 -16.708  -1.241  0.00  0.00    -0.321 OA
BRANCH  29  30
ATOM     30  C   UNL d   1      23.993 -18.045  -0.919  0.00  0.00     0.179 C 
BRANCH  30  31
ATOM     31  C   UNL d   1      22.890 -18.544  -0.047  0.00  0.00     0.031 C 
BRANCH  31  32
ATOM     32  C   UNL d   1      21.589 -18.394  -0.791  0.00  0.00     0.041 C 
BRANCH  32  33
ATOM     33  C   UNL d   1      20.500 -19.124  -0.076  0.00  0.00    -0.058 C 
ATOM     34  C   UNL d   1      20.590 -19.323   1.302  0.00  0.00     0.007 C 
ATOM     35  C   UNL d   1      19.693 -20.176   1.932  0.00  0.00     0.001 C 
ATOM     36  C   UNL d   1      18.634 -20.727   1.212  0.00  0.00     0.000 C 
ATOM     37  C   UNL d   1      18.486 -20.452  -0.147  0.00  0.00     0.001 C 
ATOM     38  C   UNL d   1      19.419 -19.650  -0.793  0.00  0.00     0.007 C 
ENDBRANCH  32  33
ENDBRANCH  31  32
ENDBRANCH  30  31
ENDBRANCH  29  30
ENDBRANCH  27  29
ENDBRANCH  26  27
ENDBRANCH   7  26
TORSDOF 14
ENDMDL
MODEL 6
REMARK VINA RESULT:    -8.707      2.343      4.024
REMARK INTER + INTRA:         -16.043
REMARK INTER:                 -12.883
REMARK INTRA:                  -3.159
REMARK CONF_INDEPENDENT:        4.176
REMARK UNBOUND:                -3.159
REMARK  14 active torsions:
REMARK  status: ('A' for Active; 'I' for Inactive)
REMARK    1  A    between atoms: C_2  and  C_3 
REMARK    2  A    between atoms: C_3  and  C_4 
REMARK    3  A    between atoms: C_4  and  O_5 
REMARK    4  A    between atoms: O_5  and  C_6 
REMARK    5  A    between atoms: C_11  and  C_12 
REMARK       I    between atoms: C_12  and  N_14 
REMARK    6  A    between atoms: N_14  and  C_15 
REMARK    7  A    between atoms: C_15  and  N_17 
REMARK    8  A    between atoms: C_23  and  C_24 
REMARK    9  A    between atoms: C_24  and  C_25 
REMARK   10  A    between atoms: C_25  and  O_27 
REMARK   11  A    between atoms: O_27  and  C_28 
REMARK   12  A    between atoms: C_28  and  C_29 
REMARK   13  A    between atoms: C_29  and  C_30 
REMARK   14  A    between atoms: C_30  and  C_31 
ROOT
ATOM      1  N   UNL d   1      27.651 -14.461  -4.882  0.00  0.00    -0.343 N 
ATOM      2  C   UNL d   1      27.869 -13.014  -4.577  0.00  0.00     0.146 C 
ATOM      3  C   UNL d   1      26.769 -12.135  -5.167  0.00  0.00     0.142 C 
ATOM      4  N   UNL d   1      25.506 -12.516  -4.570  0.00  0.00    -0.358 N 
ATOM      5  C   UNL d   1      25.186 -13.819  -4.266  0.00  0.00     0.241 C 
ATOM      6  O   UNL d   1      24.042 -14.077  -3.876  0.00  0.00    -0.271 OA
ATOM      7  C   UNL d   1      26.307 -14.919  -4.326  0.00  0.00     0.188 C 
ATOM      8  H   UNL d   1      24.704 -11.898  -4.650  0.00  0.00     0.162 HD
ENDROOT
BRANCH   1   9
ATOM      9  C   UNL d   1      28.768 -15.268  -5.348  0.00  0.00     0.177 C 
ATOM     10  S   UNL d   1      29.408 -14.995  -6.900  0.00  0.00    -0.041 SA
BRANCH   9  11
ATOM     11  N   UNL d   1      29.279 -16.310  -4.506  0.00  0.00    -0.299 N 
ATOM     12  C   UNL d   1      30.508 -17.029  -4.721  0.00  0.00     0.260 C 
ATOM     13  O   UNL d   1      31.497 -16.520  -5.253  0.00  0.00    -0.267 OA
ATOM     14  H   UNL d   1      28.664 -16.722  -3.819  0.00  0.00     0.171 HD
BRANCH  12  15
ATOM     15  C   UNL d   1      30.727 -18.478  -4.310  0.00  0.00     0.065 A 
ATOM     16  C   UNL d   1      31.239 -18.709  -3.005  0.00  0.00     0.020 A 
ATOM     17  C   UNL d   1      31.453 -19.998  -2.488  0.00  0.00     0.001 A 
ATOM     18  C   UNL d   1      31.159 -21.105  -3.266  0.00  0.00     0.003 A 
ATOM     19  C   UNL d   1      30.751 -20.909  -4.581  0.00  0.00     0.038 A 
ATOM     20  C   UNL d   1      30.546 -19.611  -5.098  0.00  0.00     0.084 A 
BRANCH  20  21
ATOM     21  O   UNL d   1      30.030 -19.593  -6.345  0.00  0.00    -0.350 OA
BRANCH  21  22
ATOM     22  C   UNL d   1      30.893 -20.061  -7.362  0.00  0.00     0.175 C 
BRANCH  22  23
ATOM     23  C   UNL d   1      31.132 -18.798  -8.140  0.00  0.00     0.026 C 
BRANCH  23  24
ATOM     24  C   UNL d   1      32.352 -18.138  -7.602  0.00  0.00    -0.002 C 
ATOM     25  C   UNL d   1      33.015 -17.355  -8.700  0.00  0.00     0.005 C 
ENDBRANCH  23  24
ENDBRANCH  22  23
ENDBRANCH  21  22
ENDBRANCH  20  21
ENDBRANCH  12  15
ENDBRANCH   9  11
ENDBRANCH   1   9
BRANCH   7  26
ATOM     26  C   UNL d   1      26.289 -15.284  -2.851  0.00  0.00     0.146 C 
BRANCH  26  27
ATOM     27  C   UNL d   1      27.634 -15.643  -2.428  0.00  0.00     0.261 C 
ATOM     28  O   UNL d   1      28.586 -14.854  -2.409  0.00  0.00    -0.265 OA
BRANCH  27  29
ATOM     29  O   UNL d   1      27.724 -16.930  -2.091  0.00  0.00    -0.321 OA
BRANCH  29  30
ATOM     30  C   UNL d   1      28.211 -17.007  -0.765  0.00  0.00     0.179 C 
BRANCH  30  31
ATOM     31  C   UNL d   1      27.033 -16.772   0.121  0.00  0.00     0.031 C 
BRANCH  31  32
ATOM     32  C   UNL d   1      26.269 -18.063   0.252  0.00  0.00     0.041 C 
BRANCH  32  33
ATOM     33  C   UNL d   1      24.861 -17.878  -0.209  0.00  0.00    -0.058 C 
ATOM     34  C   UNL d   1      24.436 -16.622  -0.643  0.00  0.00     0.007 C 
ATOM     35  C   UNL d   1      23.085 -16.396  -0.872  0.00  0.00     0.001 C 
ATOM     36  C   UNL d   1      22.179 -17.453  -0.788  0.00  0.00     0.000 C 
ATOM     37  C   UNL d   1      22.617 -18.732  -0.448  0.00  0.00     0.001 C 
ATOM     38  C   UNL d   1      23.959 -18.946  -0.157  0.00  0.00     0.007 C 
ENDBRANCH  32  33
ENDBRANCH  31  32
ENDBRANCH  30  31
ENDBRANCH  29  30
ENDBRANCH  27  29
ENDBRANCH  26  27
ENDBRANCH   7  26
TORSDOF 14
ENDMDL
MODEL 7
REMARK VINA RESULT:    -8.338      2.426      3.525
REMARK INTER + INTRA:         -16.390
REMARK INTER:                 -12.514
REMARK INTRA:                  -3.876
REMARK CONF_INDEPENDENT:        4.176
REMARK UNBOUND:                -3.876
REMARK  14 active torsions:
REMARK  status: ('A' for Active; 'I' for Inactive)
REMARK    1  A    between atoms: C_2  and  C_3 
REMARK    2  A    between atoms: C_3  and  C_4 
REMARK    3  A    between atoms: C_4  and  O_5 
REMARK    4  A    between atoms: O_5  and  C_6 
REMARK    5  A    between atoms: C_11  and  C_12 
REMARK       I    between atoms: C_12  and  N_14 
REMARK    6  A    between atoms: N_14  and  C_15 
REMARK    7  A    between atoms: C_15  and  N_17 
REMARK    8  A    between atoms: C_23  and  C_24 
REMARK    9  A    between atoms: C_24  and  C_25 
REMARK   10  A    between atoms: C_25  and  O_27 
REMARK   11  A    between atoms: O_27  and  C_28 
REMARK   12  A    between atoms: C_28  and  C_29 
REMARK   13  A    between atoms: C_29  and  C_30 
REMARK   14  A    between atoms: C_30  and  C_31 
ROOT
ATOM      1  N   UNL d   1      27.417 -13.760  -5.108  0.00  0.00    -0.343 N 
ATOM      2  C   UNL d   1      27.599 -12.693  -4.076  0.00  0.00     0.146 C 
ATOM      3  C   UNL d   1      26.470 -11.667  -4.112  0.00  0.00     0.142 C 
ATOM      4  N   UNL d   1      25.224 -12.344  -3.817  0.00  0.00    -0.358 N 
ATOM      5  C   UNL d   1      24.943 -13.617  -4.257  0.00  0.00     0.241 C 
ATOM      6  O   UNL d   1      23.810 -14.075  -4.070  0.00  0.00    -0.271 OA
ATOM      7  C   UNL d   1      26.092 -14.483  -4.889  0.00  0.00     0.188 C 
ATOM      8  H   UNL d   1      24.405 -11.802  -3.559  0.00  0.00     0.162 HD
ENDROOT
BRANCH   1   9
ATOM      9  C   UNL d   1      28.550 -14.162  -5.927  0.00  0.00     0.177 C 
ATOM     10  S   UNL d   1      28.879 -13.324  -7.370  0.00  0.00    -0.041 SA
BRANCH   9  11
ATOM     11  N   UNL d   1      29.341 -15.288  -5.525  0.00  0.00    -0.299 N 
ATOM     12  C   UNL d   1      30.141 -16.102  -6.403  0.00  0.00     0.260 C 
ATOM     13  O   UNL d   1      30.688 -15.658  -7.414  0.00  0.00    -0.267 OA
ATOM     14  H   UNL d   1      29.197 -15.677  -4.605  0.00  0.00     0.171 HD
BRANCH  12  15
ATOM     15  C   UNL d   1      30.405 -17.585  -6.179  0.00  0.00     0.065 A 
ATOM     16  C   UNL d   1      30.880 -18.330  -7.291  0.00  0.00     0.020 A 
ATOM     17  C   UNL d   1      31.198 -19.697  -7.212  0.00  0.00     0.001 A 
ATOM     18  C   UNL d   1      31.050 -20.366  -6.010  0.00  0.00     0.003 A 
ATOM     19  C   UNL d   1      30.492 -19.687  -4.931  0.00  0.00     0.038 A 
ATOM     20  C   UNL d   1      30.167 -18.315  -5.019  0.00  0.00     0.084 A 
BRANCH  20  21
ATOM     21  O   UNL d   1      29.757 -17.774  -3.852  0.00  0.00    -0.350 OA
BRANCH  21  22
ATOM     22  C   UNL d   1      30.783 -17.231  -3.045  0.00  0.00     0.175 C 
BRANCH  22  23
ATOM     23  C   UNL d   1      30.780 -18.193  -1.891  0.00  0.00     0.026 C 
BRANCH  23  24
ATOM     24  C   UNL d   1      30.394 -17.452  -0.661  0.00  0.00    -0.002 C 
ATOM     25  C   UNL d   1      30.657 -15.985  -0.865  0.00  0.00     0.005 C 
ENDBRANCH  23  24
ENDBRANCH  22  23
ENDBRANCH  21  22
ENDBRANCH  20  21
ENDBRANCH  12  15
ENDBRANCH   9  11
ENDBRANCH   1   9
BRANCH   7  26
ATOM     26  C   UNL d   1      26.099 -15.578  -3.837  0.00  0.00     0.146 C 
BRANCH  26  27
ATOM     27  C   UNL d   1      27.123 -15.286  -2.845  0.00  0.00     0.261 C 
ATOM     28  O   UNL d   1      28.337 -15.414  -3.046  0.00  0.00    -0.265 OA
BRANCH  27  29
ATOM     29  O   UNL d   1      26.596 -14.893  -1.684  0.00  0.00    -0.321 OA
BRANCH  29  30
ATOM     30  C   UNL d   1      27.237 -15.604  -0.643  0.00  0.00     0.179 C 
BRANCH  30  31
ATOM     31  C   UNL d   1      26.972 -17.048  -0.908  0.00  0.00     0.031 C 
BRANCH  31  32
ATOM     32  C   UNL d   1      26.105 -17.585   0.200  0.00  0.00     0.041 C 
BRANCH  32  33
ATOM     33  C   UNL d   1      24.688 -17.690  -0.259  0.00  0.00    -0.058 C 
ATOM     34  C   UNL d   1      24.008 -16.542  -0.669  0.00  0.00     0.007 C 
ATOM     35  C   UNL d   1      22.639 -16.600  -0.895  0.00  0.00     0.001 C 
ATOM     36  C   UNL d   1      21.975 -17.825  -0.834  0.00  0.00     0.000 C 
ATOM     37  C   UNL d   1      22.672 -18.990  -0.519  0.00  0.00     0.001 C 
ATOM     38  C   UNL d   1      24.030 -18.924  -0.230  0.00  0.00     0.007 C 
ENDBRANCH  32  33
ENDBRANCH  31  32
ENDBRANCH  30  31
ENDBRANCH  29  30
ENDBRANCH  27  29
ENDBRANCH  26  27
ENDBRANCH   7  26
TORSDOF 14
ENDMDL
MODEL 8
REMARK VINA RESULT:    -7.801      4.075      6.652
REMARK INTER + INTRA:         -16.415
REMARK INTER:                 -11.977
REMARK INTRA:                  -4.437
REMARK CONF_INDEPENDENT:        4.176
REMARK UNBOUND:                -4.437
REMARK  14 active torsions:
REMARK  status: ('A' for Active; 'I' for Inactive)
REMARK    1  A    between atoms: C_2  and  C_3 
REMARK    2  A    between atoms: C_3  and  C_4 
REMARK    3  A    between atoms: C_4  and  O_5 
REMARK    4  A    between atoms: O_5  and  C_6 
REMARK    5  A    between atoms: C_11  and  C_12 
REMARK       I    between atoms: C_12  and  N_14 
REMARK    6  A    between atoms: N_14  and  C_15 
REMARK    7  A    between atoms: C_15  and  N_17 
REMARK    8  A    between atoms: C_23  and  C_24 
REMARK    9  A    between atoms: C_24  and  C_25 
REMARK   10  A    between atoms: C_25  and  O_27 
REMARK   11  A    between atoms: O_27  and  C_28 
REMARK   12  A    between atoms: C_28  and  C_29 
REMARK   13  A    between atoms: C_29  and  C_30 
REMARK   14  A    between atoms: C_30  and  C_31 
ROOT
ATOM      1  N   UNL d   1      26.871 -13.902  -2.288  0.00  0.00    -0.343 N 
ATOM      2  C   UNL d   1      25.458 -14.386  -2.341  0.00  0.00     0.146 C 
ATOM      3  C   UNL d   1      24.799 -14.076  -3.682  0.00  0.00     0.142 C 
ATOM      4  N   UNL d   1      25.531 -14.766  -4.724  0.00  0.00    -0.358 N 
ATOM      5  C   UNL d   1      26.899 -14.913  -4.705  0.00  0.00     0.241 C 
ATOM      6  O   UNL d   1      27.459 -15.403  -5.691  0.00  0.00    -0.271 OA
ATOM      7  C   UNL d   1      27.691 -14.551  -3.397  0.00  0.00     0.188 C 
ATOM      8  H   UNL d   1      25.113 -14.880  -5.643  0.00  0.00     0.162 HD
ENDROOT
BRANCH   1   9
ATOM      9  C   UNL d   1      27.335 -13.184  -1.111  0.00  0.00     0.177 C 
ATOM     10  S   UNL d   1      27.431 -11.486  -1.148  0.00  0.00    -0.041 SA
BRANCH   9  11
ATOM     11  N   UNL d   1      27.748 -13.926   0.045  0.00  0.00    -0.299 N 
ATOM     12  C   UNL d   1      27.260 -13.723   1.385  0.00  0.00     0.260 C 
ATOM     13  O   UNL d   1      26.114 -13.342   1.629  0.00  0.00    -0.267 OA
ATOM     14  H   UNL d   1      28.573 -14.503  -0.020  0.00  0.00     0.171 HD
BRANCH  12  15
ATOM     15  C   UNL d   1      28.092 -13.964   2.636  0.00  0.00     0.065 A 
ATOM     16  C   UNL d   1      27.405 -13.956   3.879  0.00  0.00     0.020 A 
ATOM     17  C   UNL d   1      28.046 -14.200   5.106  0.00  0.00     0.001 A 
ATOM     18  C   UNL d   1      29.405 -14.462   5.128  0.00  0.00     0.003 A 
ATOM     19  C   UNL d   1      30.122 -14.378   3.939  0.00  0.00     0.038 A 
ATOM     20  C   UNL d   1      29.473 -14.124   2.710  0.00  0.00     0.084 A 
BRANCH  20  21
ATOM     21  O   UNL d   1      30.286 -14.199   1.635  0.00  0.00    -0.350 OA
BRANCH  21  22
ATOM     22  C   UNL d   1      31.632 -14.526   1.918  0.00  0.00     0.175 C 
BRANCH  22  23
ATOM     23  C   UNL d   1      31.761 -15.848   1.216  0.00  0.00     0.026 C 
BRANCH  23  24
ATOM     24  C   UNL d   1      33.010 -16.508   1.680  0.00  0.00    -0.002 C 
ATOM     25  C   UNL d   1      32.654 -17.732   2.479  0.00  0.00     0.005 C 
ENDBRANCH  23  24
ENDBRANCH  22  23
ENDBRANCH  21  22
ENDBRANCH  20  21
ENDBRANCH  12  15
ENDBRANCH   9  11
ENDBRANCH   1   9
BRANCH   7  26
ATOM     26  C   UNL d   1      28.217 -15.946  -3.105  0.00  0.00     0.146 C 
BRANCH  26  27
ATOM     27  C   UNL d   1      28.704 -15.999  -1.735  0.00  0.00     0.261 C 
ATOM     28  O   UNL d   1      29.877 -15.782  -1.410  0.00  0.00    -0.265 OA
BRANCH  27  29
ATOM     29  O   UNL d   1      27.742 -16.340  -0.876  0.00  0.00    -0.321 OA
BRANCH  29  30
ATOM     30  C   UNL d   1      28.045 -17.621  -0.358  0.00  0.00     0.179 C 
BRANCH  30  31
ATOM     31  C   UNL d   1      26.745 -18.199   0.093  0.00  0.00     0.031 C 
BRANCH  31  32
ATOM     32  C   UNL d   1      25.747 -17.080   0.230  0.00  0.00     0.041 C 
BRANCH  32  33
ATOM     33  C   UNL d   1      24.403 -17.528  -0.242  0.00  0.00    -0.058 C 
ATOM     34  C   UNL d   1      23.465 -16.581  -0.657  0.00  0.00     0.007 C 
ATOM     35  C   UNL d   1      22.154 -16.973  -0.895  0.00  0.00     0.001 C 
ATOM     36  C   UNL d   1      21.811 -18.324  -0.841  0.00  0.00     0.000 C 
ATOM     37  C   UNL d   1      22.770 -19.283  -0.519  0.00  0.00     0.001 C 
ATOM     38  C   UNL d   1      24.067 -18.886  -0.219  0.00  0.00     0.007 C 
ENDBRANCH  32  33
ENDBRANCH  31  32
ENDBRANCH  30  31
ENDBRANCH  29  30
ENDBRANCH  27  29
ENDBRANCH  26  27
ENDBRANCH   7  26
TORSDOF 14
ENDMDL
