MODEL 1
REMARK VINA RESULT:    -8.289      0.000      0.000
REMARK INTER + INTRA:         -11.479
REMARK INTER:                 -10.377
REMARK INTRA:                  -1.101
REMARK CONF_INDEPENDENT:        2.088
REMARK UNBOUND:                -1.101
REMARK  7 active torsions:
REMARK  status: ('A' for Active; 'I' for Inactive)
REMARK       I    between atoms: N_1  and  C_2 
REMARK    1  A    between atoms: C_2  and  C_4 
REMARK    2  A    between atoms: C_4  and  S_5 
REMARK    3  A    between atoms: S_5  and  C_6 
REMARK    4  A    between atoms: C_11  and  N_12 
REMARK    5  A    between atoms: N_12  and  C_13 
REMARK    6  A    between atoms: C_13  and  C_14 
REMARK       I    between atoms: C_14  and  N_16 
REMARK    7  A    between atoms: N_16  and  C_17 
ROOT
ATOM      1  N   UNL d   1      24.460 -15.252  -2.219  0.00  0.00    -0.380 N 
ATOM      2  H   UNL d   1      23.454 -15.086  -2.252  0.00  0.00     0.160 HD
ENDROOT
BRANCH   1   3
ATOM      3  C   UNL d   1      24.986 -16.209  -1.362  0.00  0.00     0.045 A 
ATOM      4  C   UNL d   1      26.379 -16.153  -1.117  0.00  0.00     0.030 A 
ATOM      5  C   UNL d   1      27.017 -17.063  -0.267  0.00  0.00     0.002 A 
ATOM      6  C   UNL d   1      26.277 -18.054   0.360  0.00  0.00     0.002 A 
ATOM      7  C   UNL d   1      24.914 -18.157   0.111  0.00  0.00     0.021 A 
ATOM      8  C   UNL d   1      24.248 -17.227  -0.698  0.00  0.00     0.027 A 
BRANCH   8   9
ATOM      9  S   UNL d   1      22.491 -17.570  -0.896  0.00  0.00    -0.118 SA
BRANCH   9  10
ATOM     10  C   UNL d   1      22.349 -19.322  -0.374  0.00  0.00     0.182 C 
BRANCH  10  11
ATOM     11  C   UNL d   1      20.870 -19.709  -0.309  0.00  0.00     0.225 C 
ATOM     12  N   UNL d   1      20.397 -20.092   0.912  0.00  0.00    -0.369 N 
ATOM     13  H   UNL d   1      19.422 -20.368   0.957  0.00  0.00     0.159 HD
ATOM     14  H   UNL d   1      20.939 -20.096   1.765  0.00  0.00     0.159 HD
ATOM     15  O   UNL d   1      20.081 -19.682  -1.261  0.00  0.00    -0.273 OA
ENDBRANCH  10  11
ENDBRANCH   9  10
ENDBRANCH   8   9
ENDBRANCH   1   3
BRANCH   1  16
ATOM     16  C   UNL d   1      25.262 -14.317  -2.998  0.00  0.00     0.223 C 
BRANCH  16  17
ATOM     17  C   UNL d   1      26.118 -15.029  -4.026  0.00  0.00     0.239 C 
ATOM     18  O   UNL d   1      25.612 -15.583  -5.004  0.00  0.00    -0.271 OA
ATOM     19  N   UNL d   1      27.480 -15.036  -3.729  0.00  0.00    -0.324 N 
ATOM     20  H   UNL d   1      27.774 -14.891  -2.768  0.00  0.00     0.169 HD
BRANCH  19  21
ATOM     21  C   UNL d   1      28.441 -15.455  -4.677  0.00  0.00     0.056 A 
ATOM     22  C   UNL d   1      29.277 -16.543  -4.368  0.00  0.00     0.033 A 
ATOM     23  C   UNL d   1      30.281 -16.933  -5.266  0.00  0.00     0.026 A 
ATOM     24  C   UNL d   1      30.417 -16.274  -6.487  0.00  0.00     0.035 A 
ATOM     25 CL   UNL d   1      31.596 -16.787  -7.628  0.00  0.00    -0.084 Cl
ATOM     26  C   UNL d   1      29.603 -15.195  -6.799  0.00  0.00     0.050 A 
ATOM     27  C   UNL d   1      28.633 -14.771  -5.895  0.00  0.00     0.062 A 
ATOM     28 CL   UNL d   1      27.856 -13.271  -6.295  0.00  0.00    -0.082 Cl
ENDBRANCH  19  21
ENDBRANCH  16  17
ENDBRANCH   1  16
TORSDOF 7
ENDMDL
MODEL 2
REMARK VINA RESULT:    -7.716      2.267      3.281
REMARK INTER + INTRA:         -11.042
REMARK INTER:                  -9.804
REMARK INTRA:                  -1.238
REMARK CONF_INDEPENDENT:        2.088
REMARK UNBOUND:                -1.238
REMARK  7 active torsions:
REMARK  status: ('A' for Active; 'I' for Inactive)
REMARK       I    between atoms: N_1  and  C_2 
REMARK    1  A    between atoms: C_2  and  C_4 
REMARK    2  A    between atoms: C_4  and  S_5 
REMARK    3  A    between atoms: S_5  and  C_6 
REMARK    4  A    between atoms: C_11  and  N_12 
REMARK    5  A    between atoms: N_12  and  C_13 
REMARK    6  A    between atoms: C_13  and  C_14 
REMARK       I    between atoms: C_14  and  N_16 
REMARK    7  A    between atoms: N_16  and  C_17 
ROOT
ATOM      1  N   UNL d   1      25.330 -16.198  -2.568  0.00  0.00    -0.380 N 
ATOM      2  H   UNL d   1      25.101 -16.657  -3.450  0.00  0.00     0.160 HD
ENDROOT
BRANCH   1   3
ATOM      3  C   UNL d   1      25.457 -16.940  -1.403  0.00  0.00     0.045 A 
ATOM      4  C   UNL d   1      26.750 -17.023  -0.834  0.00  0.00     0.030 A 
ATOM      5  C   UNL d   1      26.996 -17.739   0.342  0.00  0.00     0.002 A 
ATOM      6  C   UNL d   1      25.952 -18.392   0.981  0.00  0.00     0.002 A 
ATOM      7  C   UNL d   1      24.678 -18.359   0.428  0.00  0.00     0.021 A 
ATOM      8  C   UNL d   1      24.401 -17.609  -0.723  0.00  0.00     0.027 A 
BRANCH   8   9
ATOM      9  S   UNL d   1      22.690 -17.730  -1.270  0.00  0.00    -0.118 SA
BRANCH   9  10
ATOM     10  C   UNL d   1      21.944 -18.874  -0.046  0.00  0.00     0.182 C 
BRANCH  10  11
ATOM     11  C   UNL d   1      20.546 -19.277  -0.522  0.00  0.00     0.225 C 
ATOM     12  N   UNL d   1      19.528 -19.101   0.369  0.00  0.00    -0.369 N 
ATOM     13  H   UNL d   1      18.604 -19.384   0.066  0.00  0.00     0.159 HD
ATOM     14  H   UNL d   1      19.631 -18.693   1.288  0.00  0.00     0.159 HD
ATOM     15  O   UNL d   1      20.273 -19.724  -1.642  0.00  0.00    -0.273 OA
ENDBRANCH  10  11
ENDBRANCH   9  10
ENDBRANCH   8   9
ENDBRANCH   1   3
BRANCH   1  16
ATOM     16  C   UNL d   1      25.344 -14.742  -2.622  0.00  0.00     0.223 C 
BRANCH  16  17
ATOM     17  C   UNL d   1      25.675 -14.232  -4.010  0.00  0.00     0.239 C 
ATOM     18  O   UNL d   1      25.295 -14.833  -5.018  0.00  0.00    -0.271 OA
ATOM     19  N   UNL d   1      26.469 -13.087  -4.023  0.00  0.00    -0.324 N 
ATOM     20  H   UNL d   1      27.028 -12.867  -3.205  0.00  0.00     0.169 HD
BRANCH  19  21
ATOM     21  C   UNL d   1      26.689 -12.353  -5.211  0.00  0.00     0.056 A 
ATOM     22  C   UNL d   1      25.910 -11.208  -5.462  0.00  0.00     0.033 A 
ATOM     23  C   UNL d   1      26.066 -10.503  -6.664  0.00  0.00     0.026 A 
ATOM     24  C   UNL d   1      27.028 -10.909  -7.589  0.00  0.00     0.035 A 
ATOM     25 CL   UNL d   1      27.279 -10.014  -9.035  0.00  0.00    -0.084 Cl
ATOM     26  C   UNL d   1      27.795 -12.041  -7.356  0.00  0.00     0.050 A 
ATOM     27  C   UNL d   1      27.617 -12.773  -6.186  0.00  0.00     0.062 A 
ATOM     28 CL   UNL d   1      28.457 -14.292  -6.131  0.00  0.00    -0.082 Cl
ENDBRANCH  19  21
ENDBRANCH  16  17
ENDBRANCH   1  16
TORSDOF 7
ENDMDL
MODEL 3
REMARK VINA RESULT:    -7.336      4.943      7.281
REMARK INTER + INTRA:         -10.854
REMARK INTER:                  -9.424
REMARK INTRA:                  -1.430
REMARK CONF_INDEPENDENT:        2.088
REMARK UNBOUND:                -1.430
REMARK  7 active torsions:
REMARK  status: ('A' for Active; 'I' for Inactive)
REMARK       I    between atoms: N_1  and  C_2 
REMARK    1  A    between atoms: C_2  and  C_4 
REMARK    2  A    between atoms: C_4  and  S_5 
REMARK    3  A    between atoms: S_5  and  C_6 
REMARK    4  A    between atoms: C_11  and  N_12 
REMARK    5  A    between atoms: N_12  and  C_13 
REMARK    6  A    between atoms: C_13  and  C_14 
REMARK       I    between atoms: C_14  and  N_16 
REMARK    7  A    between atoms: N_16  and  C_17 
ROOT
ATOM      1  N   UNL d   1      28.546 -17.379  -0.132  0.00  0.00    -0.380 N 
ATOM      2  H   UNL d   1      28.972 -18.187   0.323  0.00  0.00     0.160 HD
ENDROOT
BRANCH   1   3
ATOM      3  C   UNL d   1      27.175 -17.331  -0.337  0.00  0.00     0.045 A 
ATOM      4  C   UNL d   1      26.376 -18.169   0.478  0.00  0.00     0.030 A 
ATOM      5  C   UNL d   1      24.982 -18.200   0.363  0.00  0.00     0.002 A 
ATOM      6  C   UNL d   1      24.350 -17.392  -0.571  0.00  0.00     0.002 A 
ATOM      7  C   UNL d   1      25.109 -16.585  -1.409  0.00  0.00     0.021 A 
ATOM      8  C   UNL d   1      26.502 -16.504  -1.279  0.00  0.00     0.027 A 
BRANCH   8   9
ATOM      9  S   UNL d   1      27.278 -15.413  -2.483  0.00  0.00    -0.118 SA
BRANCH   9  10
ATOM     10  C   UNL d   1      26.058 -14.056  -2.660  0.00  0.00     0.182 C 
BRANCH  10  11
ATOM     11  C   UNL d   1      25.371 -14.171  -4.022  0.00  0.00     0.225 C 
ATOM     12  N   UNL d   1      24.780 -13.039  -4.501  0.00  0.00    -0.369 N 
ATOM     13  H   UNL d   1      24.307 -13.115  -5.395  0.00  0.00     0.159 HD
ATOM     14  H   UNL d   1      24.803 -12.139  -4.042  0.00  0.00     0.159 HD
ATOM     15  O   UNL d   1      25.329 -15.193  -4.718  0.00  0.00    -0.273 OA
ENDBRANCH  10  11
ENDBRANCH   9  10
ENDBRANCH   8   9
ENDBRANCH   1   3
BRANCH   1  16
ATOM     16  C   UNL d   1      29.492 -16.410  -0.669  0.00  0.00     0.223 C 
BRANCH  16  17
ATOM     17  C   UNL d   1      29.288 -15.032  -0.069  0.00  0.00     0.239 C 
ATOM     18  O   UNL d   1      29.747 -14.025  -0.612  0.00  0.00    -0.271 OA
ATOM     19  N   UNL d   1      28.600 -15.035   1.143  0.00  0.00    -0.324 N 
ATOM     20  H   UNL d   1      28.575 -15.888   1.693  0.00  0.00     0.169 HD
BRANCH  19  21
ATOM     21  C   UNL d   1      28.129 -13.837   1.728  0.00  0.00     0.056 A 
ATOM     22  C   UNL d   1      27.197 -13.052   1.025  0.00  0.00     0.033 A 
ATOM     23  C   UNL d   1      26.767 -11.828   1.558  0.00  0.00     0.026 A 
ATOM     24  C   UNL d   1      27.226 -11.414   2.807  0.00  0.00     0.035 A 
ATOM     25 CL   UNL d   1      26.654  -9.950   3.505  0.00  0.00    -0.084 Cl
ATOM     26  C   UNL d   1      28.152 -12.176   3.505  0.00  0.00     0.050 A 
ATOM     27  C   UNL d   1      28.619 -13.370   2.965  0.00  0.00     0.062 A 
ATOM     28 CL   UNL d   1      29.946 -14.096   3.816  0.00  0.00    -0.082 Cl
ENDBRANCH  19  21
ENDBRANCH  16  17
ENDBRANCH   1  16
TORSDOF 7
ENDMDL
MODEL 4
REMARK VINA RESULT:    -7.007      2.498      3.886
REMARK INTER + INTRA:         -11.899
REMARK INTER:                  -9.095
REMARK INTRA:                  -2.805
REMARK CONF_INDEPENDENT:        2.088
REMARK UNBOUND:                -2.805
REMARK  7 active torsions:
REMARK  status: ('A' for Active; 'I' for Inactive)
REMARK       I    between atoms: N_1  and  C_2 
REMARK    1  A    between atoms: C_2  and  C_4 
REMARK    2  A    between atoms: C_4  and  S_5 
REMARK    3  A    between atoms: S_5  and  C_6 
REMARK    4  A    between atoms: C_11  and  N_12 
REMARK    5  A    between atoms: N_12  and  C_13 
REMARK    6  A    between atoms: C_13  and  C_14 
REMARK       I    between atoms: C_14  and  N_16 
REMARK    7  A    between atoms: N_16  and  C_17 
ROOT
ATOM      1  N   UNL d   1      25.388 -15.587  -1.551  0.00  0.00    -0.380 N 
ATOM      2  H   UNL d   1      26.332 -15.459  -1.184  0.00  0.00     0.160 HD
ENDROOT
BRANCH   1   3
ATOM      3  C   UNL d   1      24.541 -16.534  -0.993  0.00  0.00     0.045 A 
ATOM      4  C   UNL d   1      23.150 -16.303  -1.118  0.00  0.00     0.030 A 
ATOM      5  C   UNL d   1      22.203 -17.191  -0.599  0.00  0.00     0.002 A 
ATOM      6  C   UNL d   1      22.623 -18.338   0.059  0.00  0.00     0.002 A 
ATOM      7  C   UNL d   1      23.981 -18.575   0.229  0.00  0.00     0.021 A 
ATOM      8  C   UNL d   1      24.946 -17.722  -0.324  0.00  0.00     0.027 A 
BRANCH   8   9
ATOM      9  S   UNL d   1      26.639 -18.215   0.040  0.00  0.00    -0.118 SA
BRANCH   9  10
ATOM     10  C   UNL d   1      27.412 -16.652   0.611  0.00  0.00     0.182 C 
BRANCH  10  11
ATOM     11  C   UNL d   1      28.528 -16.260  -0.359  0.00  0.00     0.225 C 
ATOM     12  N   UNL d   1      29.648 -17.039  -0.341  0.00  0.00    -0.369 N 
ATOM     13  H   UNL d   1      30.399 -16.772  -0.968  0.00  0.00     0.159 HD
ATOM     14  H   UNL d   1      29.767 -17.864   0.230  0.00  0.00     0.159 HD
ATOM     15  O   UNL d   1      28.483 -15.317  -1.158  0.00  0.00    -0.273 OA
ENDBRANCH  10  11
ENDBRANCH   9  10
ENDBRANCH   8   9
ENDBRANCH   1   3
BRANCH   1  16
ATOM     16  C   UNL d   1      25.093 -14.832  -2.762  0.00  0.00     0.223 C 
BRANCH  16  17
ATOM     17  C   UNL d   1      25.994 -15.238  -3.911  0.00  0.00     0.239 C 
ATOM     18  O   UNL d   1      25.530 -15.509  -5.021  0.00  0.00    -0.271 OA
ATOM     19  N   UNL d   1      27.344 -15.323  -3.576  0.00  0.00    -0.324 N 
ATOM     20  H   UNL d   1      27.602 -15.443  -2.601  0.00  0.00     0.169 HD
BRANCH  19  21
ATOM     21  C   UNL d   1      28.344 -15.470  -4.564  0.00  0.00     0.056 A 
ATOM     22  C   UNL d   1      29.280 -16.512  -4.442  0.00  0.00     0.033 A 
ATOM     23  C   UNL d   1      30.319 -16.635  -5.376  0.00  0.00     0.026 A 
ATOM     24  C   UNL d   1      30.394 -15.753  -6.454  0.00  0.00     0.035 A 
ATOM     25 CL   UNL d   1      31.620 -15.935  -7.645  0.00  0.00    -0.084 Cl
ATOM     26  C   UNL d   1      29.480 -14.717  -6.580  0.00  0.00     0.050 A 
ATOM     27  C   UNL d   1      28.472 -14.559  -5.633  0.00  0.00     0.062 A 
ATOM     28 CL   UNL d   1      27.555 -13.091  -5.770  0.00  0.00    -0.082 Cl
ENDBRANCH  19  21
ENDBRANCH  16  17
ENDBRANCH   1  16
TORSDOF 7
ENDMDL
MODEL 5
REMARK VINA RESULT:    -6.922      2.896      4.429
REMARK INTER + INTRA:         -11.676
REMARK INTER:                  -9.010
REMARK INTRA:                  -2.665
REMARK CONF_INDEPENDENT:        2.088
REMARK UNBOUND:                -2.665
REMARK  7 active torsions:
REMARK  status: ('A' for Active; 'I' for Inactive)
REMARK       I    between atoms: N_1  and  C_2 
REMARK    1  A    between atoms: C_2  and  C_4 
REMARK    2  A    between atoms: C_4  and  S_5 
REMARK    3  A    between atoms: S_5  and  C_6 
REMARK    4  A    between atoms: C_11  and  N_12 
REMARK    5  A    between atoms: N_12  and  C_13 
REMARK    6  A    between atoms: C_13  and  C_14 
REMARK       I    between atoms: C_14  and  N_16 
REMARK    7  A    between atoms: N_16  and  C_17 
ROOT
ATOM      1  N   UNL d   1      25.563 -16.036  -1.798  0.00  0.00    -0.380 N 
ATOM      2  H   UNL d   1      26.415 -16.452  -2.177  0.00  0.00     0.160 HD
ENDROOT
BRANCH   1   3
ATOM      3  C   UNL d   1      24.655 -16.815  -1.095  0.00  0.00     0.045 A 
ATOM      4  C   UNL d   1      23.283 -16.515  -1.270  0.00  0.00     0.030 A 
ATOM      5  C   UNL d   1      22.279 -17.237  -0.616  0.00  0.00     0.002 A 
ATOM      6  C   UNL d   1      22.622 -18.279   0.232  0.00  0.00     0.002 A 
ATOM      7  C   UNL d   1      23.961 -18.575   0.452  0.00  0.00     0.021 A 
ATOM      8  C   UNL d   1      24.980 -17.896  -0.229  0.00  0.00     0.027 A 
BRANCH   8   9
ATOM      9  S   UNL d   1      26.637 -18.431   0.230  0.00  0.00    -0.118 SA
BRANCH   9  10
ATOM     10  C   UNL d   1      27.580 -16.860   0.286  0.00  0.00     0.182 C 
BRANCH  10  11
ATOM     11  C   UNL d   1      28.584 -16.835  -0.869  0.00  0.00     0.225 C 
ATOM     12  N   UNL d   1      29.702 -17.601  -0.716  0.00  0.00    -0.369 N 
ATOM     13  H   UNL d   1      30.380 -17.574  -1.469  0.00  0.00     0.159 HD
ATOM     14  H   UNL d   1      29.885 -18.203   0.075  0.00  0.00     0.159 HD
ATOM     15  O   UNL d   1      28.450 -16.197  -1.920  0.00  0.00    -0.273 OA
ENDBRANCH  10  11
ENDBRANCH   9  10
ENDBRANCH   8   9
ENDBRANCH   1   3
BRANCH   1  16
ATOM     16  C   UNL d   1      25.327 -14.654  -2.193  0.00  0.00     0.223 C 
BRANCH  16  17
ATOM     17  C   UNL d   1      25.733 -14.402  -3.632  0.00  0.00     0.239 C 
ATOM     18  O   UNL d   1      24.906 -14.437  -4.545  0.00  0.00    -0.271 OA
ATOM     19  N   UNL d   1      27.099 -14.190  -3.809  0.00  0.00    -0.324 N 
ATOM     20  H   UNL d   1      27.746 -14.525  -3.102  0.00  0.00     0.169 HD
BRANCH  19  21
ATOM     21  C   UNL d   1      27.621 -13.724  -5.038  0.00  0.00     0.056 A 
ATOM     22  C   UNL d   1      27.049 -12.588  -5.638  0.00  0.00     0.033 A 
ATOM     23  C   UNL d   1      27.508 -12.149  -6.889  0.00  0.00     0.026 A 
ATOM     24  C   UNL d   1      28.566 -12.809  -7.512  0.00  0.00     0.035 A 
ATOM     25 CL   UNL d   1      29.187 -12.239  -9.011  0.00  0.00    -0.084 Cl
ATOM     26  C   UNL d   1      29.134 -13.934  -6.932  0.00  0.00     0.050 A 
ATOM     27  C   UNL d   1      28.655 -14.405  -5.713  0.00  0.00     0.062 A 
ATOM     28 CL   UNL d   1      29.279 -15.949  -5.223  0.00  0.00    -0.082 Cl
ENDBRANCH  19  21
ENDBRANCH  16  17
ENDBRANCH   1  16
TORSDOF 7
ENDMDL
MODEL 6
REMARK VINA RESULT:    -6.864      2.719      4.233
REMARK INTER + INTRA:         -11.981
REMARK INTER:                  -8.952
REMARK INTRA:                  -3.029
REMARK CONF_INDEPENDENT:        2.088
REMARK UNBOUND:                -3.029
REMARK  7 active torsions:
REMARK  status: ('A' for Active; 'I' for Inactive)
REMARK       I    between atoms: N_1  and  C_2 
REMARK    1  A    between atoms: C_2  and  C_4 
REMARK    2  A    between atoms: C_4  and  S_5 
REMARK    3  A    between atoms: S_5  and  C_6 
REMARK    4  A    between atoms: C_11  and  N_12 
REMARK    5  A    between atoms: N_12  and  C_13 
REMARK    6  A    between atoms: C_13  and  C_14 
REMARK       I    between atoms: C_14  and  N_16 
REMARK    7  A    between atoms: N_16  and  C_17 
ROOT
ATOM      1  N   UNL d   1      25.264 -15.222  -1.482  0.00  0.00    -0.380 N 
ATOM      2  H   UNL d   1      26.062 -14.848  -0.967  0.00  0.00     0.160 HD
ENDROOT
BRANCH   1   3
ATOM      3  C   UNL d   1      24.599 -16.349  -1.024  0.00  0.00     0.045 A 
ATOM      4  C   UNL d   1      23.185 -16.336  -1.104  0.00  0.00     0.030 A 
ATOM      5  C   UNL d   1      22.411 -17.419  -0.676  0.00  0.00     0.002 A 
ATOM      6  C   UNL d   1      23.030 -18.546  -0.156  0.00  0.00     0.002 A 
ATOM      7  C   UNL d   1      24.414 -18.575  -0.032  0.00  0.00     0.021 A 
ATOM      8  C   UNL d   1      25.211 -17.521  -0.498  0.00  0.00     0.027 A 
BRANCH   8   9
ATOM      9  S   UNL d   1      26.972 -17.766  -0.213  0.00  0.00    -0.118 SA
BRANCH   9  10
ATOM     10  C   UNL d   1      27.409 -16.377   0.901  0.00  0.00     0.182 C 
BRANCH  10  11
ATOM     11  C   UNL d   1      28.395 -15.451   0.186  0.00  0.00     0.225 C 
ATOM     12  N   UNL d   1      29.685 -15.481   0.629  0.00  0.00    -0.369 N 
ATOM     13  H   UNL d   1      30.339 -14.855   0.171  0.00  0.00     0.159 HD
ATOM     14  H   UNL d   1      30.031 -16.093   1.355  0.00  0.00     0.159 HD
ATOM     15  O   UNL d   1      28.118 -14.704  -0.760  0.00  0.00    -0.273 OA
ENDBRANCH  10  11
ENDBRANCH   9  10
ENDBRANCH   8   9
ENDBRANCH   1   3
BRANCH   1  16
ATOM     16  C   UNL d   1      25.012 -14.584  -2.768  0.00  0.00     0.223 C 
BRANCH  16  17
ATOM     17  C   UNL d   1      25.954 -15.091  -3.842  0.00  0.00     0.239 C 
ATOM     18  O   UNL d   1      25.530 -15.479  -4.933  0.00  0.00    -0.271 OA
ATOM     19  N   UNL d   1      27.294 -15.122  -3.457  0.00  0.00    -0.324 N 
ATOM     20  H   UNL d   1      27.521 -15.139  -2.468  0.00  0.00     0.169 HD
BRANCH  19  21
ATOM     21  C   UNL d   1      28.327 -15.353  -4.394  0.00  0.00     0.056 A 
ATOM     22  C   UNL d   1      28.204 -14.825  -5.692  0.00  0.00     0.033 A 
ATOM     23  C   UNL d   1      29.186 -15.098  -6.656  0.00  0.00     0.026 A 
ATOM     24  C   UNL d   1      30.308 -15.851  -6.312  0.00  0.00     0.035 A 
ATOM     25 CL   UNL d   1      31.553 -16.134  -7.463  0.00  0.00    -0.084 Cl
ATOM     26  C   UNL d   1      30.435 -16.383  -5.038  0.00  0.00     0.050 A 
ATOM     27  C   UNL d   1      29.445 -16.156  -4.087  0.00  0.00     0.062 A 
ATOM     28 CL   UNL d   1      29.603 -17.075  -2.622  0.00  0.00    -0.082 Cl
ENDBRANCH  19  21
ENDBRANCH  16  17
ENDBRANCH   1  16
TORSDOF 7
ENDMDL
MODEL 7
REMARK VINA RESULT:    -6.718      4.759      7.563
REMARK INTER + INTRA:         -10.971
REMARK INTER:                  -8.806
REMARK INTRA:                  -2.165
REMARK CONF_INDEPENDENT:        2.088
REMARK UNBOUND:                -2.165
REMARK  7 active torsions:
REMARK  status: ('A' for Active; 'I' for Inactive)
REMARK       I    between atoms: N_1  and  C_2 
REMARK    1  A    between atoms: C_2  and  C_4 
REMARK    2  A    between atoms: C_4  and  S_5 
REMARK    3  A    between atoms: S_5  and  C_6 
REMARK    4  A    between atoms: C_11  and  N_12 
REMARK    5  A    between atoms: N_12  and  C_13 
REMARK    6  A    between atoms: C_13  and  C_14 
REMARK       I    between atoms: C_14  and  N_16 
REMARK    7  A    between atoms: N_16  and  C_17 
ROOT
ATOM      1  N   UNL d   1      27.080 -17.075  -0.987  0.00  0.00    -0.380 N 
ATOM      2  H   UNL d   1      27.538 -17.115  -1.898  0.00  0.00     0.160 HD
ENDROOT
BRANCH   1   3
ATOM      3  C   UNL d   1      25.696 -17.120  -0.894  0.00  0.00     0.045 A 
ATOM      4  C   UNL d   1      25.134 -18.238  -0.232  0.00  0.00     0.030 A 
ATOM      5  C   UNL d   1      23.752 -18.386  -0.076  0.00  0.00     0.002 A 
ATOM      6  C   UNL d   1      22.894 -17.419  -0.578  0.00  0.00     0.002 A 
ATOM      7  C   UNL d   1      23.414 -16.328  -1.263  0.00  0.00     0.021 A 
ATOM      8  C   UNL d   1      24.796 -16.136  -1.390  0.00  0.00     0.027 A 
BRANCH   8   9
ATOM      9  S   UNL d   1      25.238 -14.668  -2.335  0.00  0.00    -0.118 SA
BRANCH   9  10
ATOM     10  C   UNL d   1      25.535 -15.332  -4.018  0.00  0.00     0.182 C 
BRANCH  10  11
ATOM     11  C   UNL d   1      27.001 -15.106  -4.395  0.00  0.00     0.225 C 
ATOM     12  N   UNL d   1      27.850 -14.796  -3.373  0.00  0.00    -0.369 N 
ATOM     13  H   UNL d   1      28.818 -14.627  -3.620  0.00  0.00     0.159 HD
ATOM     14  H   UNL d   1      27.585 -14.749  -2.399  0.00  0.00     0.159 HD
ATOM     15  O   UNL d   1      27.469 -15.202  -5.536  0.00  0.00    -0.273 OA
ENDBRANCH  10  11
ENDBRANCH   9  10
ENDBRANCH   8   9
ENDBRANCH   1   3
BRANCH   1  16
ATOM     16  C   UNL d   1      27.970 -16.810   0.136  0.00  0.00     0.223 C 
BRANCH  16  17
ATOM     17  C   UNL d   1      27.991 -15.339   0.503  0.00  0.00     0.239 C 
ATOM     18  O   UNL d   1      28.209 -14.472  -0.345  0.00  0.00    -0.271 OA
ATOM     19  N   UNL d   1      27.797 -15.088   1.861  0.00  0.00    -0.324 N 
ATOM     20  H   UNL d   1      27.984 -15.829   2.530  0.00  0.00     0.169 HD
BRANCH  19  21
ATOM     21  C   UNL d   1      27.566 -13.780   2.345  0.00  0.00     0.056 A 
ATOM     22  C   UNL d   1      26.894 -12.855   1.525  0.00  0.00     0.033 A 
ATOM     23  C   UNL d   1      26.713 -11.535   1.960  0.00  0.00     0.026 A 
ATOM     24  C   UNL d   1      27.154 -11.152   3.226  0.00  0.00     0.035 A 
ATOM     25 CL   UNL d   1      26.876  -9.556   3.801  0.00  0.00    -0.084 Cl
ATOM     26  C   UNL d   1      27.824 -12.054   4.040  0.00  0.00     0.050 A 
ATOM     27  C   UNL d   1      28.049 -13.355   3.599  0.00  0.00     0.062 A 
ATOM     28 CL   UNL d   1      29.106 -14.301   4.602  0.00  0.00    -0.082 Cl
ENDBRANCH  19  21
ENDBRANCH  16  17
ENDBRANCH   1  16
TORSDOF 7
ENDMDL
MODEL 8
REMARK VINA RESULT:    -6.292      3.515      5.394
REMARK INTER + INTRA:         -10.911
REMARK INTER:                  -8.380
REMARK INTRA:                  -2.531
REMARK CONF_INDEPENDENT:        2.088
REMARK UNBOUND:                -2.531
REMARK  7 active torsions:
REMARK  status: ('A' for Active; 'I' for Inactive)
REMARK       I    between atoms: N_1  and  C_2 
REMARK    1  A    between atoms: C_2  and  C_4 
REMARK    2  A    between atoms: C_4  and  S_5 
REMARK    3  A    between atoms: S_5  and  C_6 
REMARK    4  A    between atoms: C_11  and  N_12 
REMARK    5  A    between atoms: N_12  and  C_13 
REMARK    6  A    between atoms: C_13  and  C_14 
REMARK       I    between atoms: C_14  and  N_16 
REMARK    7  A    between atoms: N_16  and  C_17 
ROOT
ATOM      1  N   UNL d   1      25.481 -15.892  -1.676  0.00  0.00    -0.380 N 
ATOM      2  H   UNL d   1      26.059 -15.231  -1.156  0.00  0.00     0.160 HD
ENDROOT
BRANCH   1   3
ATOM      3  C   UNL d   1      24.591 -16.721  -1.009  0.00  0.00     0.045 A 
ATOM      4  C   UNL d   1      23.213 -16.525  -1.270  0.00  0.00     0.030 A 
ATOM      5  C   UNL d   1      22.227 -17.305  -0.658  0.00  0.00     0.002 A 
ATOM      6  C   UNL d   1      22.592 -18.303   0.232  0.00  0.00     0.002 A 
ATOM      7  C   UNL d   1      23.934 -18.497   0.536  0.00  0.00     0.021 A 
ATOM      8  C   UNL d   1      24.941 -17.759  -0.101  0.00  0.00     0.027 A 
BRANCH   8   9
ATOM      9  S   UNL d   1      26.601 -18.164   0.465  0.00  0.00    -0.118 SA
BRANCH   9  10
ATOM     10  C   UNL d   1      27.393 -16.519   0.639  0.00  0.00     0.182 C 
BRANCH  10  11
ATOM     11  C   UNL d   1      28.360 -16.301  -0.527  0.00  0.00     0.225 C 
ATOM     12  N   UNL d   1      29.466 -17.100  -0.555  0.00  0.00    -0.369 N 
ATOM     13  H   UNL d   1      30.119 -16.947  -1.314  0.00  0.00     0.159 HD
ATOM     14  H   UNL d   1      29.660 -17.837   0.108  0.00  0.00     0.159 HD
ATOM     15  O   UNL d   1      28.206 -15.482  -1.441  0.00  0.00    -0.273 OA
ENDBRANCH  10  11
ENDBRANCH   9  10
ENDBRANCH   8   9
ENDBRANCH   1   3
BRANCH   1  16
ATOM     16  C   UNL d   1      25.789 -15.990  -3.097  0.00  0.00     0.223 C 
BRANCH  16  17
ATOM     17  C   UNL d   1      25.682 -14.647  -3.790  0.00  0.00     0.239 C 
ATOM     18  O   UNL d   1      24.810 -14.431  -4.634  0.00  0.00    -0.271 OA
ATOM     19  N   UNL d   1      26.672 -13.736  -3.425  0.00  0.00    -0.324 N 
ATOM     20  H   UNL d   1      27.537 -14.084  -3.022  0.00  0.00     0.169 HD
BRANCH  19  21
ATOM     21  C   UNL d   1      26.599 -12.375  -3.799  0.00  0.00     0.056 A 
ATOM     22  C   UNL d   1      25.912 -11.472  -2.967  0.00  0.00     0.033 A 
ATOM     23  C   UNL d   1      25.771 -10.131  -3.352  0.00  0.00     0.026 A 
ATOM     24  C   UNL d   1      26.356  -9.682  -4.536  0.00  0.00     0.035 A 
ATOM     25 CL   UNL d   1      26.252  -8.026  -4.986  0.00  0.00    -0.084 Cl
ATOM     26  C   UNL d   1      27.029 -10.565  -5.368  0.00  0.00     0.050 A 
ATOM     27  C   UNL d   1      27.135 -11.908  -5.016  0.00  0.00     0.062 A 
ATOM     28 CL   UNL d   1      27.781 -12.944  -6.251  0.00  0.00    -0.082 Cl
ENDBRANCH  19  21
ENDBRANCH  16  17
ENDBRANCH   1  16
TORSDOF 7
ENDMDL
MODEL 9
REMARK VINA RESULT:    -6.029      4.109      7.326
REMARK INTER + INTRA:         -10.851
REMARK INTER:                  -8.117
REMARK INTRA:                  -2.733
REMARK CONF_INDEPENDENT:        2.088
REMARK UNBOUND:                -2.733
REMARK  7 active torsions:
REMARK  status: ('A' for Active; 'I' for Inactive)
REMARK       I    between atoms: N_1  and  C_2 
REMARK    1  A    between atoms: C_2  and  C_4 
REMARK    2  A    between atoms: C_4  and  S_5 
REMARK    3  A    between atoms: S_5  and  C_6 
REMARK    4  A    between atoms: C_11  and  N_12 
REMARK    5  A    between atoms: N_12  and  C_13 
REMARK    6  A    between atoms: C_13  and  C_14 
REMARK       I    between atoms: C_14  and  N_16 
REMARK    7  A    between atoms: N_16  and  C_17 
ROOT
ATOM      1  N   UNL d   1      30.719 -16.301  -3.904  0.00  0.00    -0.380 N 
ATOM      2  H   UNL d   1      31.385 -16.038  -3.176  0.00  0.00     0.160 HD
ENDROOT
BRANCH   1   3
ATOM      3  C   UNL d   1      30.813 -17.537  -4.527  0.00  0.00     0.045 A 
ATOM      4  C   UNL d   1      30.689 -17.554  -5.937  0.00  0.00     0.030 A 
ATOM      5  C   UNL d   1      30.772 -18.741  -6.672  0.00  0.00     0.002 A 
ATOM      6  C   UNL d   1      30.980 -19.944  -6.015  0.00  0.00     0.002 A 
ATOM      7  C   UNL d   1      31.070 -19.965  -4.629  0.00  0.00     0.021 A 
ATOM      8  C   UNL d   1      31.038 -18.782  -3.878  0.00  0.00     0.027 A 
BRANCH   8   9
ATOM      9  S   UNL d   1      31.149 -19.051  -2.101  0.00  0.00    -0.118 SA
BRANCH   9  10
ATOM     10  C   UNL d   1      32.024 -17.552  -1.508  0.00  0.00     0.182 C 
BRANCH  10  11
ATOM     11  C   UNL d   1      31.031 -16.649  -0.773  0.00  0.00     0.225 C 
ATOM     12  N   UNL d   1      30.689 -17.028   0.492  0.00  0.00    -0.369 N 
ATOM     13  H   UNL d   1      30.017 -16.444   0.977  0.00  0.00     0.159 HD
ATOM     14  H   UNL d   1      31.074 -17.826   0.978  0.00  0.00     0.159 HD
ATOM     15  O   UNL d   1      30.539 -15.609  -1.226  0.00  0.00    -0.273 OA
ENDBRANCH  10  11
ENDBRANCH   9  10
ENDBRANCH   8   9
ENDBRANCH   1   3
BRANCH   1  16
ATOM     16  C   UNL d   1      29.813 -15.237  -4.318  0.00  0.00     0.223 C 
BRANCH  16  17
ATOM     17  C   UNL d   1      28.371 -15.566  -3.987  0.00  0.00     0.239 C 
ATOM     18  O   UNL d   1      27.559 -15.843  -4.873  0.00  0.00    -0.271 OA
ATOM     19  N   UNL d   1      28.061 -15.472  -2.631  0.00  0.00    -0.324 N 
ATOM     20  H   UNL d   1      28.652 -14.906  -2.030  0.00  0.00     0.169 HD
BRANCH  19  21
ATOM     21  C   UNL d   1      26.835 -15.953  -2.118  0.00  0.00     0.056 A 
ATOM     22  C   UNL d   1      26.842 -17.073  -1.266  0.00  0.00     0.033 A 
ATOM     23  C   UNL d   1      25.632 -17.607  -0.799  0.00  0.00     0.026 A 
ATOM     24  C   UNL d   1      24.425 -16.997  -1.139  0.00  0.00     0.035 A 
ATOM     25 CL   UNL d   1      22.939 -17.597  -0.517  0.00  0.00    -0.084 Cl
ATOM     26  C   UNL d   1      24.406 -15.897  -1.985  0.00  0.00     0.050 A 
ATOM     27  C   UNL d   1      25.598 -15.387  -2.490  0.00  0.00     0.062 A 
ATOM     28 CL   UNL d   1      25.420 -14.176  -3.721  0.00  0.00    -0.082 Cl
ENDBRANCH  19  21
ENDBRANCH  16  17
ENDBRANCH   1  16
TORSDOF 7
ENDMDL
