MODEL 1
REMARK VINA RESULT:    -8.410      0.000      0.000
REMARK INTER + INTRA:         -12.200
REMARK INTER:                 -11.094
REMARK INTRA:                  -1.105
REMARK CONF_INDEPENDENT:        2.685
REMARK UNBOUND:                -1.105
REMARK  9 active torsions:
REMARK  status: ('A' for Active; 'I' for Inactive)
REMARK    1  A    between atoms: O_2  and  C_3 
REMARK    2  A    between atoms: C_6  and  C_7 
REMARK    3  A    between atoms: C_8  and  C_9 
REMARK       I    between atoms: C_9  and  N_11 
REMARK    4  A    between atoms: N_11  and  C_12 
REMARK    5  A    between atoms: C_12  and  N_14 
REMARK    6  A    between atoms: N_14  and  C_15 
REMARK    7  A    between atoms: C_20  and  N_21 
REMARK       I    between atoms: N_21  and  C_22 
REMARK    8  A    between atoms: C_22  and  C_24 
REMARK    9  A    between atoms: C_29  and  O_30 
ROOT
ATOM      1  C   UNL d   1      25.581 -14.909  -2.732  0.00  0.00     0.179 C 
ATOM      2  S   UNL d   1      27.154 -14.761  -2.100  0.00  0.00    -0.040 SA
ENDROOT
BRANCH   1   3
ATOM      3  N   UNL d   1      24.570 -15.651  -2.066  0.00  0.00    -0.300 N 
ATOM      4  C   UNL d   1      24.821 -16.814  -1.304  0.00  0.00     0.247 C 
ATOM      5  O   UNL d   1      25.900 -17.396  -1.229  0.00  0.00    -0.268 OA
ATOM      6  H   UNL d   1      23.624 -15.302  -2.097  0.00  0.00     0.171 HD
BRANCH   4   7
ATOM      7  C   UNL d   1      23.699 -17.429  -0.534  0.00  0.00     0.075 C 
ATOM      8  C   UNL d   1      22.790 -18.187  -1.204  0.00  0.00     0.017 C 
BRANCH   8   9
ATOM      9  C   UNL d   1      21.580 -18.818  -0.630  0.00  0.00    -0.033 A 
ATOM     10  C   UNL d   1      20.512 -19.280  -1.408  0.00  0.00     0.014 A 
ATOM     11  C   UNL d   1      19.318 -19.732  -0.793  0.00  0.00     0.040 A 
ATOM     12  C   UNL d   1      19.178 -19.814   0.611  0.00  0.00     0.101 A 
ATOM     13  C   UNL d   1      20.295 -19.445   1.381  0.00  0.00     0.102 A 
ATOM     14  C   UNL d   1      21.446 -18.942   0.748  0.00  0.00     0.051 A 
BRANCH  12  15
ATOM     15  O   UNL d   1      18.033 -20.465   1.022  0.00  0.00    -0.353 OA
ATOM     16  C   UNL d   1      17.954 -21.892   0.981  0.00  0.00     0.210 C 
ENDBRANCH  12  15
BRANCH  13  17
ATOM     17  O   UNL d   1      20.567 -19.523   2.725  0.00  0.00    -0.353 OA
ATOM     18  C   UNL d   1      19.830 -20.479   3.421  0.00  0.00     0.210 C 
ENDBRANCH  13  17
ENDBRANCH   8   9
ENDBRANCH   4   7
ENDBRANCH   1   3
BRANCH   1  19
ATOM     19  N   UNL d   1      25.170 -14.229  -3.921  0.00  0.00    -0.333 N 
ATOM     20  H   UNL d   1      24.196 -14.060  -4.134  0.00  0.00     0.168 HD
BRANCH  19  21
ATOM     21  C   UNL d   1      26.120 -13.597  -4.813  0.00  0.00     0.036 A 
ATOM     22  C   UNL d   1      26.249 -12.233  -5.026  0.00  0.00     0.030 A 
ATOM     23  C   UNL d   1      27.295 -11.754  -5.858  0.00  0.00     0.011 A 
ATOM     24  C   UNL d   1      28.254 -12.622  -6.446  0.00  0.00    -0.035 A 
ATOM     25  C   UNL d   1      29.445 -12.035  -7.158  0.00  0.00     0.050 C 
ATOM     26  C   UNL d   1      28.073 -14.003  -6.292  0.00  0.00     0.042 A 
ATOM     27  C   UNL d   1      26.985 -14.423  -5.521  0.00  0.00     0.059 A 
BRANCH  26  28
ATOM     28  N   UNL d   1      28.937 -14.976  -6.880  0.00  0.00    -0.326 N 
ATOM     29  C   UNL d   1      29.952 -15.640  -6.175  0.00  0.00     0.226 C 
ATOM     30  O   UNL d   1      30.250 -15.500  -5.010  0.00  0.00    -0.273 OA
ATOM     31  H   UNL d   1      28.799 -15.200  -7.854  0.00  0.00     0.169 HD
BRANCH  29  32
ATOM     32  C   UNL d   1      30.747 -16.657  -6.922  0.00  0.00     0.078 A 
ATOM     33  C   UNL d   1      31.974 -17.227  -6.227  0.00  0.00     0.015 A 
ATOM     34  C   UNL d   1      30.744 -18.075  -6.362  0.00  0.00     0.015 A 
ENDBRANCH  29  32
ENDBRANCH  26  28
ENDBRANCH  19  21
ENDBRANCH   1  19
TORSDOF 9
ENDMDL
MODEL 2
REMARK VINA RESULT:    -8.309      8.526     10.764
REMARK INTER + INTRA:         -11.851
REMARK INTER:                 -10.994
REMARK INTRA:                  -0.857
REMARK CONF_INDEPENDENT:        2.685
REMARK UNBOUND:                -0.857
REMARK  9 active torsions:
REMARK  status: ('A' for Active; 'I' for Inactive)
REMARK    1  A    between atoms: O_2  and  C_3 
REMARK    2  A    between atoms: C_6  and  C_7 
REMARK    3  A    between atoms: C_8  and  C_9 
REMARK       I    between atoms: C_9  and  N_11 
REMARK    4  A    between atoms: N_11  and  C_12 
REMARK    5  A    between atoms: C_12  and  N_14 
REMARK    6  A    between atoms: N_14  and  C_15 
REMARK    7  A    between atoms: C_20  and  N_21 
REMARK       I    between atoms: N_21  and  C_22 
REMARK    8  A    between atoms: C_22  and  C_24 
REMARK    9  A    between atoms: C_29  and  O_30 
ROOT
ATOM      1  C   UNL d   1      27.932 -14.135   2.520  0.00  0.00     0.179 C 
ATOM      2  S   UNL d   1      27.232 -12.594   2.346  0.00  0.00    -0.040 SA
ENDROOT
BRANCH   1   3
ATOM      3  N   UNL d   1      28.550 -14.547   3.730  0.00  0.00    -0.300 N 
ATOM      4  C   UNL d   1      28.273 -13.972   4.990  0.00  0.00     0.247 C 
ATOM      5  O   UNL d   1      27.578 -12.977   5.181  0.00  0.00    -0.268 OA
ATOM      6  H   UNL d   1      29.188 -15.329   3.697  0.00  0.00     0.171 HD
BRANCH   4   7
ATOM      7  C   UNL d   1      28.879 -14.582   6.212  0.00  0.00     0.075 C 
ATOM      8  C   UNL d   1      29.070 -13.795   7.304  0.00  0.00     0.017 C 
BRANCH   8   9
ATOM      9  C   UNL d   1      29.715 -14.199   8.575  0.00  0.00    -0.033 A 
ATOM     10  C   UNL d   1      31.073 -14.519   8.679  0.00  0.00     0.014 A 
ATOM     11  C   UNL d   1      31.597 -15.046   9.886  0.00  0.00     0.040 A 
ATOM     12  C   UNL d   1      30.805 -15.196  11.048  0.00  0.00     0.101 A 
ATOM     13  C   UNL d   1      29.467 -14.773  10.961  0.00  0.00     0.102 A 
ATOM     14  C   UNL d   1      28.957 -14.311   9.735  0.00  0.00     0.051 A 
BRANCH  12  15
ATOM     15  O   UNL d   1      31.527 -15.527  12.176  0.00  0.00    -0.353 OA
ATOM     16  C   UNL d   1      32.946 -15.691  12.110  0.00  0.00     0.210 C 
ENDBRANCH  12  15
BRANCH  13  17
ATOM     17  O   UNL d   1      28.470 -14.641  11.896  0.00  0.00    -0.353 OA
ATOM     18  C   UNL d   1      28.142 -13.328  12.230  0.00  0.00     0.210 C 
ENDBRANCH  13  17
ENDBRANCH   8   9
ENDBRANCH   4   7
ENDBRANCH   1   3
BRANCH   1  19
ATOM     19  N   UNL d   1      27.864 -15.123   1.490  0.00  0.00    -0.333 N 
ATOM     20  H   UNL d   1      28.146 -16.082   1.645  0.00  0.00     0.168 HD
BRANCH  19  21
ATOM     21  C   UNL d   1      27.236 -14.861   0.211  0.00  0.00     0.036 A 
ATOM     22  C   UNL d   1      27.613 -13.877  -0.691  0.00  0.00     0.030 A 
ATOM     23  C   UNL d   1      26.964 -13.804  -1.952  0.00  0.00     0.011 A 
ATOM     24  C   UNL d   1      25.971 -14.739  -2.349  0.00  0.00    -0.035 A 
ATOM     25  C   UNL d   1      25.462 -14.719  -3.767  0.00  0.00     0.050 C 
ATOM     26  C   UNL d   1      25.539 -15.681  -1.406  0.00  0.00     0.042 A 
ATOM     27  C   UNL d   1      26.162 -15.664  -0.155  0.00  0.00     0.059 A 
BRANCH  26  28
ATOM     28  N   UNL d   1      24.510 -16.636  -1.668  0.00  0.00    -0.326 N 
ATOM     29  C   UNL d   1      24.308 -17.789  -0.897  0.00  0.00     0.226 C 
ATOM     30  O   UNL d   1      24.944 -18.150   0.068  0.00  0.00    -0.273 OA
ATOM     31  H   UNL d   1      23.893 -16.459  -2.446  0.00  0.00     0.169 HD
BRANCH  29  32
ATOM     32  C   UNL d   1      23.166 -18.671  -1.277  0.00  0.00     0.078 A 
ATOM     33  C   UNL d   1      22.390 -19.330  -0.146  0.00  0.00     0.015 A 
ATOM     34  C   UNL d   1      21.771 -18.187  -0.896  0.00  0.00     0.015 A 
ENDBRANCH  29  32
ENDBRANCH  26  28
ENDBRANCH  19  21
ENDBRANCH   1  19
TORSDOF 9
ENDMDL
MODEL 3
REMARK VINA RESULT:    -8.235      2.456     11.095
REMARK INTER + INTRA:         -12.156
REMARK INTER:                 -10.920
REMARK INTRA:                  -1.236
REMARK CONF_INDEPENDENT:        2.685
REMARK UNBOUND:                -1.236
REMARK  9 active torsions:
REMARK  status: ('A' for Active; 'I' for Inactive)
REMARK    1  A    between atoms: O_2  and  C_3 
REMARK    2  A    between atoms: C_6  and  C_7 
REMARK    3  A    between atoms: C_8  and  C_9 
REMARK       I    between atoms: C_9  and  N_11 
REMARK    4  A    between atoms: N_11  and  C_12 
REMARK    5  A    between atoms: C_12  and  N_14 
REMARK    6  A    between atoms: N_14  and  C_15 
REMARK    7  A    between atoms: C_20  and  N_21 
REMARK       I    between atoms: N_21  and  C_22 
REMARK    8  A    between atoms: C_22  and  C_24 
REMARK    9  A    between atoms: C_29  and  O_30 
ROOT
ATOM      1  C   UNL d   1      26.273 -13.214  -3.780  0.00  0.00     0.179 C 
ATOM      2  S   UNL d   1      26.208 -11.706  -2.995  0.00  0.00    -0.040 SA
ENDROOT
BRANCH   1   3
ATOM      3  N   UNL d   1      27.348 -13.571  -4.635  0.00  0.00    -0.300 N 
ATOM      4  C   UNL d   1      27.336 -14.700  -5.485  0.00  0.00     0.247 C 
ATOM      5  O   UNL d   1      26.470 -15.571  -5.499  0.00  0.00    -0.268 OA
ATOM      6  H   UNL d   1      28.149 -12.958  -4.675  0.00  0.00     0.171 HD
BRANCH   4   7
ATOM      7  C   UNL d   1      28.465 -14.896  -6.442  0.00  0.00     0.075 C 
ATOM      8  C   UNL d   1      29.443 -15.783  -6.120  0.00  0.00     0.017 C 
BRANCH   8   9
ATOM      9  C   UNL d   1      30.669 -16.062  -6.902  0.00  0.00    -0.033 A 
ATOM     10  C   UNL d   1      31.546 -15.062  -7.339  0.00  0.00     0.014 A 
ATOM     11  C   UNL d   1      32.616 -15.376  -8.214  0.00  0.00     0.040 A 
ATOM     12  C   UNL d   1      32.895 -16.702  -8.616  0.00  0.00     0.101 A 
ATOM     13  C   UNL d   1      32.071 -17.711  -8.087  0.00  0.00     0.102 A 
ATOM     14  C   UNL d   1      30.979 -17.366  -7.271  0.00  0.00     0.051 A 
BRANCH  12  15
ATOM     15  O   UNL d   1      34.088 -16.840  -9.296  0.00  0.00    -0.353 OA
ATOM     16  C   UNL d   1      34.801 -15.689  -9.755  0.00  0.00     0.210 C 
ENDBRANCH  12  15
BRANCH  13  17
ATOM     17  O   UNL d   1      32.125 -19.082  -8.143  0.00  0.00    -0.353 OA
ATOM     18  C   UNL d   1      30.908 -19.711  -8.400  0.00  0.00     0.210 C 
ENDBRANCH  13  17
ENDBRANCH   8   9
ENDBRANCH   4   7
ENDBRANCH   1   3
BRANCH   1  19
ATOM     19  N   UNL d   1      25.293 -14.232  -3.557  0.00  0.00    -0.333 N 
ATOM     20  H   UNL d   1      24.459 -14.308  -4.123  0.00  0.00     0.168 HD
BRANCH  19  21
ATOM     21  C   UNL d   1      25.508 -15.315  -2.620  0.00  0.00     0.036 A 
ATOM     22  C   UNL d   1      26.738 -15.844  -2.259  0.00  0.00     0.030 A 
ATOM     23  C   UNL d   1      26.798 -16.840  -1.249  0.00  0.00     0.011 A 
ATOM     24  C   UNL d   1      25.643 -17.284  -0.552  0.00  0.00    -0.035 A 
ATOM     25  C   UNL d   1      25.801 -18.200   0.634  0.00  0.00     0.050 C 
ATOM     26  C   UNL d   1      24.395 -16.805  -0.974  0.00  0.00     0.042 A 
ATOM     27  C   UNL d   1      24.387 -15.878  -2.020  0.00  0.00     0.059 A 
BRANCH  26  28
ATOM     28  N   UNL d   1      23.160 -17.218  -0.389  0.00  0.00    -0.326 N 
ATOM     29  C   UNL d   1      22.373 -18.263  -0.895  0.00  0.00     0.226 C 
ATOM     30  O   UNL d   1      22.599 -18.950  -1.866  0.00  0.00    -0.273 OA
ATOM     31  H   UNL d   1      22.847 -16.734   0.439  0.00  0.00     0.169 HD
BRANCH  29  32
ATOM     32  C   UNL d   1      21.126 -18.599  -0.149  0.00  0.00     0.078 A 
ATOM     33  C   UNL d   1      20.061 -19.389  -0.895  0.00  0.00     0.015 A 
ATOM     34  C   UNL d   1      20.886 -20.074   0.154  0.00  0.00     0.015 A 
ENDBRANCH  29  32
ENDBRANCH  26  28
ENDBRANCH  19  21
ENDBRANCH   1  19
TORSDOF 9
ENDMDL
MODEL 4
REMARK VINA RESULT:    -8.189      6.347      9.204
REMARK INTER + INTRA:         -12.374
REMARK INTER:                 -10.874
REMARK INTRA:                  -1.500
REMARK CONF_INDEPENDENT:        2.685
REMARK UNBOUND:                -1.500
REMARK  9 active torsions:
REMARK  status: ('A' for Active; 'I' for Inactive)
REMARK    1  A    between atoms: O_2  and  C_3 
REMARK    2  A    between atoms: C_6  and  C_7 
REMARK    3  A    between atoms: C_8  and  C_9 
REMARK       I    between atoms: C_9  and  N_11 
REMARK    4  A    between atoms: N_11  and  C_12 
REMARK    5  A    between atoms: C_12  and  N_14 
REMARK    6  A    between atoms: N_14  and  C_15 
REMARK    7  A    between atoms: C_20  and  N_21 
REMARK       I    between atoms: N_21  and  C_22 
REMARK    8  A    between atoms: C_22  and  C_24 
REMARK    9  A    between atoms: C_29  and  O_30 
ROOT
ATOM      1  C   UNL d   1      29.412 -16.614  -0.412  0.00  0.00     0.179 C 
ATOM      2  S   UNL d   1      30.229 -16.387  -1.888  0.00  0.00    -0.040 SA
ENDROOT
BRANCH   1   3
ATOM      3  N   UNL d   1      29.558 -15.712   0.675  0.00  0.00    -0.300 N 
ATOM      4  C   UNL d   1      28.803 -14.528   0.820  0.00  0.00     0.247 C 
ATOM      5  O   UNL d   1      28.033 -14.067  -0.019  0.00  0.00    -0.268 OA
ATOM      6  H   UNL d   1      30.205 -15.954   1.411  0.00  0.00     0.171 HD
BRANCH   4   7
ATOM      7  C   UNL d   1      28.944 -13.730   2.075  0.00  0.00     0.075 C 
ATOM      8  C   UNL d   1      28.322 -14.173   3.199  0.00  0.00     0.017 C 
BRANCH   8   9
ATOM      9  C   UNL d   1      28.289 -13.488   4.512  0.00  0.00    -0.033 A 
ATOM     10  C   UNL d   1      27.782 -12.197   4.693  0.00  0.00     0.014 A 
ATOM     11  C   UNL d   1      27.920 -11.538   5.940  0.00  0.00     0.040 A 
ATOM     12  C   UNL d   1      28.493 -12.172   7.066  0.00  0.00     0.101 A 
ATOM     13  C   UNL d   1      28.904 -13.506   6.902  0.00  0.00     0.102 A 
ATOM     14  C   UNL d   1      28.812 -14.115   5.638  0.00  0.00     0.051 A 
BRANCH  12  15
ATOM     15  O   UNL d   1      28.357 -11.457   8.239  0.00  0.00    -0.353 OA
ATOM     16  C   UNL d   1      29.137 -11.792   9.390  0.00  0.00     0.210 C 
ENDBRANCH  12  15
BRANCH  13  17
ATOM     17  O   UNL d   1      29.363 -14.455   7.783  0.00  0.00    -0.353 OA
ATOM     18  C   UNL d   1      30.714 -14.355   8.107  0.00  0.00     0.210 C 
ENDBRANCH  13  17
ENDBRANCH   8   9
ENDBRANCH   4   7
ENDBRANCH   1   3
BRANCH   1  19
ATOM     19  N   UNL d   1      28.475 -17.676  -0.216  0.00  0.00    -0.333 N 
ATOM     20  H   UNL d   1      28.744 -18.563   0.189  0.00  0.00     0.168 HD
BRANCH  19  21
ATOM     21  C   UNL d   1      27.053 -17.497  -0.429  0.00  0.00     0.036 A 
ATOM     22  C   UNL d   1      26.048 -18.292   0.100  0.00  0.00     0.030 A 
ATOM     23  C   UNL d   1      24.691 -17.933  -0.117  0.00  0.00     0.011 A 
ATOM     24  C   UNL d   1      24.321 -16.754  -0.817  0.00  0.00    -0.035 A 
ATOM     25  C   UNL d   1      22.874 -16.335  -0.846  0.00  0.00     0.050 C 
ATOM     26  C   UNL d   1      25.337 -15.998  -1.416  0.00  0.00     0.042 A 
ATOM     27  C   UNL d   1      26.652 -16.435  -1.231  0.00  0.00     0.059 A 
BRANCH  26  28
ATOM     28  N   UNL d   1      25.087 -14.825  -2.191  0.00  0.00    -0.326 N 
ATOM     29  C   UNL d   1      25.203 -14.779  -3.588  0.00  0.00     0.226 C 
ATOM     30  O   UNL d   1      25.523 -15.680  -4.330  0.00  0.00    -0.273 OA
ATOM     31  H   UNL d   1      24.803 -13.990  -1.701  0.00  0.00     0.169 HD
BRANCH  29  32
ATOM     32  C   UNL d   1      24.872 -13.487  -4.256  0.00  0.00     0.078 A 
ATOM     33  C   UNL d   1      25.515 -12.228  -3.695  0.00  0.00     0.015 A 
ATOM     34  C   UNL d   1      26.006 -12.789  -4.997  0.00  0.00     0.015 A 
ENDBRANCH  29  32
ENDBRANCH  26  28
ENDBRANCH  19  21
ENDBRANCH   1  19
TORSDOF 9
ENDMDL
MODEL 5
REMARK VINA RESULT:    -8.154      6.084      9.119
REMARK INTER + INTRA:         -12.366
REMARK INTER:                 -10.839
REMARK INTRA:                  -1.527
REMARK CONF_INDEPENDENT:        2.685
REMARK UNBOUND:                -1.527
REMARK  9 active torsions:
REMARK  status: ('A' for Active; 'I' for Inactive)
REMARK    1  A    between atoms: O_2  and  C_3 
REMARK    2  A    between atoms: C_6  and  C_7 
REMARK    3  A    between atoms: C_8  and  C_9 
REMARK       I    between atoms: C_9  and  N_11 
REMARK    4  A    between atoms: N_11  and  C_12 
REMARK    5  A    between atoms: C_12  and  N_14 
REMARK    6  A    between atoms: N_14  and  C_15 
REMARK    7  A    between atoms: C_20  and  N_21 
REMARK       I    between atoms: N_21  and  C_22 
REMARK    8  A    between atoms: C_22  and  C_24 
REMARK    9  A    between atoms: C_29  and  O_30 
ROOT
ATOM      1  C   UNL d   1      29.367 -16.743  -0.475  0.00  0.00     0.179 C 
ATOM      2  S   UNL d   1      30.316 -16.544  -1.873  0.00  0.00    -0.040 SA
ENDROOT
BRANCH   1   3
ATOM      3  N   UNL d   1      29.417 -15.822   0.604  0.00  0.00    -0.300 N 
ATOM      4  C   UNL d   1      28.664 -14.627   0.653  0.00  0.00     0.247 C 
ATOM      5  O   UNL d   1      27.986 -14.175  -0.266  0.00  0.00    -0.268 OA
ATOM      6  H   UNL d   1      29.985 -16.056   1.405  0.00  0.00     0.171 HD
BRANCH   4   7
ATOM      7  C   UNL d   1      28.691 -13.807   1.901  0.00  0.00     0.075 C 
ATOM      8  C   UNL d   1      28.764 -14.448   3.098  0.00  0.00     0.017 C 
BRANCH   8   9
ATOM      9  C   UNL d   1      28.732 -13.815   4.436  0.00  0.00    -0.033 A 
ATOM     10  C   UNL d   1      29.102 -14.481   5.610  0.00  0.00     0.014 A 
ATOM     11  C   UNL d   1      28.904 -13.873   6.875  0.00  0.00     0.040 A 
ATOM     12  C   UNL d   1      28.408 -12.556   7.007  0.00  0.00     0.101 A 
ATOM     13  C   UNL d   1      28.138 -11.858   5.816  0.00  0.00     0.102 A 
ATOM     14  C   UNL d   1      28.285 -12.506   4.577  0.00  0.00     0.051 A 
BRANCH  12  15
ATOM     15  O   UNL d   1      28.475 -12.060   8.293  0.00  0.00    -0.353 OA
ATOM     16  C   UNL d   1      28.362 -12.936   9.417  0.00  0.00     0.210 C 
ENDBRANCH  12  15
BRANCH  13  17
ATOM     17  O   UNL d   1      27.788 -10.555   5.560  0.00  0.00    -0.353 OA
ATOM     18  C   UNL d   1      27.771 -10.203   4.212  0.00  0.00     0.210 C 
ENDBRANCH  13  17
ENDBRANCH   8   9
ENDBRANCH   4   7
ENDBRANCH   1   3
BRANCH   1  19
ATOM     19  N   UNL d   1      28.412 -17.799  -0.347  0.00  0.00    -0.333 N 
ATOM     20  H   UNL d   1      28.667 -18.716  -0.004  0.00  0.00     0.168 HD
BRANCH  19  21
ATOM     21  C   UNL d   1      26.993 -17.581  -0.540  0.00  0.00     0.036 A 
ATOM     22  C   UNL d   1      25.974 -18.371  -0.029  0.00  0.00     0.030 A 
ATOM     23  C   UNL d   1      24.624 -17.975  -0.220  0.00  0.00     0.011 A 
ATOM     24  C   UNL d   1      24.274 -16.764  -0.875  0.00  0.00    -0.035 A 
ATOM     25  C   UNL d   1      22.837 -16.312  -0.875  0.00  0.00     0.050 C 
ATOM     26  C   UNL d   1      25.303 -16.010  -1.457  0.00  0.00     0.042 A 
ATOM     27  C   UNL d   1      26.609 -16.482  -1.300  0.00  0.00     0.059 A 
BRANCH  26  28
ATOM     28  N   UNL d   1      25.072 -14.805  -2.188  0.00  0.00    -0.326 N 
ATOM     29  C   UNL d   1      25.211 -14.703  -3.579  0.00  0.00     0.226 C 
ATOM     30  O   UNL d   1      25.539 -15.576  -4.352  0.00  0.00    -0.273 OA
ATOM     31  H   UNL d   1      24.785 -13.989  -1.669  0.00  0.00     0.169 HD
BRANCH  29  32
ATOM     32  C   UNL d   1      24.899 -13.383  -4.200  0.00  0.00     0.078 A 
ATOM     33  C   UNL d   1      25.503 -12.148  -3.550  0.00  0.00     0.015 A 
ATOM     34  C   UNL d   1      26.060 -12.642  -4.853  0.00  0.00     0.015 A 
ENDBRANCH  29  32
ENDBRANCH  26  28
ENDBRANCH  19  21
ENDBRANCH   1  19
TORSDOF 9
ENDMDL
MODEL 6
REMARK VINA RESULT:    -8.055      1.499      3.119
REMARK INTER + INTRA:         -12.056
REMARK INTER:                 -10.740
REMARK INTRA:                  -1.316
REMARK CONF_INDEPENDENT:        2.685
REMARK UNBOUND:                -1.316
REMARK  9 active torsions:
REMARK  status: ('A' for Active; 'I' for Inactive)
REMARK    1  A    between atoms: O_2  and  C_3 
REMARK    2  A    between atoms: C_6  and  C_7 
REMARK    3  A    between atoms: C_8  and  C_9 
REMARK       I    between atoms: C_9  and  N_11 
REMARK    4  A    between atoms: N_11  and  C_12 
REMARK    5  A    between atoms: C_12  and  N_14 
REMARK    6  A    between atoms: N_14  and  C_15 
REMARK    7  A    between atoms: C_20  and  N_21 
REMARK       I    between atoms: N_21  and  C_22 
REMARK    8  A    between atoms: C_22  and  C_24 
REMARK    9  A    between atoms: C_29  and  O_30 
ROOT
ATOM      1  C   UNL d   1      25.746 -15.280  -3.019  0.00  0.00     0.179 C 
ATOM      2  S   UNL d   1      25.433 -14.374  -4.424  0.00  0.00    -0.040 SA
ENDROOT
BRANCH   1   3
ATOM      3  N   UNL d   1      24.715 -15.961  -2.318  0.00  0.00    -0.300 N 
ATOM      4  C   UNL d   1      24.952 -16.948  -1.336  0.00  0.00     0.247 C 
ATOM      5  O   UNL d   1      26.048 -17.429  -1.060  0.00  0.00    -0.268 OA
ATOM      6  H   UNL d   1      23.759 -15.691  -2.496  0.00  0.00     0.171 HD
BRANCH   4   7
ATOM      7  C   UNL d   1      23.794 -17.494  -0.566  0.00  0.00     0.075 C 
ATOM      8  C   UNL d   1      22.897 -18.282  -1.215  0.00  0.00     0.017 C 
BRANCH   8   9
ATOM      9  C   UNL d   1      21.657 -18.856  -0.643  0.00  0.00    -0.033 A 
ATOM     10  C   UNL d   1      20.586 -19.303  -1.424  0.00  0.00     0.014 A 
ATOM     11  C   UNL d   1      19.367 -19.697  -0.816  0.00  0.00     0.040 A 
ATOM     12  C   UNL d   1      19.205 -19.735   0.587  0.00  0.00     0.101 A 
ATOM     13  C   UNL d   1      20.323 -19.383   1.364  0.00  0.00     0.102 A 
ATOM     14  C   UNL d   1      21.499 -18.937   0.736  0.00  0.00     0.051 A 
BRANCH  12  15
ATOM     15  O   UNL d   1      18.032 -20.335   0.998  0.00  0.00    -0.353 OA
ATOM     16  C   UNL d   1      17.739 -21.685   0.629  0.00  0.00     0.210 C 
ENDBRANCH  12  15
BRANCH  13  17
ATOM     17  O   UNL d   1      20.572 -19.434   2.714  0.00  0.00    -0.353 OA
ATOM     18  C   UNL d   1      19.909 -20.450   3.399  0.00  0.00     0.210 C 
ENDBRANCH  13  17
ENDBRANCH   8   9
ENDBRANCH   4   7
ENDBRANCH   1   3
BRANCH   1  19
ATOM     19  N   UNL d   1      27.070 -15.473  -2.515  0.00  0.00    -0.333 N 
ATOM     20  H   UNL d   1      27.274 -15.475  -1.525  0.00  0.00     0.168 HD
BRANCH  19  21
ATOM     21  C   UNL d   1      28.175 -15.840  -3.377  0.00  0.00     0.036 A 
ATOM     22  C   UNL d   1      29.108 -16.834  -3.121  0.00  0.00     0.030 A 
ATOM     23  C   UNL d   1      30.079 -17.147  -4.108  0.00  0.00     0.011 A 
ATOM     24  C   UNL d   1      30.102 -16.513  -5.379  0.00  0.00    -0.035 A 
ATOM     25  C   UNL d   1      31.035 -17.025  -6.445  0.00  0.00     0.050 C 
ATOM     26  C   UNL d   1      29.208 -15.456  -5.602  0.00  0.00     0.042 A 
ATOM     27  C   UNL d   1      28.320 -15.141  -4.570  0.00  0.00     0.059 A 
BRANCH  26  28
ATOM     28  N   UNL d   1      29.172 -14.706  -6.817  0.00  0.00    -0.326 N 
ATOM     29  C   UNL d   1      28.929 -13.326  -6.868  0.00  0.00     0.226 C 
ATOM     30  O   UNL d   1      28.716 -12.580  -5.938  0.00  0.00    -0.273 OA
ATOM     31  H   UNL d   1      29.340 -15.200  -7.679  0.00  0.00     0.169 HD
BRANCH  29  32
ATOM     32  C   UNL d   1      28.960 -12.679  -8.212  0.00  0.00     0.078 A 
ATOM     33  C   UNL d   1      27.742 -11.863  -8.619  0.00  0.00     0.015 A 
ATOM     34  C   UNL d   1      29.009 -11.155  -8.237  0.00  0.00     0.015 A 
ENDBRANCH  29  32
ENDBRANCH  26  28
ENDBRANCH  19  21
ENDBRANCH   1  19
TORSDOF 9
ENDMDL
MODEL 7
REMARK VINA RESULT:    -7.988      8.205     10.432
REMARK INTER + INTRA:         -11.814
REMARK INTER:                 -10.673
REMARK INTRA:                  -1.141
REMARK CONF_INDEPENDENT:        2.685
REMARK UNBOUND:                -1.141
REMARK  9 active torsions:
REMARK  status: ('A' for Active; 'I' for Inactive)
REMARK    1  A    between atoms: O_2  and  C_3 
REMARK    2  A    between atoms: C_6  and  C_7 
REMARK    3  A    between atoms: C_8  and  C_9 
REMARK       I    between atoms: C_9  and  N_11 
REMARK    4  A    between atoms: N_11  and  C_12 
REMARK    5  A    between atoms: C_12  and  N_14 
REMARK    6  A    between atoms: N_14  and  C_15 
REMARK    7  A    between atoms: C_20  and  N_21 
REMARK       I    between atoms: N_21  and  C_22 
REMARK    8  A    between atoms: C_22  and  C_24 
REMARK    9  A    between atoms: C_29  and  O_30 
ROOT
ATOM      1  C   UNL d   1      28.151 -14.661   2.006  0.00  0.00     0.179 C 
ATOM      2  S   UNL d   1      27.390 -13.244   1.452  0.00  0.00    -0.040 SA
ENDROOT
BRANCH   1   3
ATOM      3  N   UNL d   1      28.539 -14.825   3.362  0.00  0.00    -0.300 N 
ATOM      4  C   UNL d   1      27.762 -14.391   4.460  0.00  0.00     0.247 C 
ATOM      5  O   UNL d   1      26.739 -13.716   4.385  0.00  0.00    -0.268 OA
ATOM      6  H   UNL d   1      29.396 -15.322   3.556  0.00  0.00     0.171 HD
BRANCH   4   7
ATOM      7  C   UNL d   1      28.206 -14.744   5.842  0.00  0.00     0.075 C 
ATOM      8  C   UNL d   1      28.886 -13.813   6.563  0.00  0.00     0.017 C 
BRANCH   8   9
ATOM      9  C   UNL d   1      29.462 -13.999   7.914  0.00  0.00    -0.033 A 
ATOM     10  C   UNL d   1      30.771 -14.441   8.137  0.00  0.00     0.014 A 
ATOM     11  C   UNL d   1      31.214 -14.747   9.449  0.00  0.00     0.040 A 
ATOM     12  C   UNL d   1      30.396 -14.546  10.584  0.00  0.00     0.101 A 
ATOM     13  C   UNL d   1      29.119 -14.003  10.358  0.00  0.00     0.102 A 
ATOM     14  C   UNL d   1      28.683 -13.767   9.042  0.00  0.00     0.051 A 
BRANCH  12  15
ATOM     15  O   UNL d   1      31.059 -14.702  11.784  0.00  0.00    -0.353 OA
ATOM     16  C   UNL d   1      32.123 -15.649  11.910  0.00  0.00     0.210 C 
ENDBRANCH  12  15
BRANCH  13  17
ATOM     17  O   UNL d   1      28.133 -13.557  11.204  0.00  0.00    -0.353 OA
ATOM     18  C   UNL d   1      28.531 -12.574  12.107  0.00  0.00     0.210 C 
ENDBRANCH  13  17
ENDBRANCH   8   9
ENDBRANCH   4   7
ENDBRANCH   1   3
BRANCH   1  19
ATOM     19  N   UNL d   1      28.367 -15.791   1.158  0.00  0.00    -0.333 N 
ATOM     20  H   UNL d   1      29.267 -16.249   1.091  0.00  0.00     0.168 HD
BRANCH  19  21
ATOM     21  C   UNL d   1      27.280 -16.455   0.468  0.00  0.00     0.036 A 
ATOM     22  C   UNL d   1      26.655 -17.623   0.874  0.00  0.00     0.030 A 
ATOM     23  C   UNL d   1      25.534 -18.102   0.146  0.00  0.00     0.011 A 
ATOM     24  C   UNL d   1      24.992 -17.398  -0.963  0.00  0.00    -0.035 A 
ATOM     25  C   UNL d   1      23.693 -17.860  -1.569  0.00  0.00     0.050 C 
ATOM     26  C   UNL d   1      25.675 -16.262  -1.417  0.00  0.00     0.042 A 
ATOM     27  C   UNL d   1      26.814 -15.873  -0.706  0.00  0.00     0.059 A 
BRANCH  26  28
ATOM     28  N   UNL d   1      25.261 -15.502  -2.553  0.00  0.00    -0.326 N 
ATOM     29  C   UNL d   1      25.481 -14.124  -2.687  0.00  0.00     0.226 C 
ATOM     30  O   UNL d   1      26.028 -13.386  -1.898  0.00  0.00    -0.273 OA
ATOM     31  H   UNL d   1      24.793 -15.992  -3.300  0.00  0.00     0.169 HD
BRANCH  29  32
ATOM     32  C   UNL d   1      25.021 -13.480  -3.951  0.00  0.00     0.078 A 
ATOM     33  C   UNL d   1      25.530 -12.077  -4.243  0.00  0.00     0.015 A 
ATOM     34  C   UNL d   1      26.080 -13.236  -5.020  0.00  0.00     0.015 A 
ENDBRANCH  29  32
ENDBRANCH  26  28
ENDBRANCH  19  21
ENDBRANCH   1  19
TORSDOF 9
ENDMDL
MODEL 8
REMARK VINA RESULT:    -7.914      8.317     12.004
REMARK INTER + INTRA:         -12.282
REMARK INTER:                 -10.598
REMARK INTRA:                  -1.684
REMARK CONF_INDEPENDENT:        2.685
REMARK UNBOUND:                -1.684
REMARK  9 active torsions:
REMARK  status: ('A' for Active; 'I' for Inactive)
REMARK    1  A    between atoms: O_2  and  C_3 
REMARK    2  A    between atoms: C_6  and  C_7 
REMARK    3  A    between atoms: C_8  and  C_9 
REMARK       I    between atoms: C_9  and  N_11 
REMARK    4  A    between atoms: N_11  and  C_12 
REMARK    5  A    between atoms: C_12  and  N_14 
REMARK    6  A    between atoms: N_14  and  C_15 
REMARK    7  A    between atoms: C_20  and  N_21 
REMARK       I    between atoms: N_21  and  C_22 
REMARK    8  A    between atoms: C_22  and  C_24 
REMARK    9  A    between atoms: C_29  and  O_30 
ROOT
ATOM      1  C   UNL d   1      28.197 -14.231   4.308  0.00  0.00     0.179 C 
ATOM      2  S   UNL d   1      28.493 -15.200   5.674  0.00  0.00    -0.040 SA
ENDROOT
BRANCH   1   3
ATOM      3  N   UNL d   1      28.251 -14.753   2.989  0.00  0.00    -0.300 N 
ATOM      4  C   UNL d   1      27.519 -14.223   1.903  0.00  0.00     0.247 C 
ATOM      5  O   UNL d   1      26.662 -13.347   1.982  0.00  0.00    -0.268 OA
ATOM      6  H   UNL d   1      28.885 -15.517   2.805  0.00  0.00     0.171 HD
BRANCH   4   7
ATOM      7  C   UNL d   1      27.764 -14.768   0.534  0.00  0.00     0.075 C 
ATOM      8  C   UNL d   1      27.380 -14.025  -0.539  0.00  0.00     0.017 C 
BRANCH   8   9
ATOM      9  C   UNL d   1      27.475 -14.423  -1.962  0.00  0.00    -0.033 A 
ATOM     10  C   UNL d   1      28.665 -14.849  -2.562  0.00  0.00     0.014 A 
ATOM     11  C   UNL d   1      28.727 -15.068  -3.961  0.00  0.00     0.040 A 
ATOM     12  C   UNL d   1      27.590 -14.947  -4.792  0.00  0.00     0.101 A 
ATOM     13  C   UNL d   1      26.376 -14.620  -4.162  0.00  0.00     0.102 A 
ATOM     14  C   UNL d   1      26.355 -14.349  -2.782  0.00  0.00     0.051 A 
BRANCH  12  15
ATOM     15  O   UNL d   1      27.791 -15.394  -6.082  0.00  0.00    -0.353 OA
ATOM     16  C   UNL d   1      28.822 -14.829  -6.896  0.00  0.00     0.210 C 
ENDBRANCH  12  15
BRANCH  13  17
ATOM     17  O   UNL d   1      25.081 -14.555  -4.613  0.00  0.00    -0.353 OA
ATOM     18  C   UNL d   1      24.247 -13.701  -3.893  0.00  0.00     0.210 C 
ENDBRANCH  13  17
ENDBRANCH   8   9
ENDBRANCH   4   7
ENDBRANCH   1   3
BRANCH   1  19
ATOM     19  N   UNL d   1      27.798 -12.862   4.417  0.00  0.00    -0.333 N 
ATOM     20  H   UNL d   1      26.995 -12.495   3.924  0.00  0.00     0.168 HD
BRANCH  19  21
ATOM     21  C   UNL d   1      28.415 -11.953   5.362  0.00  0.00     0.036 A 
ATOM     22  C   UNL d   1      29.164 -10.833   5.038  0.00  0.00     0.030 A 
ATOM     23  C   UNL d   1      29.623  -9.978   6.075  0.00  0.00     0.011 A 
ATOM     24  C   UNL d   1      29.298 -10.201   7.440  0.00  0.00    -0.035 A 
ATOM     25  C   UNL d   1      29.655  -9.156   8.465  0.00  0.00     0.050 C 
ATOM     26  C   UNL d   1      28.608 -11.376   7.769  0.00  0.00     0.042 A 
ATOM     27  C   UNL d   1      28.242 -12.218   6.715  0.00  0.00     0.059 A 
BRANCH  26  28
ATOM     28  N   UNL d   1      28.273 -11.737   9.109  0.00  0.00    -0.326 N 
ATOM     29  C   UNL d   1      28.266 -13.059   9.577  0.00  0.00     0.226 C 
ATOM     30  O   UNL d   1      28.526 -14.063   8.951  0.00  0.00    -0.273 OA
ATOM     31  H   UNL d   1      28.039 -10.996   9.751  0.00  0.00     0.169 HD
BRANCH  29  32
ATOM     32  C   UNL d   1      27.929 -13.271  11.015  0.00  0.00     0.078 A 
ATOM     33  C   UNL d   1      28.569 -14.463  11.710  0.00  0.00     0.015 A 
ATOM     34  C   UNL d   1      29.061 -13.080  12.018  0.00  0.00     0.015 A 
ENDBRANCH  29  32
ENDBRANCH  26  28
ENDBRANCH  19  21
ENDBRANCH   1  19
TORSDOF 9
ENDMDL
MODEL 9
REMARK VINA RESULT:    -7.883      5.493      9.409
REMARK INTER + INTRA:         -12.084
REMARK INTER:                 -10.567
REMARK INTRA:                  -1.517
REMARK CONF_INDEPENDENT:        2.685
REMARK UNBOUND:                -1.517
REMARK  9 active torsions:
REMARK  status: ('A' for Active; 'I' for Inactive)
REMARK    1  A    between atoms: O_2  and  C_3 
REMARK    2  A    between atoms: C_6  and  C_7 
REMARK    3  A    between atoms: C_8  and  C_9 
REMARK       I    between atoms: C_9  and  N_11 
REMARK    4  A    between atoms: N_11  and  C_12 
REMARK    5  A    between atoms: C_12  and  N_14 
REMARK    6  A    between atoms: N_14  and  C_15 
REMARK    7  A    between atoms: C_20  and  N_21 
REMARK       I    between atoms: N_21  and  C_22 
REMARK    8  A    between atoms: C_22  and  C_24 
REMARK    9  A    between atoms: C_29  and  O_30 
ROOT
ATOM      1  C   UNL d   1      29.009 -16.898  -0.252  0.00  0.00     0.179 C 
ATOM      2  S   UNL d   1      30.173 -16.915  -1.492  0.00  0.00    -0.040 SA
ENDROOT
BRANCH   1   3
ATOM      3  N   UNL d   1      28.852 -15.785   0.617  0.00  0.00    -0.300 N 
ATOM      4  C   UNL d   1      28.117 -14.626   0.285  0.00  0.00     0.247 C 
ATOM      5  O   UNL d   1      27.639 -14.378  -0.819  0.00  0.00    -0.268 OA
ATOM      6  H   UNL d   1      29.248 -15.845   1.544  0.00  0.00     0.171 HD
BRANCH   4   7
ATOM      7  C   UNL d   1      27.904 -13.581   1.331  0.00  0.00     0.075 C 
ATOM      8  C   UNL d   1      27.742 -12.290   0.937  0.00  0.00     0.017 C 
BRANCH   8   9
ATOM      9  C   UNL d   1      27.589 -11.114   1.823  0.00  0.00    -0.033 A 
ATOM     10  C   UNL d   1      28.348 -10.922   2.983  0.00  0.00     0.014 A 
ATOM     11  C   UNL d   1      28.049  -9.858   3.870  0.00  0.00     0.040 A 
ATOM     12  C   UNL d   1      27.041  -8.907   3.592  0.00  0.00     0.101 A 
ATOM     13  C   UNL d   1      26.355  -9.050   2.373  0.00  0.00     0.102 A 
ATOM     14  C   UNL d   1      26.629 -10.149   1.540  0.00  0.00     0.051 A 
BRANCH  12  15
ATOM     15  O   UNL d   1      27.031  -7.834   4.459  0.00  0.00    -0.353 OA
ATOM     16  C   UNL d   1      28.192  -7.508   5.227  0.00  0.00     0.210 C 
ENDBRANCH  12  15
BRANCH  13  17
ATOM     17  O   UNL d   1      25.437  -8.261   1.723  0.00  0.00    -0.353 OA
ATOM     18  C   UNL d   1      25.902  -7.650   0.560  0.00  0.00     0.210 C 
ENDBRANCH  13  17
ENDBRANCH   8   9
ENDBRANCH   4   7
ENDBRANCH   1   3
BRANCH   1  19
ATOM     19  N   UNL d   1      28.073 -17.963  -0.069  0.00  0.00    -0.333 N 
ATOM     20  H   UNL d   1      28.337 -18.845   0.350  0.00  0.00     0.168 HD
BRANCH  19  21
ATOM     21  C   UNL d   1      26.656 -17.796  -0.320  0.00  0.00     0.036 A 
ATOM     22  C   UNL d   1      25.639 -18.557   0.234  0.00  0.00     0.030 A 
ATOM     23  C   UNL d   1      24.287 -18.210  -0.029  0.00  0.00     0.011 A 
ATOM     24  C   UNL d   1      23.934 -17.073  -0.804  0.00  0.00    -0.035 A 
ATOM     25  C   UNL d   1      22.489 -16.654  -0.885  0.00  0.00     0.050 C 
ATOM     26  C   UNL d   1      24.963 -16.355  -1.426  0.00  0.00     0.042 A 
ATOM     27  C   UNL d   1      26.273 -16.782  -1.190  0.00  0.00     0.059 A 
BRANCH  26  28
ATOM     28  N   UNL d   1      24.731 -15.228  -2.273  0.00  0.00    -0.326 N 
ATOM     29  C   UNL d   1      25.498 -14.942  -3.411  0.00  0.00     0.226 C 
ATOM     30  O   UNL d   1      26.441 -15.570  -3.840  0.00  0.00    -0.273 OA
ATOM     31  H   UNL d   1      23.966 -14.615  -2.038  0.00  0.00     0.169 HD
BRANCH  29  32
ATOM     32  C   UNL d   1      25.106 -13.748  -4.214  0.00  0.00     0.078 A 
ATOM     33  C   UNL d   1      25.525 -12.385  -3.683  0.00  0.00     0.015 A 
ATOM     34  C   UNL d   1      26.237 -12.963  -4.870  0.00  0.00     0.015 A 
ENDBRANCH  29  32
ENDBRANCH  26  28
ENDBRANCH  19  21
ENDBRANCH   1  19
TORSDOF 9
ENDMDL
