MODEL 1
REMARK VINA RESULT:    -9.166      0.000      0.000
REMARK INTER + INTRA:         -13.180
REMARK INTER:                 -10.658
REMARK INTRA:                  -2.523
REMARK CONF_INDEPENDENT:        1.492
REMARK UNBOUND:                -2.523
REMARK  5 active torsions:
REMARK  status: ('A' for Active; 'I' for Inactive)
REMARK       I    between atoms: C_2  and  N_3 
REMARK       I    between atoms: C_2  and  N_26 
REMARK    1  A    between atoms: N_3  and  C_4 
REMARK    2  A    between atoms: C_6  and  N_7 
REMARK       I    between atoms: N_7  and  C_8 
REMARK    3  A    between atoms: C_8  and  C_10 
REMARK    4  A    between atoms: C_19  and  N_20 
REMARK    5  A    between atoms: N_26  and  C_27 
ROOT
ATOM      1  C   UNL d   1      25.799 -16.306  -1.411  0.00  0.00     0.065 C 
ATOM      2  C   UNL d   1      24.624 -17.046  -1.112  0.00  0.00     0.061 C 
ATOM      3  C   UNL d   1      24.604 -17.959  -0.042  0.00  0.00     0.037 C 
ATOM      4  C   UNL d   1      25.792 -18.201   0.630  0.00  0.00     0.032 C 
ATOM      5  C   UNL d   1      26.926 -17.450   0.371  0.00  0.00     0.034 C 
ATOM      6  C   UNL d   1      26.958 -16.472  -0.625  0.00  0.00     0.057 C 
ENDROOT
BRANCH   1   7
ATOM      7  N   UNL d   1      25.747 -15.376  -2.482  0.00  0.00    -0.307 N 
ATOM      8  C   UNL d   1      24.604 -14.779  -2.953  0.00  0.00     0.321 C 
ATOM      9  O   UNL d   1      23.492 -14.792  -2.424  0.00  0.00    -0.247 OA
ATOM     10  N   UNL d   1      24.711 -14.079  -4.118  0.00  0.00    -0.338 N 
ATOM     11  H   UNL d   1      23.817 -13.692  -4.398  0.00  0.00     0.164 HD
ATOM     12  H   UNL d   1      26.625 -14.988  -2.781  0.00  0.00     0.170 HD
BRANCH  10  13
ATOM     13  C   UNL d   1      25.882 -13.801  -4.929  0.00  0.00     0.086 C 
ATOM     14  C   UNL d   1      26.837 -12.856  -4.192  0.00  0.00     0.025 C 
ATOM     15  C   UNL d   1      28.061 -12.541  -5.033  0.00  0.00     0.002 C 
ATOM     16  C   UNL d   1      28.798 -13.814  -5.415  0.00  0.00     0.000 C 
ATOM     17  C   UNL d   1      27.871 -14.784  -6.144  0.00  0.00     0.002 C 
ATOM     18  C   UNL d   1      26.620 -15.095  -5.320  0.00  0.00     0.025 C 
ENDBRANCH  10  13
ENDBRANCH   1   7
BRANCH   6  19
ATOM     19  N   UNL d   1      28.104 -15.715  -0.720  0.00  0.00    -0.379 N 
ATOM     20  C   UNL d   1      28.123 -14.384  -0.130  0.00  0.00     0.123 C 
ATOM     21  C   UNL d   1      28.513 -13.400  -1.226  0.00  0.00     0.020 C 
ATOM     22  C   UNL d   1      29.831 -13.817  -1.891  0.00  0.00     0.003 C 
ATOM     23  C   UNL d   1      29.809 -15.283  -2.347  0.00  0.00     0.020 C 
ATOM     24  C   UNL d   1      29.372 -16.215  -1.215  0.00  0.00     0.123 C 
ENDBRANCH   6  19
BRANCH   3  25
ATOM     25  N   UNL d   1      23.400 -18.588   0.371  0.00  0.00    -0.323 N 
ATOM     26  C   UNL d   1      22.116 -18.169   0.026  0.00  0.00     0.257 C 
ATOM     27  O   UNL d   1      21.807 -17.213  -0.689  0.00  0.00    -0.267 OA
ATOM     28  H   UNL d   1      23.487 -19.431   0.925  0.00  0.00     0.169 HD
BRANCH  26  29
ATOM     29  C   UNL d   1      20.974 -18.950   0.538  0.00  0.00     0.054 A 
ATOM     30  C   UNL d   1      20.831 -19.058   1.939  0.00  0.00     0.019 A 
ATOM     31  C   UNL d   1      19.865 -19.902   2.489  0.00  0.00     0.001 A 
ATOM     32  C   UNL d   1      19.003 -20.598   1.646  0.00  0.00     0.002 A 
ATOM     33  C   UNL d   1      19.146 -20.499   0.261  0.00  0.00     0.025 A 
ATOM     34  C   UNL d   1      20.136 -19.690  -0.299  0.00  0.00     0.049 A 
ATOM     35 CL   UNL d   1      20.280 -19.700  -2.020  0.00  0.00    -0.083 Cl
ENDBRANCH  26  29
ENDBRANCH   3  25
TORSDOF 5
ENDMDL
MODEL 2
REMARK VINA RESULT:    -8.966      4.093      8.924
REMARK INTER + INTRA:         -12.122
REMARK INTER:                 -10.458
REMARK INTRA:                  -1.664
REMARK CONF_INDEPENDENT:        1.492
REMARK UNBOUND:                -1.664
REMARK  5 active torsions:
REMARK  status: ('A' for Active; 'I' for Inactive)
REMARK       I    between atoms: C_2  and  N_3 
REMARK       I    between atoms: C_2  and  N_26 
REMARK    1  A    between atoms: N_3  and  C_4 
REMARK    2  A    between atoms: C_6  and  N_7 
REMARK       I    between atoms: N_7  and  C_8 
REMARK    3  A    between atoms: C_8  and  C_10 
REMARK    4  A    between atoms: C_19  and  N_20 
REMARK    5  A    between atoms: N_26  and  C_27 
ROOT
ATOM      1  C   UNL d   1      26.478 -14.131  -1.523  0.00  0.00     0.065 C 
ATOM      2  C   UNL d   1      26.375 -12.906  -2.235  0.00  0.00     0.061 C 
ATOM      3  C   UNL d   1      25.784 -12.865  -3.511  0.00  0.00     0.037 C 
ATOM      4  C   UNL d   1      25.418 -14.066  -4.098  0.00  0.00     0.032 C 
ATOM      5  C   UNL d   1      25.475 -15.255  -3.390  0.00  0.00     0.034 C 
ATOM      6  C   UNL d   1      25.974 -15.320  -2.088  0.00  0.00     0.057 C 
ENDROOT
BRANCH   1   7
ATOM      7  N   UNL d   1      27.054 -14.103  -0.226  0.00  0.00    -0.307 N 
ATOM      8  C   UNL d   1      28.187 -14.782   0.146  0.00  0.00     0.321 C 
ATOM      9  O   UNL d   1      28.984 -15.355  -0.598  0.00  0.00    -0.247 OA
ATOM     10  N   UNL d   1      28.477 -14.810   1.479  0.00  0.00    -0.338 N 
ATOM     11  H   UNL d   1      29.316 -15.348   1.662  0.00  0.00     0.164 HD
ATOM     12  H   UNL d   1      26.719 -13.389   0.397  0.00  0.00     0.170 HD
BRANCH  10  13
ATOM     13  C   UNL d   1      27.798 -14.168   2.589  0.00  0.00     0.086 C 
ATOM     14  C   UNL d   1      28.190 -14.824   3.916  0.00  0.00     0.025 C 
ATOM     15  C   UNL d   1      27.475 -14.175   5.088  0.00  0.00     0.002 C 
ATOM     16  C   UNL d   1      27.777 -12.687   5.147  0.00  0.00     0.000 C 
ATOM     17  C   UNL d   1      27.406 -12.001   3.835  0.00  0.00     0.002 C 
ATOM     18  C   UNL d   1      28.100 -12.658   2.640  0.00  0.00     0.025 C 
ENDBRANCH  10  13
ENDBRANCH   1   7
BRANCH   6  19
ATOM     19  N   UNL d   1      25.883 -16.535  -1.445  0.00  0.00    -0.379 N 
ATOM     20  C   UNL d   1      24.610 -17.242  -1.448  0.00  0.00     0.123 C 
ATOM     21  C   UNL d   1      24.230 -17.513   0.002  0.00  0.00     0.020 C 
ATOM     22  C   UNL d   1      25.361 -18.247   0.734  0.00  0.00     0.003 C 
ATOM     23  C   UNL d   1      26.713 -17.540   0.565  0.00  0.00     0.020 C 
ATOM     24  C   UNL d   1      27.018 -17.261  -0.908  0.00  0.00     0.123 C 
ENDBRANCH   6  19
BRANCH   3  25
ATOM     25  N   UNL d   1      25.528 -11.633  -4.168  0.00  0.00    -0.323 N 
ATOM     26  C   UNL d   1      26.080 -10.404  -3.814  0.00  0.00     0.257 C 
ATOM     27  O   UNL d   1      26.877 -10.176  -2.900  0.00  0.00    -0.267 OA
ATOM     28  H   UNL d   1      24.929 -11.662  -4.985  0.00  0.00     0.169 HD
BRANCH  26  29
ATOM     29  C   UNL d   1      25.711  -9.222  -4.617  0.00  0.00     0.054 A 
ATOM     30  C   UNL d   1      25.161  -8.115  -3.935  0.00  0.00     0.019 A 
ATOM     31  C   UNL d   1      24.651  -7.027  -4.647  0.00  0.00     0.001 A 
ATOM     32  C   UNL d   1      24.739  -7.015  -6.036  0.00  0.00     0.002 A 
ATOM     33  C   UNL d   1      25.276  -8.112  -6.714  0.00  0.00     0.025 A 
ATOM     34  C   UNL d   1      25.749  -9.222  -6.013  0.00  0.00     0.049 A 
ATOM     35 CL   UNL d   1      26.319 -10.558  -6.948  0.00  0.00    -0.083 Cl
ENDBRANCH  26  29
ENDBRANCH   3  25
TORSDOF 5
ENDMDL
MODEL 3
REMARK VINA RESULT:    -8.965      4.899      8.144
REMARK INTER + INTRA:         -12.565
REMARK INTER:                 -10.457
REMARK INTRA:                  -2.108
REMARK CONF_INDEPENDENT:        1.492
REMARK UNBOUND:                -2.108
REMARK  5 active torsions:
REMARK  status: ('A' for Active; 'I' for Inactive)
REMARK       I    between atoms: C_2  and  N_3 
REMARK       I    between atoms: C_2  and  N_26 
REMARK    1  A    between atoms: N_3  and  C_4 
REMARK    2  A    between atoms: C_6  and  N_7 
REMARK       I    between atoms: N_7  and  C_8 
REMARK    3  A    between atoms: C_8  and  C_10 
REMARK    4  A    between atoms: C_19  and  N_20 
REMARK    5  A    between atoms: N_26  and  C_27 
ROOT
ATOM      1  C   UNL d   1      27.367 -15.088   0.656  0.00  0.00     0.065 C 
ATOM      2  C   UNL d   1      27.781 -14.806   1.986  0.00  0.00     0.061 C 
ATOM      3  C   UNL d   1      28.643 -13.729   2.257  0.00  0.00     0.037 C 
ATOM      4  C   UNL d   1      29.170 -13.030   1.182  0.00  0.00     0.032 C 
ATOM      5  C   UNL d   1      28.735 -13.272  -0.111  0.00  0.00     0.034 C 
ATOM      6  C   UNL d   1      27.811 -14.276  -0.408  0.00  0.00     0.057 C 
ENDROOT
BRANCH   1   7
ATOM      7  N   UNL d   1      26.470 -16.168   0.450  0.00  0.00    -0.307 N 
ATOM      8  C   UNL d   1      26.783 -17.339  -0.195  0.00  0.00     0.321 C 
ATOM      9  O   UNL d   1      27.905 -17.726  -0.522  0.00  0.00    -0.247 OA
ATOM     10  N   UNL d   1      25.746 -18.175  -0.488  0.00  0.00    -0.338 N 
ATOM     11  H   UNL d   1      26.067 -19.001  -0.980  0.00  0.00     0.164 HD
ATOM     12  H   UNL d   1      25.616 -16.148   0.980  0.00  0.00     0.170 HD
BRANCH  10  13
ATOM     13  C   UNL d   1      24.337 -18.054  -0.162  0.00  0.00     0.086 C 
ATOM     14  C   UNL d   1      23.717 -16.850  -0.880  0.00  0.00     0.025 C 
ATOM     15  C   UNL d   1      22.247 -16.698  -0.537  0.00  0.00     0.002 C 
ATOM     16  C   UNL d   1      21.475 -17.957  -0.895  0.00  0.00     0.000 C 
ATOM     17  C   UNL d   1      22.072 -19.180  -0.203  0.00  0.00     0.002 C 
ATOM     18  C   UNL d   1      23.561 -19.335  -0.520  0.00  0.00     0.025 C 
ENDBRANCH  10  13
ENDBRANCH   1   7
BRANCH   6  19
ATOM     19  N   UNL d   1      27.372 -14.354  -1.711  0.00  0.00    -0.379 N 
ATOM     20  C   UNL d   1      26.893 -13.147  -2.368  0.00  0.00     0.123 C 
ATOM     21  C   UNL d   1      25.481 -13.425  -2.871  0.00  0.00     0.020 C 
ATOM     22  C   UNL d   1      25.454 -14.680  -3.751  0.00  0.00     0.003 C 
ATOM     23  C   UNL d   1      26.121 -15.882  -3.068  0.00  0.00     0.020 C 
ATOM     24  C   UNL d   1      27.517 -15.527  -2.551  0.00  0.00     0.123 C 
ENDBRANCH   6  19
BRANCH   3  25
ATOM     25  N   UNL d   1      28.939 -13.335   3.588  0.00  0.00    -0.323 N 
ATOM     26  C   UNL d   1      28.138 -13.594   4.699  0.00  0.00     0.257 C 
ATOM     27  O   UNL d   1      27.067 -14.204   4.724  0.00  0.00    -0.267 OA
ATOM     28  H   UNL d   1      29.824 -12.867   3.745  0.00  0.00     0.169 HD
BRANCH  26  29
ATOM     29  C   UNL d   1      28.607 -13.119   6.015  0.00  0.00     0.054 A 
ATOM     30  C   UNL d   1      28.920 -14.093   6.988  0.00  0.00     0.019 A 
ATOM     31  C   UNL d   1      29.223 -13.714   8.297  0.00  0.00     0.001 A 
ATOM     32  C   UNL d   1      29.269 -12.363   8.626  0.00  0.00     0.002 A 
ATOM     33  C   UNL d   1      28.953 -11.397   7.669  0.00  0.00     0.025 A 
ATOM     34  C   UNL d   1      28.607 -11.768   6.368  0.00  0.00     0.049 A 
ATOM     35 CL   UNL d   1      28.156 -10.502   5.283  0.00  0.00    -0.083 Cl
ENDBRANCH  26  29
ENDBRANCH   3  25
TORSDOF 5
ENDMDL
MODEL 4
REMARK VINA RESULT:    -8.827      3.874      9.321
REMARK INTER + INTRA:         -12.069
REMARK INTER:                 -10.319
REMARK INTRA:                  -1.750
REMARK CONF_INDEPENDENT:        1.492
REMARK UNBOUND:                -1.750
REMARK  5 active torsions:
REMARK  status: ('A' for Active; 'I' for Inactive)
REMARK       I    between atoms: C_2  and  N_3 
REMARK       I    between atoms: C_2  and  N_26 
REMARK    1  A    between atoms: N_3  and  C_4 
REMARK    2  A    between atoms: C_6  and  N_7 
REMARK       I    between atoms: N_7  and  C_8 
REMARK    3  A    between atoms: C_8  and  C_10 
REMARK    4  A    between atoms: C_19  and  N_20 
REMARK    5  A    between atoms: N_26  and  C_27 
ROOT
ATOM      1  C   UNL d   1      26.987 -14.923  -1.612  0.00  0.00     0.065 C 
ATOM      2  C   UNL d   1      27.622 -14.221  -2.671  0.00  0.00     0.061 C 
ATOM      3  C   UNL d   1      27.178 -14.369  -3.997  0.00  0.00     0.037 C 
ATOM      4  C   UNL d   1      26.189 -15.304  -4.253  0.00  0.00     0.032 C 
ATOM      5  C   UNL d   1      25.536 -15.956  -3.219  0.00  0.00     0.034 C 
ATOM      6  C   UNL d   1      25.891 -15.768  -1.882  0.00  0.00     0.057 C 
ENDROOT
BRANCH   1   7
ATOM      7  N   UNL d   1      27.458 -14.708  -0.290  0.00  0.00    -0.307 N 
ATOM      8  C   UNL d   1      28.545 -15.333   0.269  0.00  0.00     0.321 C 
ATOM      9  O   UNL d   1      29.388 -16.015  -0.316  0.00  0.00    -0.247 OA
ATOM     10  N   UNL d   1      28.727 -15.167   1.611  0.00  0.00    -0.338 N 
ATOM     11  H   UNL d   1      29.539 -15.678   1.938  0.00  0.00     0.164 HD
ATOM     12  H   UNL d   1      27.088 -13.908   0.193  0.00  0.00     0.170 HD
BRANCH  10  13
ATOM     13  C   UNL d   1      27.975 -14.362   2.555  0.00  0.00     0.086 C 
ATOM     14  C   UNL d   1      28.241 -14.825   3.992  0.00  0.00     0.025 C 
ATOM     15  C   UNL d   1      27.448 -14.004   4.993  0.00  0.00     0.002 C 
ATOM     16  C   UNL d   1      27.779 -12.527   4.864  0.00  0.00     0.000 C 
ATOM     17  C   UNL d   1      27.534 -12.034   3.440  0.00  0.00     0.002 C 
ATOM     18  C   UNL d   1      28.308 -12.865   2.415  0.00  0.00     0.025 C 
ENDBRANCH  10  13
ENDBRANCH   1   7
BRANCH   6  19
ATOM     19  N   UNL d   1      25.104 -16.386  -0.935  0.00  0.00    -0.379 N 
ATOM     20  C   UNL d   1      25.744 -17.052   0.190  0.00  0.00     0.123 C 
ATOM     21  C   UNL d   1      25.253 -18.494   0.211  0.00  0.00     0.020 C 
ATOM     22  C   UNL d   1      23.721 -18.549   0.230  0.00  0.00     0.003 C 
ATOM     23  C   UNL d   1      23.098 -17.695  -0.883  0.00  0.00     0.020 C 
ATOM     24  C   UNL d   1      23.659 -16.271  -0.876  0.00  0.00     0.123 C 
ENDBRANCH   6  19
BRANCH   3  25
ATOM     25  N   UNL d   1      27.693 -13.558  -5.043  0.00  0.00    -0.323 N 
ATOM     26  C   UNL d   1      28.143 -14.028  -6.276  0.00  0.00     0.257 C 
ATOM     27  O   UNL d   1      28.162 -15.196  -6.670  0.00  0.00    -0.267 OA
ATOM     28  H   UNL d   1      27.691 -12.556  -4.893  0.00  0.00     0.169 HD
BRANCH  26  29
ATOM     29  C   UNL d   1      28.637 -13.039  -7.254  0.00  0.00     0.054 A 
ATOM     30  C   UNL d   1      27.700 -12.131  -7.795  0.00  0.00     0.019 A 
ATOM     31  C   UNL d   1      28.066 -11.272  -8.832  0.00  0.00     0.001 A 
ATOM     32  C   UNL d   1      29.379 -11.276  -9.295  0.00  0.00     0.002 A 
ATOM     33  C   UNL d   1      30.305 -12.177  -8.768  0.00  0.00     0.025 A 
ATOM     34  C   UNL d   1      29.938 -13.070  -7.759  0.00  0.00     0.049 A 
ATOM     35 CL   UNL d   1      31.136 -14.197  -7.232  0.00  0.00    -0.083 Cl
ENDBRANCH  26  29
ENDBRANCH   3  25
TORSDOF 5
ENDMDL
MODEL 5
REMARK VINA RESULT:    -8.431      5.349      6.635
REMARK INTER + INTRA:         -11.647
REMARK INTER:                  -9.922
REMARK INTRA:                  -1.725
REMARK CONF_INDEPENDENT:        1.492
REMARK UNBOUND:                -1.725
REMARK  5 active torsions:
REMARK  status: ('A' for Active; 'I' for Inactive)
REMARK       I    between atoms: C_2  and  N_3 
REMARK       I    between atoms: C_2  and  N_26 
REMARK    1  A    between atoms: N_3  and  C_4 
REMARK    2  A    between atoms: C_6  and  N_7 
REMARK       I    between atoms: N_7  and  C_8 
REMARK    3  A    between atoms: C_8  and  C_10 
REMARK    4  A    between atoms: C_19  and  N_20 
REMARK    5  A    between atoms: N_26  and  C_27 
ROOT
ATOM      1  C   UNL d   1      27.471 -14.320  -1.943  0.00  0.00     0.065 C 
ATOM      2  C   UNL d   1      27.557 -14.096  -0.543  0.00  0.00     0.061 C 
ATOM      3  C   UNL d   1      28.213 -15.017   0.292  0.00  0.00     0.037 C 
ATOM      4  C   UNL d   1      28.664 -16.201  -0.271  0.00  0.00     0.032 C 
ATOM      5  C   UNL d   1      28.622 -16.403  -1.640  0.00  0.00     0.034 C 
ATOM      6  C   UNL d   1      28.057 -15.469  -2.512  0.00  0.00     0.057 C 
ENDROOT
BRANCH   1   7
ATOM      7  N   UNL d   1      26.824 -13.338  -2.738  0.00  0.00    -0.307 N 
ATOM      8  C   UNL d   1      25.599 -13.493  -3.338  0.00  0.00     0.321 C 
ATOM      9  O   UNL d   1      24.787 -14.398  -3.140  0.00  0.00    -0.247 OA
ATOM     10  N   UNL d   1      25.228 -12.534  -4.235  0.00  0.00    -0.338 N 
ATOM     11  H   UNL d   1      24.322 -12.740  -4.640  0.00  0.00     0.164 HD
ATOM     12  H   UNL d   1      27.202 -12.408  -2.695  0.00  0.00     0.170 HD
BRANCH  10  13
ATOM     13  C   UNL d   1      25.908 -11.311  -4.619  0.00  0.00     0.086 C 
ATOM     14  C   UNL d   1      25.596 -10.952  -6.075  0.00  0.00     0.025 C 
ATOM     15  C   UNL d   1      26.314  -9.684  -6.500  0.00  0.00     0.002 C 
ATOM     16  C   UNL d   1      25.936  -8.521  -5.596  0.00  0.00     0.000 C 
ATOM     17  C   UNL d   1      26.227  -8.848  -4.134  0.00  0.00     0.002 C 
ATOM     18  C   UNL d   1      25.529 -10.138  -3.696  0.00  0.00     0.025 C 
ENDBRANCH  10  13
ENDBRANCH   1   7
BRANCH   6  19
ATOM     19  N   UNL d   1      28.168 -15.728  -3.860  0.00  0.00    -0.379 N 
ATOM     20  C   UNL d   1      29.379 -16.364  -4.360  0.00  0.00     0.123 C 
ATOM     21  C   UNL d   1      29.956 -15.464  -5.446  0.00  0.00     0.020 C 
ATOM     22  C   UNL d   1      28.906 -15.166  -6.523  0.00  0.00     0.003 C 
ATOM     23  C   UNL d   1      27.591 -14.651  -5.921  0.00  0.00     0.020 C 
ATOM     24  C   UNL d   1      27.084 -15.575  -4.811  0.00  0.00     0.123 C 
ENDBRANCH   6  19
BRANCH   3  25
ATOM     25  N   UNL d   1      28.449 -14.735   1.664  0.00  0.00    -0.323 N 
ATOM     26  C   UNL d   1      27.653 -13.917   2.464  0.00  0.00     0.257 C 
ATOM     27  O   UNL d   1      26.625 -13.320   2.135  0.00  0.00    -0.267 OA
ATOM     28  H   UNL d   1      29.235 -15.201   2.102  0.00  0.00     0.169 HD
BRANCH  26  29
ATOM     29  C   UNL d   1      28.042 -13.742   3.876  0.00  0.00     0.054 A 
ATOM     30  C   UNL d   1      28.304 -14.906   4.631  0.00  0.00     0.019 A 
ATOM     31  C   UNL d   1      28.529 -14.823   6.006  0.00  0.00     0.001 A 
ATOM     32  C   UNL d   1      28.548 -13.575   6.623  0.00  0.00     0.002 A 
ATOM     33  C   UNL d   1      28.282 -12.422   5.881  0.00  0.00     0.025 A 
ATOM     34  C   UNL d   1      28.015 -12.500   4.513  0.00  0.00     0.049 A 
ATOM     35 CL   UNL d   1      27.620 -11.025   3.705  0.00  0.00    -0.083 Cl
ENDBRANCH  26  29
ENDBRANCH   3  25
TORSDOF 5
ENDMDL
MODEL 6
REMARK VINA RESULT:    -8.357      3.977      8.982
REMARK INTER + INTRA:         -11.802
REMARK INTER:                  -9.848
REMARK INTRA:                  -1.954
REMARK CONF_INDEPENDENT:        1.492
REMARK UNBOUND:                -1.954
REMARK  5 active torsions:
REMARK  status: ('A' for Active; 'I' for Inactive)
REMARK       I    between atoms: C_2  and  N_3 
REMARK       I    between atoms: C_2  and  N_26 
REMARK    1  A    between atoms: N_3  and  C_4 
REMARK    2  A    between atoms: C_6  and  N_7 
REMARK       I    between atoms: N_7  and  C_8 
REMARK    3  A    between atoms: C_8  and  C_10 
REMARK    4  A    between atoms: C_19  and  N_20 
REMARK    5  A    between atoms: N_26  and  C_27 
ROOT
ATOM      1  C   UNL d   1      27.178 -14.421  -4.372  0.00  0.00     0.065 C 
ATOM      2  C   UNL d   1      27.955 -15.301  -5.172  0.00  0.00     0.061 C 
ATOM      3  C   UNL d   1      28.780 -14.802  -6.195  0.00  0.00     0.037 C 
ATOM      4  C   UNL d   1      28.720 -13.446  -6.477  0.00  0.00     0.032 C 
ATOM      5  C   UNL d   1      27.999 -12.579  -5.672  0.00  0.00     0.034 C 
ATOM      6  C   UNL d   1      27.237 -13.030  -4.592  0.00  0.00     0.057 C 
ENDROOT
BRANCH   1   7
ATOM      7  N   UNL d   1      26.389 -14.982  -3.334  0.00  0.00    -0.307 N 
ATOM      8  C   UNL d   1      25.049 -14.751  -3.151  0.00  0.00     0.321 C 
ATOM      9  O   UNL d   1      24.279 -14.197  -3.937  0.00  0.00    -0.247 OA
ATOM     10  N   UNL d   1      24.501 -15.200  -1.985  0.00  0.00    -0.338 N 
ATOM     11  H   UNL d   1      23.516 -14.969  -1.928  0.00  0.00     0.164 HD
ATOM     12  H   UNL d   1      26.800 -15.744  -2.822  0.00  0.00     0.170 HD
BRANCH  10  13
ATOM     13  C   UNL d   1      25.108 -15.958  -0.907  0.00  0.00     0.086 C 
ATOM     14  C   UNL d   1      25.184 -17.445  -1.268  0.00  0.00     0.025 C 
ATOM     15  C   UNL d   1      25.802 -18.258  -0.144  0.00  0.00     0.002 C 
ATOM     16  C   UNL d   1      27.192 -17.744   0.193  0.00  0.00     0.000 C 
ATOM     17  C   UNL d   1      27.154 -16.260   0.550  0.00  0.00     0.002 C 
ATOM     18  C   UNL d   1      26.513 -15.429  -0.563  0.00  0.00     0.025 C 
ENDBRANCH  10  13
ENDBRANCH   1   7
BRANCH   6  19
ATOM     19  N   UNL d   1      26.650 -12.069  -3.799  0.00  0.00    -0.379 N 
ATOM     20  C   UNL d   1      25.531 -11.303  -4.329  0.00  0.00     0.123 C 
ATOM     21  C   UNL d   1      25.889  -9.826  -4.219  0.00  0.00     0.020 C 
ATOM     22  C   UNL d   1      26.280  -9.466  -2.781  0.00  0.00     0.003 C 
ATOM     23  C   UNL d   1      27.350 -10.411  -2.217  0.00  0.00     0.020 C 
ATOM     24  C   UNL d   1      26.950 -11.877  -2.393  0.00  0.00     0.123 C 
ENDBRANCH   6  19
BRANCH   3  25
ATOM     25  N   UNL d   1      29.682 -15.646  -6.896  0.00  0.00    -0.323 N 
ATOM     26  C   UNL d   1      30.559 -16.552  -6.303  0.00  0.00     0.257 C 
ATOM     27  O   UNL d   1      30.695 -16.785  -5.100  0.00  0.00    -0.267 OA
ATOM     28  H   UNL d   1      29.652 -15.613  -7.908  0.00  0.00     0.169 HD
BRANCH  26  29
ATOM     29  C   UNL d   1      31.421 -17.360  -7.187  0.00  0.00     0.054 A 
ATOM     30  C   UNL d   1      32.193 -16.674  -8.150  0.00  0.00     0.019 A 
ATOM     31  C   UNL d   1      32.913 -17.382  -9.114  0.00  0.00     0.001 A 
ATOM     32  C   UNL d   1      32.909 -18.774  -9.088  0.00  0.00     0.002 A 
ATOM     33  C   UNL d   1      32.140 -19.455  -8.143  0.00  0.00     0.025 A 
ATOM     34  C   UNL d   1      31.384 -18.755  -7.200  0.00  0.00     0.049 A 
ATOM     35 CL   UNL d   1      30.406 -19.690  -6.126  0.00  0.00    -0.083 Cl
ENDBRANCH  26  29
ENDBRANCH   3  25
TORSDOF 5
ENDMDL
MODEL 7
REMARK VINA RESULT:    -8.262      4.215      6.756
REMARK INTER + INTRA:         -11.977
REMARK INTER:                  -9.753
REMARK INTRA:                  -2.224
REMARK CONF_INDEPENDENT:        1.492
REMARK UNBOUND:                -2.224
REMARK  5 active torsions:
REMARK  status: ('A' for Active; 'I' for Inactive)
REMARK       I    between atoms: C_2  and  N_3 
REMARK       I    between atoms: C_2  and  N_26 
REMARK    1  A    between atoms: N_3  and  C_4 
REMARK    2  A    between atoms: C_6  and  N_7 
REMARK       I    between atoms: N_7  and  C_8 
REMARK    3  A    between atoms: C_8  and  C_10 
REMARK    4  A    between atoms: C_19  and  N_20 
REMARK    5  A    between atoms: N_26  and  C_27 
ROOT
ATOM      1  C   UNL d   1      26.122 -11.970  -5.335  0.00  0.00     0.065 C 
ATOM      2  C   UNL d   1      25.540 -12.995  -4.543  0.00  0.00     0.061 C 
ATOM      3  C   UNL d   1      26.099 -14.284  -4.513  0.00  0.00     0.037 C 
ATOM      4  C   UNL d   1      27.157 -14.555  -5.367  0.00  0.00     0.032 C 
ATOM      5  C   UNL d   1      27.755 -13.549  -6.106  0.00  0.00     0.034 C 
ATOM      6  C   UNL d   1      27.281 -12.235  -6.093  0.00  0.00     0.057 C 
ENDROOT
BRANCH   1   7
ATOM      7  N   UNL d   1      25.530 -10.680  -5.299  0.00  0.00    -0.307 N 
ATOM      8  C   UNL d   1      25.302  -9.950  -4.159  0.00  0.00     0.321 C 
ATOM      9  O   UNL d   1      25.732 -10.189  -3.030  0.00  0.00    -0.247 OA
ATOM     10  N   UNL d   1      24.536  -8.829  -4.289  0.00  0.00    -0.338 N 
ATOM     11  H   UNL d   1      24.405  -8.367  -3.397  0.00  0.00     0.164 HD
ATOM     12  H   UNL d   1      25.455 -10.197  -6.177  0.00  0.00     0.170 HD
BRANCH  10  13
ATOM     13  C   UNL d   1      23.963  -8.232  -5.481  0.00  0.00     0.086 C 
ATOM     14  C   UNL d   1      22.896  -7.198  -5.108  0.00  0.00     0.025 C 
ATOM     15  C   UNL d   1      22.272  -6.575  -6.344  0.00  0.00     0.002 C 
ATOM     16  C   UNL d   1      23.333  -5.921  -7.213  0.00  0.00     0.000 C 
ATOM     17  C   UNL d   1      24.419  -6.923  -7.598  0.00  0.00     0.002 C 
ATOM     18  C   UNL d   1      25.042  -7.578  -6.363  0.00  0.00     0.025 C 
ENDBRANCH  10  13
ENDBRANCH   1   7
BRANCH   6  19
ATOM     19  N   UNL d   1      28.019 -11.299  -6.782  0.00  0.00    -0.379 N 
ATOM     20  C   UNL d   1      28.769 -10.301  -6.034  0.00  0.00     0.123 C 
ATOM     21  C   UNL d   1      28.325  -8.928  -6.524  0.00  0.00     0.020 C 
ATOM     22  C   UNL d   1      28.470  -8.820  -8.047  0.00  0.00     0.003 C 
ATOM     23  C   UNL d   1      27.797  -9.990  -8.777  0.00  0.00     0.020 C 
ATOM     24  C   UNL d   1      28.253 -11.338  -8.213  0.00  0.00     0.123 C 
ENDBRANCH   6  19
BRANCH   3  25
ATOM     25  N   UNL d   1      25.630 -15.273  -3.608  0.00  0.00    -0.323 N 
ATOM     26  C   UNL d   1      25.576 -15.133  -2.223  0.00  0.00     0.257 C 
ATOM     27  O   UNL d   1      25.905 -14.150  -1.556  0.00  0.00    -0.267 OA
ATOM     28  H   UNL d   1      25.267 -16.130  -4.010  0.00  0.00     0.169 HD
BRANCH  26  29
ATOM     29  C   UNL d   1      25.047 -16.263  -1.434  0.00  0.00     0.054 A 
ATOM     30  C   UNL d   1      23.647 -16.347  -1.270  0.00  0.00     0.019 A 
ATOM     31  C   UNL d   1      23.091 -17.299  -0.414  0.00  0.00     0.001 A 
ATOM     32  C   UNL d   1      23.923 -18.205   0.236  0.00  0.00     0.002 A 
ATOM     33  C   UNL d   1      25.308 -18.121   0.082  0.00  0.00     0.025 A 
ATOM     34  C   UNL d   1      25.877 -17.145  -0.739  0.00  0.00     0.049 A 
ATOM     35 CL   UNL d   1      27.601 -17.075  -0.798  0.00  0.00    -0.083 Cl
ENDBRANCH  26  29
ENDBRANCH   3  25
TORSDOF 5
ENDMDL
MODEL 8
REMARK VINA RESULT:    -8.223      4.801      8.321
REMARK INTER + INTRA:         -11.983
REMARK INTER:                  -9.715
REMARK INTRA:                  -2.268
REMARK CONF_INDEPENDENT:        1.492
REMARK UNBOUND:                -2.268
REMARK  5 active torsions:
REMARK  status: ('A' for Active; 'I' for Inactive)
REMARK       I    between atoms: C_2  and  N_3 
REMARK       I    between atoms: C_2  and  N_26 
REMARK    1  A    between atoms: N_3  and  C_4 
REMARK    2  A    between atoms: C_6  and  N_7 
REMARK       I    between atoms: N_7  and  C_8 
REMARK    3  A    between atoms: C_8  and  C_10 
REMARK    4  A    between atoms: C_19  and  N_20 
REMARK    5  A    between atoms: N_26  and  C_27 
ROOT
ATOM      1  C   UNL d   1      27.327 -14.769   0.587  0.00  0.00     0.065 C 
ATOM      2  C   UNL d   1      27.720 -14.507   1.927  0.00  0.00     0.061 C 
ATOM      3  C   UNL d   1      28.539 -13.406   2.232  0.00  0.00     0.037 C 
ATOM      4  C   UNL d   1      29.046 -12.659   1.180  0.00  0.00     0.032 C 
ATOM      5  C   UNL d   1      28.629 -12.883  -0.122  0.00  0.00     0.034 C 
ATOM      6  C   UNL d   1      27.747 -13.913  -0.452  0.00  0.00     0.057 C 
ENDROOT
BRANCH   1   7
ATOM      7  N   UNL d   1      26.472 -15.877   0.346  0.00  0.00    -0.307 N 
ATOM      8  C   UNL d   1      26.812 -16.987  -0.386  0.00  0.00     0.321 C 
ATOM      9  O   UNL d   1      27.937 -17.297  -0.781  0.00  0.00    -0.247 OA
ATOM     10  N   UNL d   1      25.803 -17.853  -0.693  0.00  0.00    -0.338 N 
ATOM     11  H   UNL d   1      26.142 -18.630  -1.250  0.00  0.00     0.164 HD
ATOM     12  H   UNL d   1      25.642 -15.932   0.908  0.00  0.00     0.170 HD
BRANCH  10  13
ATOM     13  C   UNL d   1      24.405 -17.822  -0.306  0.00  0.00     0.086 C 
ATOM     14  C   UNL d   1      23.653 -16.735  -1.080  0.00  0.00     0.025 C 
ATOM     15  C   UNL d   1      22.192 -16.676  -0.674  0.00  0.00     0.002 C 
ATOM     16  C   UNL d   1      21.515 -18.019  -0.896  0.00  0.00     0.000 C 
ATOM     17  C   UNL d   1      22.245 -19.130  -0.144  0.00  0.00     0.002 C 
ATOM     18  C   UNL d   1      23.726 -19.187  -0.524  0.00  0.00     0.025 C 
ENDBRANCH  10  13
ENDBRANCH   1   7
BRANCH   6  19
ATOM     19  N   UNL d   1      27.320 -13.973  -1.760  0.00  0.00    -0.379 N 
ATOM     20  C   UNL d   1      26.064 -13.332  -2.123  0.00  0.00     0.123 C 
ATOM     21  C   UNL d   1      25.180 -14.387  -2.778  0.00  0.00     0.020 C 
ATOM     22  C   UNL d   1      25.910 -15.061  -3.946  0.00  0.00     0.003 C 
ATOM     23  C   UNL d   1      27.299 -15.574  -3.543  0.00  0.00     0.020 C 
ATOM     24  C   UNL d   1      28.121 -14.481  -2.857  0.00  0.00     0.123 C 
ENDBRANCH   6  19
BRANCH   3  25
ATOM     25  N   UNL d   1      28.810 -13.036   3.576  0.00  0.00    -0.323 N 
ATOM     26  C   UNL d   1      28.182 -12.002   4.267  0.00  0.00     0.257 C 
ATOM     27  O   UNL d   1      27.295 -11.253   3.850  0.00  0.00    -0.267 OA
ATOM     28  H   UNL d   1      29.484 -13.599   4.082  0.00  0.00     0.169 HD
BRANCH  26  29
ATOM     29  C   UNL d   1      28.581 -11.763   5.667  0.00  0.00     0.054 A 
ATOM     30  C   UNL d   1      28.892 -10.437   6.040  0.00  0.00     0.019 A 
ATOM     31  C   UNL d   1      29.420 -10.163   7.303  0.00  0.00     0.001 A 
ATOM     32  C   UNL d   1      29.587 -11.200   8.216  0.00  0.00     0.002 A 
ATOM     33  C   UNL d   1      29.287 -12.513   7.848  0.00  0.00     0.025 A 
ATOM     34  C   UNL d   1      28.798 -12.803   6.573  0.00  0.00     0.049 A 
ATOM     35 CL   UNL d   1      28.535 -14.467   6.191  0.00  0.00    -0.083 Cl
ENDBRANCH  26  29
ENDBRANCH   3  25
TORSDOF 5
ENDMDL
MODEL 9
REMARK VINA RESULT:    -7.768      4.860      9.123
REMARK INTER + INTRA:         -11.408
REMARK INTER:                  -9.259
REMARK INTRA:                  -2.149
REMARK CONF_INDEPENDENT:        1.492
REMARK UNBOUND:                -2.149
REMARK  5 active torsions:
REMARK  status: ('A' for Active; 'I' for Inactive)
REMARK       I    between atoms: C_2  and  N_3 
REMARK       I    between atoms: C_2  and  N_26 
REMARK    1  A    between atoms: N_3  and  C_4 
REMARK    2  A    between atoms: C_6  and  N_7 
REMARK       I    between atoms: N_7  and  C_8 
REMARK    3  A    between atoms: C_8  and  C_10 
REMARK    4  A    between atoms: C_19  and  N_20 
REMARK    5  A    between atoms: N_26  and  C_27 
ROOT
ATOM      1  C   UNL d   1      26.687 -12.755  -3.504  0.00  0.00     0.065 C 
ATOM      2  C   UNL d   1      25.788 -11.665  -3.362  0.00  0.00     0.061 C 
ATOM      3  C   UNL d   1      26.121 -10.391  -3.854  0.00  0.00     0.037 C 
ATOM      4  C   UNL d   1      27.394 -10.204  -4.369  0.00  0.00     0.032 C 
ATOM      5  C   UNL d   1      28.257 -11.273  -4.551  0.00  0.00     0.034 C 
ATOM      6  C   UNL d   1      27.924 -12.570  -4.155  0.00  0.00     0.057 C 
ENDROOT
BRANCH   1   7
ATOM      7  N   UNL d   1      26.280 -14.025  -3.017  0.00  0.00    -0.307 N 
ATOM      8  C   UNL d   1      25.704 -15.013  -3.777  0.00  0.00     0.321 C 
ATOM      9  O   UNL d   1      25.623 -15.047  -5.006  0.00  0.00    -0.247 OA
ATOM     10  N   UNL d   1      25.185 -16.081  -3.106  0.00  0.00    -0.338 N 
ATOM     11  H   UNL d   1      24.765 -16.747  -3.744  0.00  0.00     0.164 HD
ATOM     12  H   UNL d   1      26.613 -14.282  -2.104  0.00  0.00     0.170 HD
BRANCH  10  13
ATOM     13  C   UNL d   1      25.201 -16.380  -1.687  0.00  0.00     0.086 C 
ATOM     14  C   UNL d   1      24.235 -17.526  -1.365  0.00  0.00     0.025 C 
ATOM     15  C   UNL d   1      24.226 -17.842   0.120  0.00  0.00     0.002 C 
ATOM     16  C   UNL d   1      25.621 -18.200   0.605  0.00  0.00     0.000 C 
ATOM     17  C   UNL d   1      26.612 -17.082   0.292  0.00  0.00     0.002 C 
ATOM     18  C   UNL d   1      26.617 -16.735  -1.198  0.00  0.00     0.025 C 
ENDBRANCH  10  13
ENDBRANCH   1   7
BRANCH   6  19
ATOM     19  N   UNL d   1      28.813 -13.570  -4.482  0.00  0.00    -0.379 N 
ATOM     20  C   UNL d   1      29.248 -13.703  -5.866  0.00  0.00     0.123 C 
ATOM     21  C   UNL d   1      28.941 -15.128  -6.309  0.00  0.00     0.020 C 
ATOM     22  C   UNL d   1      29.567 -16.145  -5.347  0.00  0.00     0.003 C 
ATOM     23  C   UNL d   1      29.204 -15.856  -3.884  0.00  0.00     0.020 C 
ATOM     24  C   UNL d   1      29.499 -14.401  -3.512  0.00  0.00     0.123 C 
ENDBRANCH   6  19
BRANCH   3  25
ATOM     25  N   UNL d   1      25.176  -9.331  -3.865  0.00  0.00    -0.323 N 
ATOM     26  C   UNL d   1      25.083  -8.348  -4.848  0.00  0.00     0.257 C 
ATOM     27  O   UNL d   1      25.778  -8.233  -5.860  0.00  0.00    -0.267 OA
ATOM     28  H   UNL d   1      24.489  -9.319  -3.120  0.00  0.00     0.169 HD
BRANCH  26  29
ATOM     29  C   UNL d   1      24.029  -7.325  -4.706  0.00  0.00     0.054 A 
ATOM     30  C   UNL d   1      22.816  -7.538  -5.396  0.00  0.00     0.019 A 
ATOM     31  C   UNL d   1      21.836  -6.543  -5.428  0.00  0.00     0.001 A 
ATOM     32  C   UNL d   1      22.040  -5.358  -4.727  0.00  0.00     0.002 A 
ATOM     33  C   UNL d   1      23.241  -5.142  -4.050  0.00  0.00     0.025 A 
ATOM     34  C   UNL d   1      24.244  -6.114  -4.047  0.00  0.00     0.049 A 
ATOM     35 CL   UNL d   1      25.722  -5.715  -3.247  0.00  0.00    -0.083 Cl
ENDBRANCH  26  29
ENDBRANCH   3  25
TORSDOF 5
ENDMDL
