MODEL 1
REMARK VINA RESULT:   -33.464      0.000      0.000
REMARK INTER + INTRA:         -36.828
REMARK INTER:                 -35.850
REMARK INTRA:                  -0.978
REMARK CONF_INDEPENDENT:        2.386
REMARK UNBOUND:                -0.978
REMARK  8 active torsions:
REMARK  status: ('A' for Active; 'I' for Inactive)
REMARK    1  A    between atoms: O_2  and  C_3 
REMARK    2  A    between atoms: C_3  and  C_5 
REMARK    3  A    between atoms: C_7  and  C_8 
REMARK    4  A    between atoms: C_8  and  N_9 
REMARK       I    between atoms: N_9  and  C_10 
REMARK    5  A    between atoms: C_10  and  C_12 
REMARK    6  A    between atoms: C_14  and  C_15 
REMARK    7  A    between atoms: C_21  and  N_22 
REMARK       I    between atoms: N_22  and  C_23 
REMARK    8  A    between atoms: C_23  and  C_25 
ROOT
ATOM      1  C   UNL d   1      25.680 -15.338  -2.287  0.00  0.00     0.042 C 
ATOM      2  C   UNL d   1      25.670 -16.700  -1.946  0.00  0.00     0.026 C 
ATOM      3  C   UNL d   1      25.941 -17.116  -0.620  0.00  0.00    -0.037 C 
ATOM      4  C   UNL d   1      26.339 -16.137   0.310  0.00  0.00     0.038 C 
ATOM      5  C   UNL d   1      26.309 -14.778  -0.015  0.00  0.00     0.036 C 
ATOM      6  C   UNL d   1      25.998 -14.396  -1.316  0.00  0.00     0.047 C 
ENDROOT
BRANCH   3   7
ATOM      7  C   UNL d   1      25.663 -18.560  -0.217  0.00  0.00     0.161 C 
BRANCH   7   8
ATOM      8  N   UNL d   1      24.255 -18.933  -0.137  0.00  0.00    -0.351 N 
ATOM      9  C   UNL d   1      23.230 -18.023  -0.213  0.00  0.00     0.270 C 
ATOM     10  O   UNL d   1      23.420 -16.815  -0.364  0.00  0.00    -0.266 OA
ATOM     11  H   UNL d   1      23.987 -19.901  -0.068  0.00  0.00     0.163 HD
BRANCH   9  12
ATOM     12  C   UNL d   1      21.912 -18.601  -0.135  0.00  0.00     0.119 A 
ATOM     13  C   UNL d   1      21.179 -19.041   0.946  0.00  0.00     0.066 A 
ATOM     14  C   UNL d   1      19.929 -19.475   0.435  0.00  0.00     0.060 A 
ATOM     15  N   UNL d   1      19.883 -19.325  -0.895  0.00  0.00    -0.179 NA
ATOM     16  N   UNL d   1      21.079 -18.778  -1.207  0.00  0.00    -0.273 N 
ATOM     17  H   UNL d   1      21.278 -18.572  -2.182  0.00  0.00     0.189 HD
BRANCH  14  18
ATOM     18  C   UNL d   1      18.759 -20.031   1.217  0.00  0.00     0.031 C 
ATOM     19  C   UNL d   1      18.133 -21.247   0.527  0.00  0.00     0.016 C 
ATOM     20  C   UNL d   1      19.193 -20.440   2.633  0.00  0.00     0.016 C 
ENDBRANCH  14  18
ENDBRANCH   9  12
ENDBRANCH   7   8
ENDBRANCH   3   7
BRANCH   1  21
ATOM     21  C   UNL d   1      25.153 -14.853  -3.591  0.00  0.00     0.293 C 
ATOM     22  O   UNL d   1      24.155 -14.154  -3.674  0.00  0.00    -0.259 OA
BRANCH  21  23
ATOM     23  O   UNL d   1      25.932 -15.263  -4.627  0.00  0.00    -0.323 OA
ATOM     24  C   UNL d   1      27.178 -14.564  -4.748  0.00  0.00     0.213 C 
ENDBRANCH  21  23
ENDBRANCH   1  21
BRANCH   5  25
ATOM     25  N   UNL d   1      26.537 -13.839   1.012  0.00  0.00    -0.323 N 
ATOM     26  C   UNL d   1      27.528 -13.939   1.974  0.00  0.00     0.257 C 
ATOM     27  O   UNL d   1      28.400 -14.800   2.049  0.00  0.00    -0.267 OA
ATOM     28  H   UNL d   1      25.906 -13.046   1.063  0.00  0.00     0.169 HD
BRANCH  26  29
ATOM     29  C   UNL d   1      27.554 -12.915   3.030  0.00  0.00     0.054 A 
ATOM     30  C   UNL d   1      27.574 -11.571   2.608  0.00  0.00     0.019 A 
ATOM     31  C   UNL d   1      27.810 -10.552   3.527  0.00  0.00     0.001 A 
ATOM     32  C   UNL d   1      27.962 -10.865   4.875  0.00  0.00     0.002 A 
ATOM     33  C   UNL d   1      27.932 -12.196   5.297  0.00  0.00     0.025 A 
ATOM     34  C   UNL d   1      27.739 -13.227   4.378  0.00  0.00     0.049 A 
ATOM     35 CL   UNL d   1      27.790 -14.843   4.990  0.00  0.00    -0.083 Cl
ENDBRANCH  26  29
ENDBRANCH   5  25
TORSDOF 8
ENDMDL
MODEL 2
REMARK VINA RESULT:   -32.700      1.468      1.636
REMARK INTER + INTRA:         -36.180
REMARK INTER:                 -35.086
REMARK INTRA:                  -1.094
REMARK CONF_INDEPENDENT:        2.386
REMARK UNBOUND:                -1.094
REMARK  8 active torsions:
REMARK  status: ('A' for Active; 'I' for Inactive)
REMARK    1  A    between atoms: O_2  and  C_3 
REMARK    2  A    between atoms: C_3  and  C_5 
REMARK    3  A    between atoms: C_7  and  C_8 
REMARK    4  A    between atoms: C_8  and  N_9 
REMARK       I    between atoms: N_9  and  C_10 
REMARK    5  A    between atoms: C_10  and  C_12 
REMARK    6  A    between atoms: C_14  and  C_15 
REMARK    7  A    between atoms: C_21  and  N_22 
REMARK       I    between atoms: N_22  and  C_23 
REMARK    8  A    between atoms: C_23  and  C_25 
ROOT
ATOM      1  C   UNL d   1      25.631 -15.309  -2.011  0.00  0.00     0.042 C 
ATOM      2  C   UNL d   1      25.487 -16.663  -1.669  0.00  0.00     0.026 C 
ATOM      3  C   UNL d   1      25.979 -17.154  -0.435  0.00  0.00    -0.037 C 
ATOM      4  C   UNL d   1      26.719 -16.275   0.376  0.00  0.00     0.038 C 
ATOM      5  C   UNL d   1      26.827 -14.917   0.059  0.00  0.00     0.036 C 
ATOM      6  C   UNL d   1      26.297 -14.454  -1.141  0.00  0.00     0.047 C 
ENDROOT
BRANCH   3   7
ATOM      7  C   UNL d   1      25.578 -18.551   0.028  0.00  0.00     0.161 C 
BRANCH   7   8
ATOM      8  N   UNL d   1      24.144 -18.788   0.152  0.00  0.00    -0.351 N 
ATOM      9  C   UNL d   1      23.288 -18.799  -0.920  0.00  0.00     0.270 C 
ATOM     10  O   UNL d   1      23.667 -18.618  -2.079  0.00  0.00    -0.266 OA
ATOM     11  H   UNL d   1      23.738 -19.000   1.048  0.00  0.00     0.163 HD
BRANCH   9  12
ATOM     12  C   UNL d   1      21.914 -19.073  -0.584  0.00  0.00     0.119 A 
ATOM     13  C   UNL d   1      21.339 -19.506   0.592  0.00  0.00     0.066 A 
ATOM     14  C   UNL d   1      19.941 -19.563   0.359  0.00  0.00     0.060 A 
ATOM     15  N   UNL d   1      19.655 -19.195  -0.896  0.00  0.00    -0.179 NA
ATOM     16  N   UNL d   1      20.856 -18.886  -1.433  0.00  0.00    -0.273 N 
ATOM     17  H   UNL d   1      20.890 -18.575  -2.399  0.00  0.00     0.189 HD
BRANCH  14  18
ATOM     18  C   UNL d   1      18.861 -19.962   1.341  0.00  0.00     0.031 C 
ATOM     19  C   UNL d   1      18.004 -21.116   0.814  0.00  0.00     0.016 C 
ATOM     20  C   UNL d   1      19.473 -20.380   2.687  0.00  0.00     0.016 C 
ENDBRANCH  14  18
ENDBRANCH   9  12
ENDBRANCH   7   8
ENDBRANCH   3   7
BRANCH   1  21
ATOM     21  C   UNL d   1      24.909 -14.713  -3.167  0.00  0.00     0.293 C 
ATOM     22  O   UNL d   1      23.853 -14.112  -3.039  0.00  0.00    -0.259 OA
BRANCH  21  23
ATOM     23  O   UNL d   1      25.585 -14.903  -4.331  0.00  0.00    -0.323 OA
ATOM     24  C   UNL d   1      26.882 -14.291  -4.373  0.00  0.00     0.213 C 
ENDBRANCH  21  23
ENDBRANCH   1  21
BRANCH   5  25
ATOM     25  N   UNL d   1      27.419 -14.054   1.004  0.00  0.00    -0.323 N 
ATOM     26  C   UNL d   1      26.765 -13.023   1.657  0.00  0.00     0.257 C 
ATOM     27  O   UNL d   1      25.573 -12.742   1.583  0.00  0.00    -0.267 OA
ATOM     28  H   UNL d   1      28.407 -14.183   1.194  0.00  0.00     0.169 HD
BRANCH  26  29
ATOM     29  C   UNL d   1      27.568 -12.159   2.536  0.00  0.00     0.054 A 
ATOM     30  C   UNL d   1      28.639 -12.771   3.218  0.00  0.00     0.019 A 
ATOM     31  C   UNL d   1      29.313 -12.082   4.223  0.00  0.00     0.001 A 
ATOM     32  C   UNL d   1      28.966 -10.764   4.504  0.00  0.00     0.002 A 
ATOM     33  C   UNL d   1      27.912 -10.152   3.821  0.00  0.00     0.025 A 
ATOM     34  C   UNL d   1      27.202 -10.848   2.843  0.00  0.00     0.049 A 
ATOM     35 CL   UNL d   1      25.871 -10.027   2.108  0.00  0.00    -0.083 Cl
ENDBRANCH  26  29
ENDBRANCH   5  25
TORSDOF 8
ENDMDL
MODEL 3
REMARK VINA RESULT:   -32.493      2.821      6.087
REMARK INTER + INTRA:         -35.988
REMARK INTER:                 -34.879
REMARK INTRA:                  -1.109
REMARK CONF_INDEPENDENT:        2.386
REMARK UNBOUND:                -1.109
REMARK  8 active torsions:
REMARK  status: ('A' for Active; 'I' for Inactive)
REMARK    1  A    between atoms: O_2  and  C_3 
REMARK    2  A    between atoms: C_3  and  C_5 
REMARK    3  A    between atoms: C_7  and  C_8 
REMARK    4  A    between atoms: C_8  and  N_9 
REMARK       I    between atoms: N_9  and  C_10 
REMARK    5  A    between atoms: C_10  and  C_12 
REMARK    6  A    between atoms: C_14  and  C_15 
REMARK    7  A    between atoms: C_21  and  N_22 
REMARK       I    between atoms: N_22  and  C_23 
REMARK    8  A    between atoms: C_23  and  C_25 
ROOT
ATOM      1  C   UNL d   1      26.431 -14.246   0.407  0.00  0.00     0.042 C 
ATOM      2  C   UNL d   1      26.046 -15.586   0.234  0.00  0.00     0.026 C 
ATOM      3  C   UNL d   1      25.863 -16.124  -1.063  0.00  0.00    -0.037 C 
ATOM      4  C   UNL d   1      25.957 -15.248  -2.160  0.00  0.00     0.038 C 
ATOM      5  C   UNL d   1      26.380 -13.926  -1.994  0.00  0.00     0.036 C 
ATOM      6  C   UNL d   1      26.594 -13.436  -0.709  0.00  0.00     0.047 C 
ENDROOT
BRANCH   3   7
ATOM      7  C   UNL d   1      25.711 -17.632  -1.233  0.00  0.00     0.161 C 
BRANCH   7   8
ATOM      8  N   UNL d   1      24.374 -18.163  -0.990  0.00  0.00    -0.351 N 
ATOM      9  C   UNL d   1      23.242 -17.388  -1.009  0.00  0.00     0.270 C 
ATOM     10  O   UNL d   1      23.265 -16.179  -1.244  0.00  0.00    -0.266 OA
ATOM     11  H   UNL d   1      24.236 -19.149  -0.840  0.00  0.00     0.163 HD
BRANCH   9  12
ATOM     12  C   UNL d   1      22.019 -18.112  -0.765  0.00  0.00     0.119 A 
ATOM     13  C   UNL d   1      21.763 -19.220   0.013  0.00  0.00     0.066 A 
ATOM     14  C   UNL d   1      20.371 -19.471  -0.089  0.00  0.00     0.060 A 
ATOM     15  N   UNL d   1      19.787 -18.575  -0.895  0.00  0.00    -0.179 NA
ATOM     16  N   UNL d   1      20.796 -17.758  -1.269  0.00  0.00    -0.273 N 
ATOM     17  H   UNL d   1      20.589 -16.987  -1.896  0.00  0.00     0.189 HD
BRANCH  14  18
ATOM     18  C   UNL d   1      19.582 -20.568   0.591  0.00  0.00     0.031 C 
ATOM     19  C   UNL d   1      19.466 -20.340   2.100  0.00  0.00     0.016 C 
ATOM     20  C   UNL d   1      18.167 -20.671   0.000  0.00  0.00     0.016 C 
ENDBRANCH  14  18
ENDBRANCH   9  12
ENDBRANCH   7   8
ENDBRANCH   3   7
BRANCH   1  21
ATOM     21  C   UNL d   1      26.879 -13.725   1.726  0.00  0.00     0.293 C 
ATOM     22  O   UNL d   1      26.527 -12.636   2.153  0.00  0.00    -0.259 OA
BRANCH  21  23
ATOM     23  O   UNL d   1      27.679 -14.616   2.370  0.00  0.00    -0.323 OA
ATOM     24  C   UNL d   1      28.913 -14.067   2.853  0.00  0.00     0.213 C 
ENDBRANCH  21  23
ENDBRANCH   1  21
BRANCH   5  25
ATOM     25  N   UNL d   1      26.635 -13.155  -3.147  0.00  0.00    -0.323 N 
ATOM     26  C   UNL d   1      26.201 -13.468  -4.423  0.00  0.00     0.257 C 
ATOM     27  O   UNL d   1      25.476 -14.403  -4.748  0.00  0.00    -0.267 OA
ATOM     28  H   UNL d   1      27.206 -12.324  -3.031  0.00  0.00     0.169 HD
BRANCH  26  29
ATOM     29  C   UNL d   1      26.647 -12.599  -5.524  0.00  0.00     0.054 A 
ATOM     30  C   UNL d   1      25.897 -11.428  -5.749  0.00  0.00     0.019 A 
ATOM     31  C   UNL d   1      26.119 -10.663  -6.892  0.00  0.00     0.001 A 
ATOM     32  C   UNL d   1      27.129 -11.029  -7.776  0.00  0.00     0.002 A 
ATOM     33  C   UNL d   1      27.882 -12.184  -7.549  0.00  0.00     0.025 A 
ATOM     34  C   UNL d   1      27.638 -12.980  -6.430  0.00  0.00     0.049 A 
ATOM     35 CL   UNL d   1      28.573 -14.425  -6.278  0.00  0.00    -0.083 Cl
ENDBRANCH  26  29
ENDBRANCH   5  25
TORSDOF 8
ENDMDL
MODEL 4
REMARK VINA RESULT:   -32.318      2.125      2.754
REMARK INTER + INTRA:         -35.799
REMARK INTER:                 -34.704
REMARK INTRA:                  -1.094
REMARK CONF_INDEPENDENT:        2.386
REMARK UNBOUND:                -1.094
REMARK  8 active torsions:
REMARK  status: ('A' for Active; 'I' for Inactive)
REMARK    1  A    between atoms: O_2  and  C_3 
REMARK    2  A    between atoms: C_3  and  C_5 
REMARK    3  A    between atoms: C_7  and  C_8 
REMARK    4  A    between atoms: C_8  and  N_9 
REMARK       I    between atoms: N_9  and  C_10 
REMARK    5  A    between atoms: C_10  and  C_12 
REMARK    6  A    between atoms: C_14  and  C_15 
REMARK    7  A    between atoms: C_21  and  N_22 
REMARK       I    between atoms: N_22  and  C_23 
REMARK    8  A    between atoms: C_23  and  C_25 
ROOT
ATOM      1  C   UNL d   1      28.071 -16.540  -1.483  0.00  0.00     0.042 C 
ATOM      2  C   UNL d   1      26.754 -16.367  -1.936  0.00  0.00     0.026 C 
ATOM      3  C   UNL d   1      25.778 -15.760  -1.108  0.00  0.00    -0.037 C 
ATOM      4  C   UNL d   1      26.138 -15.450   0.217  0.00  0.00     0.038 C 
ATOM      5  C   UNL d   1      27.459 -15.581   0.656  0.00  0.00     0.036 C 
ATOM      6  C   UNL d   1      28.406 -16.143  -0.194  0.00  0.00     0.047 C 
ENDROOT
BRANCH   3   7
ATOM      7  C   UNL d   1      24.441 -15.342  -1.710  0.00  0.00     0.161 C 
BRANCH   7   8
ATOM      8  N   UNL d   1      23.305 -16.196  -1.379  0.00  0.00    -0.351 N 
ATOM      9  C   UNL d   1      23.381 -17.566  -1.339  0.00  0.00     0.270 C 
ATOM     10  O   UNL d   1      24.422 -18.183  -1.571  0.00  0.00    -0.266 OA
ATOM     11  H   UNL d   1      22.421 -15.791  -1.121  0.00  0.00     0.163 HD
BRANCH   9  12
ATOM     12  C   UNL d   1      22.152 -18.220  -0.970  0.00  0.00     0.119 A 
ATOM     13  C   UNL d   1      21.911 -19.293  -0.139  0.00  0.00     0.066 A 
ATOM     14  C   UNL d   1      20.505 -19.477  -0.115  0.00  0.00     0.060 A 
ATOM     15  N   UNL d   1      19.897 -18.575  -0.895  0.00  0.00    -0.179 NA
ATOM     16  N   UNL d   1      20.907 -17.820  -1.379  0.00  0.00    -0.273 N 
ATOM     17  H   UNL d   1      20.684 -17.057  -2.010  0.00  0.00     0.189 HD
BRANCH  14  18
ATOM     18  C   UNL d   1      19.727 -20.514   0.664  0.00  0.00     0.031 C 
ATOM     19  C   UNL d   1      19.494 -20.087   2.116  0.00  0.00     0.016 C 
ATOM     20  C   UNL d   1      18.364 -20.783   0.007  0.00  0.00     0.016 C 
ENDBRANCH  14  18
ENDBRANCH   9  12
ENDBRANCH   7   8
ENDBRANCH   3   7
BRANCH   1  21
ATOM     21  C   UNL d   1      29.171 -16.932  -2.405  0.00  0.00     0.293 C 
ATOM     22  O   UNL d   1      30.005 -17.773  -2.109  0.00  0.00    -0.259 OA
BRANCH  21  23
ATOM     23  O   UNL d   1      29.093 -16.265  -3.587  0.00  0.00    -0.323 OA
ATOM     24  C   UNL d   1      29.819 -16.874  -4.664  0.00  0.00     0.213 C 
ENDBRANCH  21  23
ENDBRANCH   1  21
BRANCH   5  25
ATOM     25  N   UNL d   1      27.794 -15.079   1.930  0.00  0.00    -0.323 N 
ATOM     26  C   UNL d   1      27.273 -13.926   2.491  0.00  0.00     0.257 C 
ATOM     27  O   UNL d   1      26.399 -13.205   2.020  0.00  0.00    -0.267 OA
ATOM     28  H   UNL d   1      28.492 -15.590   2.460  0.00  0.00     0.169 HD
BRANCH  26  29
ATOM     29  C   UNL d   1      27.814 -13.499   3.792  0.00  0.00     0.054 A 
ATOM     30  C   UNL d   1      28.139 -14.520   4.708  0.00  0.00     0.019 A 
ATOM     31  C   UNL d   1      28.455 -14.204   6.026  0.00  0.00     0.001 A 
ATOM     32  C   UNL d   1      28.511 -12.869   6.416  0.00  0.00     0.002 A 
ATOM     33  C   UNL d   1      28.201 -11.855   5.507  0.00  0.00     0.025 A 
ATOM     34  C   UNL d   1      27.841 -12.164   4.196  0.00  0.00     0.049 A 
ATOM     35 CL   UNL d   1      27.406 -10.843   3.170  0.00  0.00    -0.083 Cl
ENDBRANCH  26  29
ENDBRANCH   5  25
TORSDOF 8
ENDMDL
MODEL 5
REMARK VINA RESULT:   -32.273      2.611      6.155
REMARK INTER + INTRA:         -35.790
REMARK INTER:                 -34.659
REMARK INTRA:                  -1.131
REMARK CONF_INDEPENDENT:        2.386
REMARK UNBOUND:                -1.131
REMARK  8 active torsions:
REMARK  status: ('A' for Active; 'I' for Inactive)
REMARK    1  A    between atoms: O_2  and  C_3 
REMARK    2  A    between atoms: C_3  and  C_5 
REMARK    3  A    between atoms: C_7  and  C_8 
REMARK    4  A    between atoms: C_8  and  N_9 
REMARK       I    between atoms: N_9  and  C_10 
REMARK    5  A    between atoms: C_10  and  C_12 
REMARK    6  A    between atoms: C_14  and  C_15 
REMARK    7  A    between atoms: C_21  and  N_22 
REMARK       I    between atoms: N_22  and  C_23 
REMARK    8  A    between atoms: C_23  and  C_25 
ROOT
ATOM      1  C   UNL d   1      26.385 -14.364   0.225  0.00  0.00     0.042 C 
ATOM      2  C   UNL d   1      25.956 -15.701   0.251  0.00  0.00     0.026 C 
ATOM      3  C   UNL d   1      25.946 -16.481  -0.932  0.00  0.00    -0.037 C 
ATOM      4  C   UNL d   1      26.259 -15.842  -2.145  0.00  0.00     0.038 C 
ATOM      5  C   UNL d   1      26.727 -14.525  -2.169  0.00  0.00     0.036 C 
ATOM      6  C   UNL d   1      26.766 -13.795  -0.984  0.00  0.00     0.047 C 
ENDROOT
BRANCH   3   7
ATOM      7  C   UNL d   1      25.736 -17.988  -0.833  0.00  0.00     0.161 C 
BRANCH   7   8
ATOM      8  N   UNL d   1      24.356 -18.423  -0.653  0.00  0.00    -0.351 N 
ATOM      9  C   UNL d   1      23.276 -17.598  -0.848  0.00  0.00     0.270 C 
ATOM     10  O   UNL d   1      23.389 -16.423  -1.201  0.00  0.00    -0.266 OA
ATOM     11  H   UNL d   1      24.149 -19.379  -0.418  0.00  0.00     0.163 HD
BRANCH   9  12
ATOM     12  C   UNL d   1      21.998 -18.230  -0.639  0.00  0.00     0.119 A 
ATOM     13  C   UNL d   1      21.621 -19.254   0.204  0.00  0.00     0.066 A 
ATOM     14  C   UNL d   1      20.226 -19.435   0.019  0.00  0.00     0.060 A 
ATOM     15  N   UNL d   1      19.755 -18.578  -0.895  0.00  0.00    -0.179 NA
ATOM     16  N   UNL d   1      20.836 -17.853  -1.257  0.00  0.00    -0.273 N 
ATOM     17  H   UNL d   1      20.720 -17.125  -1.957  0.00  0.00     0.189 HD
BRANCH  14  18
ATOM     18  C   UNL d   1      19.326 -20.426   0.724  0.00  0.00     0.031 C 
ATOM     19  C   UNL d   1      18.866 -19.912   2.091  0.00  0.00     0.016 C 
ATOM     20  C   UNL d   1      18.086 -20.739  -0.126  0.00  0.00     0.016 C 
ENDBRANCH  14  18
ENDBRANCH   9  12
ENDBRANCH   7   8
ENDBRANCH   3   7
BRANCH   1  21
ATOM     21  C   UNL d   1      26.651 -13.604   1.475  0.00  0.00     0.293 C 
ATOM     22  O   UNL d   1      26.036 -12.590   1.768  0.00  0.00    -0.259 OA
BRANCH  21  23
ATOM     23  O   UNL d   1      27.620 -14.196   2.223  0.00  0.00    -0.323 OA
ATOM     24  C   UNL d   1      27.552 -13.902   3.625  0.00  0.00     0.213 C 
ENDBRANCH  21  23
ENDBRANCH   1  21
BRANCH   5  25
ATOM     25  N   UNL d   1      27.202 -14.004  -3.390  0.00  0.00    -0.323 N 
ATOM     26  C   UNL d   1      26.657 -14.273  -4.633  0.00  0.00     0.257 C 
ATOM     27  O   UNL d   1      25.649 -14.932  -4.870  0.00  0.00    -0.267 OA
ATOM     28  H   UNL d   1      28.024 -13.410  -3.352  0.00  0.00     0.169 HD
BRANCH  26  29
ATOM     29  C   UNL d   1      27.346 -13.721  -5.811  0.00  0.00     0.054 A 
ATOM     30  C   UNL d   1      28.118 -14.622  -6.571  0.00  0.00     0.019 A 
ATOM     31  C   UNL d   1      28.965 -14.148  -7.570  0.00  0.00     0.001 A 
ATOM     32  C   UNL d   1      28.994 -12.786  -7.855  0.00  0.00     0.002 A 
ATOM     33  C   UNL d   1      28.221 -11.893  -7.110  0.00  0.00     0.025 A 
ATOM     34  C   UNL d   1      27.402 -12.353  -6.079  0.00  0.00     0.049 A 
ATOM     35 CL   UNL d   1      26.541 -11.162  -5.170  0.00  0.00    -0.083 Cl
ENDBRANCH  26  29
ENDBRANCH   5  25
TORSDOF 8
ENDMDL
MODEL 6
REMARK VINA RESULT:   -31.875      3.111      5.690
REMARK INTER + INTRA:         -35.263
REMARK INTER:                 -34.261
REMARK INTRA:                  -1.002
REMARK CONF_INDEPENDENT:        2.386
REMARK UNBOUND:                -1.002
REMARK  8 active torsions:
REMARK  status: ('A' for Active; 'I' for Inactive)
REMARK    1  A    between atoms: O_2  and  C_3 
REMARK    2  A    between atoms: C_3  and  C_5 
REMARK    3  A    between atoms: C_7  and  C_8 
REMARK    4  A    between atoms: C_8  and  N_9 
REMARK       I    between atoms: N_9  and  C_10 
REMARK    5  A    between atoms: C_10  and  C_12 
REMARK    6  A    between atoms: C_14  and  C_15 
REMARK    7  A    between atoms: C_21  and  N_22 
REMARK       I    between atoms: N_22  and  C_23 
REMARK    8  A    between atoms: C_23  and  C_25 
ROOT
ATOM      1  C   UNL d   1      26.560 -14.141   0.340  0.00  0.00     0.042 C 
ATOM      2  C   UNL d   1      26.205 -15.494   0.225  0.00  0.00     0.026 C 
ATOM      3  C   UNL d   1      25.750 -16.021  -1.008  0.00  0.00    -0.037 C 
ATOM      4  C   UNL d   1      25.551 -15.125  -2.074  0.00  0.00     0.038 C 
ATOM      5  C   UNL d   1      25.944 -13.787  -1.977  0.00  0.00     0.036 C 
ATOM      6  C   UNL d   1      26.427 -13.306  -0.764  0.00  0.00     0.047 C 
ENDROOT
BRANCH   3   7
ATOM      7  C   UNL d   1      25.628 -17.532  -1.177  0.00  0.00     0.161 C 
BRANCH   7   8
ATOM      8  N   UNL d   1      24.301 -18.089  -0.941  0.00  0.00    -0.351 N 
ATOM      9  C   UNL d   1      23.159 -17.328  -0.925  0.00  0.00     0.270 C 
ATOM     10  O   UNL d   1      23.164 -16.111  -1.119  0.00  0.00    -0.266 OA
ATOM     11  H   UNL d   1      24.177 -19.080  -0.825  0.00  0.00     0.163 HD
BRANCH   9  12
ATOM     12  C   UNL d   1      21.948 -18.075  -0.696  0.00  0.00     0.119 A 
ATOM     13  C   UNL d   1      21.689 -19.152   0.125  0.00  0.00     0.066 A 
ATOM     14  C   UNL d   1      20.310 -19.450  -0.023  0.00  0.00     0.060 A 
ATOM     15  N   UNL d   1      19.736 -18.611  -0.895  0.00  0.00    -0.179 NA
ATOM     16  N   UNL d   1      20.737 -17.784  -1.267  0.00  0.00    -0.273 N 
ATOM     17  H   UNL d   1      20.536 -17.050  -1.940  0.00  0.00     0.189 HD
BRANCH  14  18
ATOM     18  C   UNL d   1      19.524 -20.535   0.678  0.00  0.00     0.031 C 
ATOM     19  C   UNL d   1      19.291 -20.213   2.157  0.00  0.00     0.016 C 
ATOM     20  C   UNL d   1      18.161 -20.747   0.001  0.00  0.00     0.016 C 
ENDBRANCH  14  18
ENDBRANCH   9  12
ENDBRANCH   7   8
ENDBRANCH   3   7
BRANCH   1  21
ATOM     21  C   UNL d   1      27.277 -13.618   1.533  0.00  0.00     0.293 C 
ATOM     22  O   UNL d   1      26.702 -13.350   2.577  0.00  0.00    -0.259 OA
BRANCH  21  23
ATOM     23  O   UNL d   1      28.614 -13.515   1.307  0.00  0.00    -0.323 OA
ATOM     24  C   UNL d   1      29.336 -14.748   1.433  0.00  0.00     0.213 C 
ENDBRANCH  21  23
ENDBRANCH   1  21
BRANCH   5  25
ATOM     25  N   UNL d   1      25.893 -12.988  -3.137  0.00  0.00    -0.323 N 
ATOM     26  C   UNL d   1      26.604 -11.815  -3.325  0.00  0.00     0.257 C 
ATOM     27  O   UNL d   1      27.434 -11.325  -2.566  0.00  0.00    -0.267 OA
ATOM     28  H   UNL d   1      25.263 -13.283  -3.876  0.00  0.00     0.169 HD
BRANCH  26  29
ATOM     29  C   UNL d   1      26.349 -11.058  -4.561  0.00  0.00     0.054 A 
ATOM     30  C   UNL d   1      26.614 -11.721  -5.776  0.00  0.00     0.019 A 
ATOM     31  C   UNL d   1      26.603 -11.015  -6.976  0.00  0.00     0.001 A 
ATOM     32  C   UNL d   1      26.264  -9.665  -6.974  0.00  0.00     0.002 A 
ATOM     33  C   UNL d   1      25.989  -9.008  -5.773  0.00  0.00     0.025 A 
ATOM     34  C   UNL d   1      26.041  -9.697  -4.561  0.00  0.00     0.049 A 
ATOM     35 CL   UNL d   1      25.756  -8.778  -3.125  0.00  0.00    -0.083 Cl
ENDBRANCH  26  29
ENDBRANCH   5  25
TORSDOF 8
ENDMDL
MODEL 7
REMARK VINA RESULT:   -31.738      3.256      5.637
REMARK INTER + INTRA:         -35.254
REMARK INTER:                 -34.124
REMARK INTRA:                  -1.130
REMARK CONF_INDEPENDENT:        2.386
REMARK UNBOUND:                -1.130
REMARK  8 active torsions:
REMARK  status: ('A' for Active; 'I' for Inactive)
REMARK    1  A    between atoms: O_2  and  C_3 
REMARK    2  A    between atoms: C_3  and  C_5 
REMARK    3  A    between atoms: C_7  and  C_8 
REMARK    4  A    between atoms: C_8  and  N_9 
REMARK       I    between atoms: N_9  and  C_10 
REMARK    5  A    between atoms: C_10  and  C_12 
REMARK    6  A    between atoms: C_14  and  C_15 
REMARK    7  A    between atoms: C_21  and  N_22 
REMARK       I    between atoms: N_22  and  C_23 
REMARK    8  A    between atoms: C_23  and  C_25 
ROOT
ATOM      1  C   UNL d   1      26.613 -14.191   0.447  0.00  0.00     0.042 C 
ATOM      2  C   UNL d   1      26.239 -15.531   0.255  0.00  0.00     0.026 C 
ATOM      3  C   UNL d   1      25.797 -15.985  -1.011  0.00  0.00    -0.037 C 
ATOM      4  C   UNL d   1      25.629 -15.031  -2.032  0.00  0.00     0.038 C 
ATOM      5  C   UNL d   1      26.040 -13.706  -1.857  0.00  0.00     0.036 C 
ATOM      6  C   UNL d   1      26.510 -13.298  -0.613  0.00  0.00     0.047 C 
ENDROOT
BRANCH   3   7
ATOM      7  C   UNL d   1      25.656 -17.482  -1.261  0.00  0.00     0.161 C 
BRANCH   7   8
ATOM      8  N   UNL d   1      24.335 -18.044  -1.005  0.00  0.00    -0.351 N 
ATOM      9  C   UNL d   1      23.184 -17.296  -1.019  0.00  0.00     0.270 C 
ATOM     10  O   UNL d   1      23.177 -16.088  -1.261  0.00  0.00    -0.266 OA
ATOM     11  H   UNL d   1      24.222 -19.032  -0.849  0.00  0.00     0.163 HD
BRANCH   9  12
ATOM     12  C   UNL d   1      21.981 -18.047  -0.762  0.00  0.00     0.119 A 
ATOM     13  C   UNL d   1      21.748 -19.131   0.058  0.00  0.00     0.066 A 
ATOM     14  C   UNL d   1      20.366 -19.429  -0.052  0.00  0.00     0.060 A 
ATOM     15  N   UNL d   1      19.766 -18.584  -0.900  0.00  0.00    -0.179 NA
ATOM     16  N   UNL d   1      20.754 -17.752  -1.294  0.00  0.00    -0.273 N 
ATOM     17  H   UNL d   1      20.532 -17.013  -1.954  0.00  0.00     0.189 HD
BRANCH  14  18
ATOM     18  C   UNL d   1      19.602 -20.522   0.663  0.00  0.00     0.031 C 
ATOM     19  C   UNL d   1      19.389 -20.200   2.144  0.00  0.00     0.016 C 
ATOM     20  C   UNL d   1      18.230 -20.747   0.008  0.00  0.00     0.016 C 
ENDBRANCH  14  18
ENDBRANCH   9  12
ENDBRANCH   7   8
ENDBRANCH   3   7
BRANCH   1  21
ATOM     21  C   UNL d   1      27.318 -13.743   1.677  0.00  0.00     0.293 C 
ATOM     22  O   UNL d   1      27.077 -12.674   2.217  0.00  0.00    -0.259 OA
BRANCH  21  23
ATOM     23  O   UNL d   1      28.210 -14.674   2.108  0.00  0.00    -0.323 OA
ATOM     24  C   UNL d   1      29.439 -14.708   1.369  0.00  0.00     0.213 C 
ENDBRANCH  21  23
ENDBRANCH   1  21
BRANCH   5  25
ATOM     25  N   UNL d   1      26.019 -12.846  -2.974  0.00  0.00    -0.323 N 
ATOM     26  C   UNL d   1      26.415 -11.520  -2.962  0.00  0.00     0.257 C 
ATOM     27  O   UNL d   1      26.908 -10.905  -2.022  0.00  0.00    -0.267 OA
ATOM     28  H   UNL d   1      25.658 -13.225  -3.844  0.00  0.00     0.169 HD
BRANCH  26  29
ATOM     29  C   UNL d   1      26.230 -10.745  -4.199  0.00  0.00     0.054 A 
ATOM     30  C   UNL d   1      25.355  -9.642  -4.130  0.00  0.00     0.019 A 
ATOM     31  C   UNL d   1      24.962  -8.986  -5.293  0.00  0.00     0.001 A 
ATOM     32  C   UNL d   1      25.489  -9.386  -6.518  0.00  0.00     0.002 A 
ATOM     33  C   UNL d   1      26.365 -10.472  -6.588  0.00  0.00     0.025 A 
ATOM     34  C   UNL d   1      26.731 -11.163  -5.433  0.00  0.00     0.049 A 
ATOM     35 CL   UNL d   1      27.762 -12.535  -5.634  0.00  0.00    -0.083 Cl
ENDBRANCH  26  29
ENDBRANCH   5  25
TORSDOF 8
ENDMDL
MODEL 8
REMARK VINA RESULT:   -31.735      2.073      3.032
REMARK INTER + INTRA:         -35.439
REMARK INTER:                 -34.122
REMARK INTRA:                  -1.317
REMARK CONF_INDEPENDENT:        2.386
REMARK UNBOUND:                -1.317
REMARK  8 active torsions:
REMARK  status: ('A' for Active; 'I' for Inactive)
REMARK    1  A    between atoms: O_2  and  C_3 
REMARK    2  A    between atoms: C_3  and  C_5 
REMARK    3  A    between atoms: C_7  and  C_8 
REMARK    4  A    between atoms: C_8  and  N_9 
REMARK       I    between atoms: N_9  and  C_10 
REMARK    5  A    between atoms: C_10  and  C_12 
REMARK    6  A    between atoms: C_14  and  C_15 
REMARK    7  A    between atoms: C_21  and  N_22 
REMARK       I    between atoms: N_22  and  C_23 
REMARK    8  A    between atoms: C_23  and  C_25 
ROOT
ATOM      1  C   UNL d   1      28.447 -16.789  -0.406  0.00  0.00     0.042 C 
ATOM      2  C   UNL d   1      27.361 -17.116  -1.232  0.00  0.00     0.026 C 
ATOM      3  C   UNL d   1      26.138 -16.408  -1.135  0.00  0.00    -0.037 C 
ATOM      4  C   UNL d   1      26.009 -15.455  -0.108  0.00  0.00     0.038 C 
ATOM      5  C   UNL d   1      27.101 -15.097   0.688  0.00  0.00     0.036 C 
ATOM      6  C   UNL d   1      28.303 -15.783   0.542  0.00  0.00     0.047 C 
ENDROOT
BRANCH   3   7
ATOM      7  C   UNL d   1      25.076 -16.597  -2.212  0.00  0.00     0.161 C 
BRANCH   7   8
ATOM      8  N   UNL d   1      23.915 -17.389  -1.821  0.00  0.00    -0.351 N 
ATOM      9  C   UNL d   1      23.039 -17.004  -0.837  0.00  0.00     0.270 C 
ATOM     10  O   UNL d   1      23.159 -15.950  -0.211  0.00  0.00    -0.266 OA
ATOM     11  H   UNL d   1      23.692 -18.242  -2.306  0.00  0.00     0.163 HD
BRANCH   9  12
ATOM     12  C   UNL d   1      21.946 -17.918  -0.621  0.00  0.00     0.119 A 
ATOM     13  C   UNL d   1      21.807 -18.972   0.257  0.00  0.00     0.066 A 
ATOM     14  C   UNL d   1      20.502 -19.492   0.060  0.00  0.00     0.060 A 
ATOM     15  N   UNL d   1      19.860 -18.808  -0.895  0.00  0.00    -0.179 NA
ATOM     16  N   UNL d   1      20.742 -17.856  -1.271  0.00  0.00    -0.273 N 
ATOM     17  H   UNL d   1      20.471 -17.204  -2.001  0.00  0.00     0.189 HD
BRANCH  14  18
ATOM     18  C   UNL d   1      19.852 -20.645   0.792  0.00  0.00     0.031 C 
ATOM     19  C   UNL d   1      19.875 -20.448   2.310  0.00  0.00     0.016 C 
ATOM     20  C   UNL d   1      18.393 -20.824   0.343  0.00  0.00     0.016 C 
ENDBRANCH  14  18
ENDBRANCH   9  12
ENDBRANCH   7   8
ENDBRANCH   3   7
BRANCH   1  21
ATOM     21  C   UNL d   1      29.810 -17.331  -0.654  0.00  0.00     0.293 C 
ATOM     22  O   UNL d   1      29.999 -18.466  -1.063  0.00  0.00    -0.259 OA
BRANCH  21  23
ATOM     23  O   UNL d   1      30.771 -16.403  -0.397  0.00  0.00    -0.323 OA
ATOM     24  C   UNL d   1      31.656 -16.745   0.679  0.00  0.00     0.213 C 
ENDBRANCH  21  23
ENDBRANCH   1  21
BRANCH   5  25
ATOM     25  N   UNL d   1      26.958 -14.008   1.571  0.00  0.00    -0.323 N 
ATOM     26  C   UNL d   1      27.159 -12.680   1.233  0.00  0.00     0.257 C 
ATOM     27  O   UNL d   1      27.414 -12.233   0.119  0.00  0.00    -0.267 OA
ATOM     28  H   UNL d   1      26.719 -14.219   2.534  0.00  0.00     0.169 HD
BRANCH  26  29
ATOM     29  C   UNL d   1      27.063 -11.683   2.310  0.00  0.00     0.054 A 
ATOM     30  C   UNL d   1      26.334 -10.511   2.025  0.00  0.00     0.019 A 
ATOM     31  C   UNL d   1      26.369  -9.433   2.905  0.00  0.00     0.001 A 
ATOM     32  C   UNL d   1      27.077  -9.544   4.098  0.00  0.00     0.002 A 
ATOM     33  C   UNL d   1      27.792 -10.708   4.388  0.00  0.00     0.025 A 
ATOM     34  C   UNL d   1      27.798 -11.778   3.493  0.00  0.00     0.049 A 
ATOM     35 CL   UNL d   1      28.770 -13.144   3.910  0.00  0.00    -0.083 Cl
ENDBRANCH  26  29
ENDBRANCH   5  25
TORSDOF 8
ENDMDL
MODEL 9
REMARK VINA RESULT:   -31.516      3.944      5.595
REMARK INTER + INTRA:         -35.128
REMARK INTER:                 -33.903
REMARK INTRA:                  -1.225
REMARK CONF_INDEPENDENT:        2.386
REMARK UNBOUND:                -1.225
REMARK  8 active torsions:
REMARK  status: ('A' for Active; 'I' for Inactive)
REMARK    1  A    between atoms: O_2  and  C_3 
REMARK    2  A    between atoms: C_3  and  C_5 
REMARK    3  A    between atoms: C_7  and  C_8 
REMARK    4  A    between atoms: C_8  and  N_9 
REMARK       I    between atoms: N_9  and  C_10 
REMARK    5  A    between atoms: C_10  and  C_12 
REMARK    6  A    between atoms: C_14  and  C_15 
REMARK    7  A    between atoms: C_21  and  N_22 
REMARK       I    between atoms: N_22  and  C_23 
REMARK    8  A    between atoms: C_23  and  C_25 
ROOT
ATOM      1  C   UNL d   1      25.197 -14.953  -3.167  0.00  0.00     0.042 C 
ATOM      2  C   UNL d   1      24.645 -15.542  -2.018  0.00  0.00     0.026 C 
ATOM      3  C   UNL d   1      25.417 -16.408  -1.207  0.00  0.00    -0.037 C 
ATOM      4  C   UNL d   1      26.707 -16.754  -1.652  0.00  0.00     0.038 C 
ATOM      5  C   UNL d   1      27.274 -16.136  -2.771  0.00  0.00     0.036 C 
ATOM      6  C   UNL d   1      26.505 -15.256  -3.526  0.00  0.00     0.047 C 
ENDROOT
BRANCH   3   7
ATOM      7  C   UNL d   1      24.890 -16.819   0.164  0.00  0.00     0.161 C 
BRANCH   7   8
ATOM      8  N   UNL d   1      23.585 -17.470   0.170  0.00  0.00    -0.351 N 
ATOM      9  C   UNL d   1      23.105 -18.202  -0.888  0.00  0.00     0.270 C 
ATOM     10  O   UNL d   1      23.747 -18.375  -1.925  0.00  0.00    -0.266 OA
ATOM     11  H   UNL d   1      23.002 -17.436   0.989  0.00  0.00     0.163 HD
BRANCH   9  12
ATOM     12  C   UNL d   1      21.803 -18.780  -0.671  0.00  0.00     0.119 A 
ATOM     13  C   UNL d   1      21.394 -19.806   0.154  0.00  0.00     0.066 A 
ATOM     14  C   UNL d   1      19.989 -19.919  -0.010  0.00  0.00     0.060 A 
ATOM     15  N   UNL d   1      19.542 -19.019  -0.895  0.00  0.00    -0.179 NA
ATOM     16  N   UNL d   1      20.649 -18.335  -1.259  0.00  0.00    -0.273 N 
ATOM     17  H   UNL d   1      20.555 -17.586  -1.939  0.00  0.00     0.189 HD
BRANCH  14  18
ATOM     18  C   UNL d   1      19.057 -20.885   0.687  0.00  0.00     0.031 C 
ATOM     19  C   UNL d   1      18.801 -20.487   2.143  0.00  0.00     0.016 C 
ATOM     20  C   UNL d   1      17.708 -20.966  -0.043  0.00  0.00     0.016 C 
ENDBRANCH  14  18
ENDBRANCH   9  12
ENDBRANCH   7   8
ENDBRANCH   3   7
BRANCH   1  21
ATOM     21  C   UNL d   1      24.508 -13.850  -3.889  0.00  0.00     0.293 C 
ATOM     22  O   UNL d   1      23.291 -13.744  -3.913  0.00  0.00    -0.259 OA
BRANCH  21  23
ATOM     23  O   UNL d   1      25.397 -13.000  -4.468  0.00  0.00    -0.323 OA
ATOM     24  C   UNL d   1      25.606 -11.777  -3.750  0.00  0.00     0.213 C 
ENDBRANCH  21  23
ENDBRANCH   1  21
BRANCH   5  25
ATOM     25  N   UNL d   1      28.632 -16.384  -3.056  0.00  0.00    -0.323 N 
ATOM     26  C   UNL d   1      29.214 -16.274  -4.307  0.00  0.00     0.257 C 
ATOM     27  O   UNL d   1      28.678 -15.881  -5.338  0.00  0.00    -0.267 OA
ATOM     28  H   UNL d   1      29.218 -16.694  -2.287  0.00  0.00     0.169 HD
BRANCH  26  29
ATOM     29  C   UNL d   1      30.625 -16.670  -4.437  0.00  0.00     0.054 A 
ATOM     30  C   UNL d   1      30.887 -17.850  -5.161  0.00  0.00     0.019 A 
ATOM     31  C   UNL d   1      32.163 -18.407  -5.154  0.00  0.00     0.001 A 
ATOM     32  C   UNL d   1      33.192 -17.756  -4.481  0.00  0.00     0.002 A 
ATOM     33  C   UNL d   1      32.938 -16.580  -3.772  0.00  0.00     0.025 A 
ATOM     34  C   UNL d   1      31.653 -16.037  -3.737  0.00  0.00     0.049 A 
ATOM     35 CL   UNL d   1      31.426 -14.621  -2.773  0.00  0.00    -0.083 Cl
ENDBRANCH  26  29
ENDBRANCH   5  25
TORSDOF 8
ENDMDL
