MODEL 1
REMARK VINA RESULT:   -26.682      0.000      0.000
REMARK INTER + INTRA:         -28.400
REMARK INTER:                 -27.875
REMARK INTRA:                  -0.524
REMARK CONF_INDEPENDENT:        1.193
REMARK UNBOUND:                -0.524
REMARK  4 active torsions:
REMARK  status: ('A' for Active; 'I' for Inactive)
REMARK    1  A    between atoms: C_3  and  C_4 
REMARK       I    between atoms: C_4  and  N_6 
REMARK    2  A    between atoms: N_6  and  N_7 
REMARK    3  A    between atoms: C_8  and  C_9 
REMARK    4  A    between atoms: C_18  and  N_19 
ROOT
ATOM      1  C   UNL d   1      22.058 -15.400  -1.271  0.00  0.00     0.051 C 
ATOM      2  C   UNL d   1      22.969 -16.530  -0.889  0.00  0.00    -0.016 A 
ATOM      3  C   UNL d   1      24.359 -16.528  -0.663  0.00  0.00     0.084 A 
ATOM      4  S   UNL d   1      24.872 -18.153  -0.252  0.00  0.00    -0.065 SA
ATOM      5  C   UNL d   1      23.321 -18.830  -0.369  0.00  0.00     0.090 A 
ATOM      6  C   UNL d   1      22.398 -17.869  -0.707  0.00  0.00     0.085 A 
ATOM      7  C   UNL d   1      21.011 -18.228  -0.852  0.00  0.00     0.103 C 
ATOM      8  N   UNL d   1      19.904 -18.576  -0.955  0.00  0.00    -0.191 NA
ENDROOT
BRANCH   5   9
ATOM      9  N   UNL d   1      23.101 -20.146  -0.145  0.00  0.00    -0.392 N 
ATOM     10  H   UNL d   1      23.788 -20.855  -0.388  0.00  0.00     0.156 HD
ATOM     11  H   UNL d   1      22.246 -20.511   0.272  0.00  0.00     0.156 HD
ENDBRANCH   5   9
BRANCH   3  12
ATOM     12  C   UNL d   1      25.482 -15.529  -0.688  0.00  0.00     0.279 C 
ATOM     13  O   UNL d   1      25.606 -14.723  -1.617  0.00  0.00    -0.265 OA
ATOM     14  N   UNL d   1      26.410 -15.507   0.370  0.00  0.00    -0.243 N 
ATOM     15  H   UNL d   1      26.358 -16.164   1.125  0.00  0.00     0.192 HD
BRANCH  14  16
ATOM     16  N   UNL d   1      27.453 -14.578   0.386  0.00  0.00    -0.183 NA
ATOM     17  C   UNL d   1      28.077 -14.400   1.514  0.00  0.00     0.151 C 
BRANCH  17  18
ATOM     18  C   UNL d   1      29.227 -13.455   1.649  0.00  0.00     0.005 A 
ATOM     19  C   UNL d   1      29.595 -12.663   0.555  0.00  0.00     0.016 A 
ATOM     20  C   UNL d   1      30.671 -11.768   0.653  0.00  0.00     0.025 A 
ATOM     21  C   UNL d   1      31.391 -11.667   1.842  0.00  0.00     0.035 A 
ATOM     22 CL   UNL d   1      32.723 -10.579   1.943  0.00  0.00    -0.084 Cl
ATOM     23  C   UNL d   1      31.036 -12.444   2.942  0.00  0.00     0.048 A 
ATOM     24  C   UNL d   1      29.947 -13.328   2.850  0.00  0.00     0.047 A 
ATOM     25 CL   UNL d   1      29.564 -14.268   4.248  0.00  0.00    -0.083 Cl
ENDBRANCH  17  18
ENDBRANCH  14  16
ENDBRANCH   3  12
TORSDOF 4
ENDMDL
MODEL 2
REMARK VINA RESULT:   -26.528      3.660      4.290
REMARK INTER + INTRA:         -28.150
REMARK INTER:                 -27.721
REMARK INTRA:                  -0.429
REMARK CONF_INDEPENDENT:        1.193
REMARK UNBOUND:                -0.429
REMARK  4 active torsions:
REMARK  status: ('A' for Active; 'I' for Inactive)
REMARK    1  A    between atoms: C_3  and  C_4 
REMARK       I    between atoms: C_4  and  N_6 
REMARK    2  A    between atoms: N_6  and  N_7 
REMARK    3  A    between atoms: C_8  and  C_9 
REMARK    4  A    between atoms: C_18  and  N_19 
ROOT
ATOM      1  C   UNL d   1      21.987 -15.365  -1.311  0.00  0.00     0.051 C 
ATOM      2  C   UNL d   1      22.929 -16.472  -0.937  0.00  0.00    -0.016 A 
ATOM      3  C   UNL d   1      24.324 -16.440  -0.747  0.00  0.00     0.084 A 
ATOM      4  S   UNL d   1      24.878 -18.050  -0.325  0.00  0.00    -0.065 SA
ATOM      5  C   UNL d   1      23.338 -18.757  -0.393  0.00  0.00     0.090 A 
ATOM      6  C   UNL d   1      22.388 -17.819  -0.721  0.00  0.00     0.085 A 
ATOM      7  C   UNL d   1      21.006 -18.206  -0.825  0.00  0.00     0.103 C 
ATOM      8  N   UNL d   1      19.903 -18.576  -0.895  0.00  0.00    -0.191 NA
ENDROOT
BRANCH   5   9
ATOM      9  N   UNL d   1      23.149 -20.074  -0.145  0.00  0.00    -0.392 N 
ATOM     10  H   UNL d   1      22.305 -20.420   0.303  0.00  0.00     0.156 HD
ATOM     11  H   UNL d   1      23.828 -20.795  -0.382  0.00  0.00     0.156 HD
ENDBRANCH   5   9
BRANCH   3  12
ATOM     12  C   UNL d   1      25.426 -15.421  -0.814  0.00  0.00     0.279 C 
ATOM     13  O   UNL d   1      26.128 -15.166   0.172  0.00  0.00    -0.265 OA
ATOM     14  N   UNL d   1      25.670 -14.746  -2.025  0.00  0.00    -0.243 N 
ATOM     15  H   UNL d   1      25.104 -14.906  -2.836  0.00  0.00     0.192 HD
BRANCH  14  16
ATOM     16  N   UNL d   1      26.700 -13.808  -2.124  0.00  0.00    -0.183 NA
ATOM     17  C   UNL d   1      26.523 -12.811  -2.942  0.00  0.00     0.151 C 
BRANCH  17  18
ATOM     18  C   UNL d   1      27.540 -11.729  -3.112  0.00  0.00     0.005 A 
ATOM     19  C   UNL d   1      28.732 -11.787  -2.380  0.00  0.00     0.016 A 
ATOM     20  C   UNL d   1      29.705 -10.786  -2.520  0.00  0.00     0.025 A 
ATOM     21  C   UNL d   1      29.486  -9.715  -3.385  0.00  0.00     0.035 A 
ATOM     22 CL   UNL d   1      30.679  -8.481  -3.533  0.00  0.00    -0.084 Cl
ATOM     23  C   UNL d   1      28.308  -9.643  -4.125  0.00  0.00     0.048 A 
ATOM     24  C   UNL d   1      27.342 -10.656  -3.998  0.00  0.00     0.047 A 
ATOM     25 CL   UNL d   1      25.900 -10.502  -4.939  0.00  0.00    -0.083 Cl
ENDBRANCH  17  18
ENDBRANCH  14  16
ENDBRANCH   3  12
TORSDOF 4
ENDMDL
MODEL 3
REMARK VINA RESULT:   -26.379      3.576      3.992
REMARK INTER + INTRA:         -28.008
REMARK INTER:                 -27.572
REMARK INTRA:                  -0.436
REMARK CONF_INDEPENDENT:        1.193
REMARK UNBOUND:                -0.436
REMARK  4 active torsions:
REMARK  status: ('A' for Active; 'I' for Inactive)
REMARK    1  A    between atoms: C_3  and  C_4 
REMARK       I    between atoms: C_4  and  N_6 
REMARK    2  A    between atoms: N_6  and  N_7 
REMARK    3  A    between atoms: C_8  and  C_9 
REMARK    4  A    between atoms: C_18  and  N_19 
ROOT
ATOM      1  C   UNL d   1      23.368 -20.061  -0.217  0.00  0.00     0.051 C 
ATOM      2  C   UNL d   1      23.550 -18.591  -0.460  0.00  0.00    -0.016 A 
ATOM      3  C   UNL d   1      24.723 -17.814  -0.431  0.00  0.00     0.084 A 
ATOM      4  S   UNL d   1      24.311 -16.147  -0.789  0.00  0.00    -0.065 SA
ATOM      5  C   UNL d   1      22.651 -16.444  -0.973  0.00  0.00     0.090 A 
ATOM      6  C   UNL d   1      22.373 -17.776  -0.780  0.00  0.00     0.085 A 
ATOM      7  C   UNL d   1      21.019 -18.250  -0.897  0.00  0.00     0.103 C 
ATOM      8  N   UNL d   1      19.905 -18.575  -1.006  0.00  0.00    -0.191 NA
ENDROOT
BRANCH   5   9
ATOM      9  N   UNL d   1      21.780 -15.452  -1.270  0.00  0.00    -0.392 N 
ATOM     10  H   UNL d   1      20.873 -15.641  -1.687  0.00  0.00     0.156 HD
ATOM     11  H   UNL d   1      21.971 -14.466  -1.102  0.00  0.00     0.156 HD
ENDBRANCH   5   9
BRANCH   3  12
ATOM     12  C   UNL d   1      26.189 -18.030  -0.176  0.00  0.00     0.279 C 
ATOM     13  O   UNL d   1      26.591 -18.999   0.478  0.00  0.00    -0.265 OA
ATOM     14  N   UNL d   1      27.123 -17.116  -0.697  0.00  0.00    -0.243 N 
ATOM     15  H   UNL d   1      26.832 -16.304  -1.207  0.00  0.00     0.192 HD
BRANCH  14  16
ATOM     16  N   UNL d   1      28.492 -17.301  -0.494  0.00  0.00    -0.183 NA
ATOM     17  C   UNL d   1      29.174 -16.284  -0.053  0.00  0.00     0.151 C 
BRANCH  17  18
ATOM     18  C   UNL d   1      30.639 -16.367   0.231  0.00  0.00     0.005 A 
ATOM     19  C   UNL d   1      31.187 -15.572   1.245  0.00  0.00     0.016 A 
ATOM     20  C   UNL d   1      32.559 -15.631   1.533  0.00  0.00     0.025 A 
ATOM     21  C   UNL d   1      33.392 -16.476   0.803  0.00  0.00     0.035 A 
ATOM     22 CL   UNL d   1      35.078 -16.524   1.152  0.00  0.00    -0.084 Cl
ATOM     23  C   UNL d   1      32.863 -17.278  -0.207  0.00  0.00     0.048 A 
ATOM     24  C   UNL d   1      31.486 -17.233  -0.483  0.00  0.00     0.047 A 
ATOM     25 CL   UNL d   1      30.896 -18.247  -1.752  0.00  0.00    -0.083 Cl
ENDBRANCH  17  18
ENDBRANCH  14  16
ENDBRANCH   3  12
TORSDOF 4
ENDMDL
MODEL 4
REMARK VINA RESULT:   -26.378      1.656      2.050
REMARK INTER + INTRA:         -28.230
REMARK INTER:                 -27.571
REMARK INTRA:                  -0.659
REMARK CONF_INDEPENDENT:        1.193
REMARK UNBOUND:                -0.659
REMARK  4 active torsions:
REMARK  status: ('A' for Active; 'I' for Inactive)
REMARK    1  A    between atoms: C_3  and  C_4 
REMARK       I    between atoms: C_4  and  N_6 
REMARK    2  A    between atoms: N_6  and  N_7 
REMARK    3  A    between atoms: C_8  and  C_9 
REMARK    4  A    between atoms: C_18  and  N_19 
ROOT
ATOM      1  C   UNL d   1      21.996 -15.365  -1.275  0.00  0.00     0.051 C 
ATOM      2  C   UNL d   1      22.934 -16.477  -0.904  0.00  0.00    -0.016 A 
ATOM      3  C   UNL d   1      24.327 -16.449  -0.704  0.00  0.00     0.084 A 
ATOM      4  S   UNL d   1      24.876 -18.063  -0.294  0.00  0.00    -0.065 SA
ATOM      5  C   UNL d   1      23.336 -18.768  -0.379  0.00  0.00     0.090 A 
ATOM      6  C   UNL d   1      22.390 -17.825  -0.705  0.00  0.00     0.085 A 
ATOM      7  C   UNL d   1      21.007 -18.209  -0.823  0.00  0.00     0.103 C 
ATOM      8  N   UNL d   1      19.904 -18.577  -0.904  0.00  0.00    -0.191 NA
ENDROOT
BRANCH   5   9
ATOM      9  N   UNL d   1      23.143 -20.086  -0.145  0.00  0.00    -0.392 N 
ATOM     10  H   UNL d   1      23.855 -20.780  -0.359  0.00  0.00     0.156 HD
ATOM     11  H   UNL d   1      22.286 -20.468   0.251  0.00  0.00     0.156 HD
ENDBRANCH   5   9
BRANCH   3  12
ATOM     12  C   UNL d   1      25.431 -15.431  -0.754  0.00  0.00     0.279 C 
ATOM     13  O   UNL d   1      25.492 -14.590  -1.659  0.00  0.00    -0.265 OA
ATOM     14  N   UNL d   1      26.416 -15.430   0.252  0.00  0.00    -0.243 N 
ATOM     15  H   UNL d   1      26.416 -16.113   0.985  0.00  0.00     0.192 HD
BRANCH  14  16
ATOM     16  N   UNL d   1      27.443 -14.484   0.244  0.00  0.00    -0.183 NA
ATOM     17  C   UNL d   1      27.252 -13.389   0.922  0.00  0.00     0.151 C 
BRANCH  17  18
ATOM     18  C   UNL d   1      28.288 -12.316   1.014  0.00  0.00     0.005 A 
ATOM     19  C   UNL d   1      29.029 -12.177   2.194  0.00  0.00     0.016 A 
ATOM     20  C   UNL d   1      30.008 -11.179   2.308  0.00  0.00     0.025 A 
ATOM     21  C   UNL d   1      30.245 -10.308   1.247  0.00  0.00     0.035 A 
ATOM     22 CL   UNL d   1      31.436  -9.073   1.406  0.00  0.00    -0.084 Cl
ATOM     23  C   UNL d   1      29.522 -10.434   0.063  0.00  0.00     0.048 A 
ATOM     24  C   UNL d   1      28.554 -11.446  -0.058  0.00  0.00     0.047 A 
ATOM     25 CL   UNL d   1      27.686 -11.543  -1.550  0.00  0.00    -0.083 Cl
ENDBRANCH  17  18
ENDBRANCH  14  16
ENDBRANCH   3  12
TORSDOF 4
ENDMDL
MODEL 5
REMARK VINA RESULT:   -26.318      3.461      3.888
REMARK INTER + INTRA:         -28.112
REMARK INTER:                 -27.511
REMARK INTRA:                  -0.601
REMARK CONF_INDEPENDENT:        1.193
REMARK UNBOUND:                -0.601
REMARK  4 active torsions:
REMARK  status: ('A' for Active; 'I' for Inactive)
REMARK    1  A    between atoms: C_3  and  C_4 
REMARK       I    between atoms: C_4  and  N_6 
REMARK    2  A    between atoms: N_6  and  N_7 
REMARK    3  A    between atoms: C_8  and  C_9 
REMARK    4  A    between atoms: C_18  and  N_19 
ROOT
ATOM      1  C   UNL d   1      23.377 -20.047  -0.165  0.00  0.00     0.051 C 
ATOM      2  C   UNL d   1      23.555 -18.581  -0.431  0.00  0.00    -0.016 A 
ATOM      3  C   UNL d   1      24.728 -17.802  -0.424  0.00  0.00     0.084 A 
ATOM      4  S   UNL d   1      24.310 -16.141  -0.803  0.00  0.00    -0.065 SA
ATOM      5  C   UNL d   1      22.649 -16.441  -0.967  0.00  0.00     0.090 A 
ATOM      6  C   UNL d   1      22.375 -17.771  -0.752  0.00  0.00     0.085 A 
ATOM      7  C   UNL d   1      21.019 -18.247  -0.850  0.00  0.00     0.103 C 
ATOM      8  N   UNL d   1      19.905 -18.575  -0.943  0.00  0.00    -0.191 NA
ENDROOT
BRANCH   5   9
ATOM      9  N   UNL d   1      21.775 -15.455  -1.270  0.00  0.00    -0.392 N 
ATOM     10  H   UNL d   1      20.819 -15.652  -1.554  0.00  0.00     0.156 HD
ATOM     11  H   UNL d   1      22.010 -14.464  -1.239  0.00  0.00     0.156 HD
ENDBRANCH   5   9
BRANCH   3  12
ATOM     12  C   UNL d   1      26.195 -18.014  -0.180  0.00  0.00     0.279 C 
ATOM     13  O   UNL d   1      26.597 -18.755   0.725  0.00  0.00    -0.265 OA
ATOM     14  N   UNL d   1      27.134 -17.360  -1.000  0.00  0.00    -0.243 N 
ATOM     15  H   UNL d   1      26.847 -16.731  -1.725  0.00  0.00     0.192 HD
BRANCH  14  16
ATOM     16  N   UNL d   1      28.504 -17.553  -0.811  0.00  0.00    -0.183 NA
ATOM     17  C   UNL d   1      29.147 -16.647  -0.132  0.00  0.00     0.151 C 
BRANCH  17  18
ATOM     18  C   UNL d   1      30.608 -16.756   0.162  0.00  0.00     0.005 A 
ATOM     19  C   UNL d   1      31.336 -17.827  -0.372  0.00  0.00     0.016 A 
ATOM     20  C   UNL d   1      32.708 -17.955  -0.113  0.00  0.00     0.025 A 
ATOM     21  C   UNL d   1      33.359 -17.020   0.690  0.00  0.00     0.035 A 
ATOM     22 CL   UNL d   1      35.040 -17.199   1.018  0.00  0.00    -0.084 Cl
ATOM     23  C   UNL d   1      32.652 -15.945   1.226  0.00  0.00     0.048 A 
ATOM     24  C   UNL d   1      31.280 -15.807   0.951  0.00  0.00     0.047 A 
ATOM     25 CL   UNL d   1      30.461 -14.457   1.652  0.00  0.00    -0.083 Cl
ENDBRANCH  17  18
ENDBRANCH  14  16
ENDBRANCH   3  12
TORSDOF 4
ENDMDL
MODEL 6
REMARK VINA RESULT:   -24.456      1.910      2.385
REMARK INTER + INTRA:         -26.198
REMARK INTER:                 -25.650
REMARK INTRA:                  -0.549
REMARK CONF_INDEPENDENT:        1.193
REMARK UNBOUND:                -0.549
REMARK  4 active torsions:
REMARK  status: ('A' for Active; 'I' for Inactive)
REMARK    1  A    between atoms: C_3  and  C_4 
REMARK       I    between atoms: C_4  and  N_6 
REMARK    2  A    between atoms: N_6  and  N_7 
REMARK    3  A    between atoms: C_8  and  C_9 
REMARK    4  A    between atoms: C_18  and  N_19 
ROOT
ATOM      1  C   UNL d   1      23.465 -19.946  -0.149  0.00  0.00     0.051 C 
ATOM      2  C   UNL d   1      23.342 -18.491  -0.494  0.00  0.00    -0.016 A 
ATOM      3  C   UNL d   1      24.314 -17.473  -0.457  0.00  0.00     0.084 A 
ATOM      4  S   UNL d   1      23.579 -15.965  -0.966  0.00  0.00    -0.065 SA
ATOM      5  C   UNL d   1      22.040 -16.631  -1.222  0.00  0.00     0.090 A 
ATOM      6  C   UNL d   1      22.044 -17.977  -0.944  0.00  0.00     0.085 A 
ATOM      7  C   UNL d   1      20.836 -18.744  -1.103  0.00  0.00     0.103 C 
ATOM      8  N   UNL d   1      19.830 -19.313  -1.251  0.00  0.00    -0.191 NA
ENDROOT
BRANCH   5   9
ATOM      9  N   UNL d   1      21.000 -15.876  -1.645  0.00  0.00    -0.392 N 
ATOM     10  H   UNL d   1      20.036 -16.130  -1.446  0.00  0.00     0.156 HD
ATOM     11  H   UNL d   1      21.109 -15.020  -2.185  0.00  0.00     0.156 HD
ENDBRANCH   5   9
BRANCH   3  12
ATOM     12  C   UNL d   1      25.769 -17.345  -0.101  0.00  0.00     0.279 C 
ATOM     13  O   UNL d   1      26.549 -18.295  -0.231  0.00  0.00    -0.265 OA
ATOM     14  N   UNL d   1      26.256 -16.117   0.385  0.00  0.00    -0.243 N 
ATOM     15  H   UNL d   1      25.648 -15.334   0.529  0.00  0.00     0.192 HD
BRANCH  14  16
ATOM     16  N   UNL d   1      27.606 -15.961   0.705  0.00  0.00    -0.183 NA
ATOM     17  C   UNL d   1      27.985 -14.796   1.146  0.00  0.00     0.151 C 
BRANCH  17  18
ATOM     18  C   UNL d   1      29.397 -14.516   1.548  0.00  0.00     0.005 A 
ATOM     19  C   UNL d   1      30.385 -14.421   0.561  0.00  0.00     0.016 A 
ATOM     20  C   UNL d   1      31.719 -14.159   0.910  0.00  0.00     0.025 A 
ATOM     21  C   UNL d   1      32.073 -14.001   2.249  0.00  0.00     0.035 A 
ATOM     22 CL   UNL d   1      33.716 -13.700   2.667  0.00  0.00    -0.084 Cl
ATOM     23  C   UNL d   1      31.102 -14.087   3.244  0.00  0.00     0.048 A 
ATOM     24  C   UNL d   1      29.763 -14.331   2.893  0.00  0.00     0.047 A 
ATOM     25 CL   UNL d   1      28.610 -14.434   4.176  0.00  0.00    -0.083 Cl
ENDBRANCH  17  18
ENDBRANCH  14  16
ENDBRANCH   3  12
TORSDOF 4
ENDMDL
