MODEL 1
REMARK VINA RESULT:    -9.239      0.000      0.000
REMARK INTER + INTRA:         -12.696
REMARK INTER:                 -11.327
REMARK INTRA:                  -1.369
REMARK CONF_INDEPENDENT:        2.088
REMARK UNBOUND:                -1.369
REMARK  7 active torsions:
REMARK  status: ('A' for Active; 'I' for Inactive)
REMARK    1  A    between atoms: O_2  and  C_3 
REMARK    2  A    between atoms: C_8  and  N_9 
REMARK       I    between atoms: N_9  and  C_10 
REMARK       I    between atoms: C_10  and  N_11 
REMARK       I    between atoms: C_10  and  N_23 
REMARK       I    between atoms: N_11  and  C_12 
REMARK    3  A    between atoms: C_12  and  C_14 
REMARK    4  A    between atoms: C_18  and  N_19 
REMARK    5  A    between atoms: N_23  and  C_24 
REMARK    6  A    between atoms: C_24  and  C_25 
REMARK    7  A    between atoms: C_25  and  C_26 
ROOT
ATOM      1  N   UNL d   1      25.277 -16.121  -3.096  0.00  0.00    -0.324 N 
ATOM      2  C   UNL d   1      24.699 -16.323  -1.679  0.00  0.00     0.205 C 
ATOM      3  N   UNL d   1      24.831 -15.619  -0.472  0.00  0.00    -0.175 NA
ATOM      4  C   UNL d   1      26.035 -14.932  -0.456  0.00  0.00     0.280 C 
ATOM      5  O   UNL d   1      26.548 -15.431  -1.275  0.00  0.00    -0.265 OA
ATOM      6  N   UNL d   1      24.315 -17.673  -1.453  0.00  0.00    -0.360 N 
ATOM      7  H   UNL d   1      24.993 -16.780  -3.825  0.00  0.00     0.169 HD
ATOM      8  H   UNL d   1      23.973 -18.290  -2.186  0.00  0.00     0.162 HD
ENDROOT
BRANCH   1   9
ATOM      9  C   UNL d   1      26.481 -15.297  -3.641  0.00  0.00     0.068 C 
ATOM     10  C   UNL d   1      27.785 -15.831  -3.535  0.00  0.00     0.032 C 
ATOM     11  C   UNL d   1      28.857 -15.244  -4.285  0.00  0.00     0.002 C 
ATOM     12  C   UNL d   1      28.657 -14.262  -5.275  0.00  0.00     0.003 C 
ATOM     13  C   UNL d   1      27.430 -13.648  -5.354  0.00  0.00     0.039 C 
ATOM     14  C   UNL d   1      26.477 -13.996  -4.374  0.00  0.00     0.095 C 
BRANCH  14  15
ATOM     15  O   UNL d   1      25.661 -12.786  -4.094  0.00  0.00    -0.354 OA
ATOM     16  C   UNL d   1      26.075 -11.593  -3.247  0.00  0.00     0.210 C 
ENDBRANCH  14  15
ENDBRANCH   1   9
BRANCH   6  17
ATOM     17  C   UNL d   1      24.408 -18.208  -0.082  0.00  0.00     0.127 C 
BRANCH  17  18
ATOM     18  C   UNL d   1      23.069 -18.232   0.603  0.00  0.00     0.056 C 
BRANCH  18  19
ATOM     19  C   UNL d   1      21.906 -18.788  -0.164  0.00  0.00    -0.048 A 
ATOM     20  C   UNL d   1      20.863 -19.260   0.518  0.00  0.00    -0.006 A 
ATOM     21  C   UNL d   1      20.655 -19.329   1.916  0.00  0.00     0.014 C 
ATOM     22  C   UNL d   1      19.913 -19.796  -0.455  0.00  0.00     0.038 A 
ATOM     23  C   UNL d   1      19.608 -20.019   2.366  0.00  0.00     0.001 C 
ATOM     24  C   UNL d   1      18.607 -20.536   1.448  0.00  0.00     0.002 C 
ATOM     25  C   UNL d   1      18.708 -20.458   0.102  0.00  0.00     0.030 C 
ATOM     26  N   UNL d   1      20.313 -19.587  -1.655  0.00  0.00    -0.385 N 
ATOM     27  C   UNL d   1      21.684 -18.949  -1.643  0.00  0.00     0.155 A 
ATOM     28  H   UNL d   1      19.731 -19.824  -2.459  0.00  0.00     0.160 HD
ENDBRANCH  18  19
ENDBRANCH  17  18
ENDBRANCH   6  17
BRANCH   4  29
ATOM     29  C   UNL d   1      27.206 -14.272   0.457  0.00  0.00     0.036 C 
ATOM     30  C   UNL d   1      28.453 -13.947  -0.125  0.00  0.00     0.017 C 
ATOM     31  C   UNL d   1      29.592 -13.575   0.661  0.00  0.00     0.003 C 
ATOM     32  C   UNL d   1      29.565 -13.574   2.062  0.00  0.00     0.029 C 
ATOM     33  C   UNL d   1      28.501 -14.159   2.729  0.00  0.00     0.030 C 
ATOM     34  C   UNL d   1      27.397 -14.494   1.881  0.00  0.00     0.046 C 
BRANCH  33  35
ATOM     35  N   UNL d   1      28.495 -14.435   4.100  0.00  0.00    -0.390 N 
ATOM     36  C   UNL d   1      29.692 -14.953   4.771  0.00  0.00     0.149 C 
ATOM     37  C   UNL d   1      27.413 -14.056   5.029  0.00  0.00     0.149 C 
ENDBRANCH  33  35
ENDBRANCH   4  29
TORSDOF 7
ENDMDL
MODEL 2
REMARK VINA RESULT:    -8.871      2.334      7.468
REMARK INTER + INTRA:         -12.917
REMARK INTER:                 -10.959
REMARK INTRA:                  -1.958
REMARK CONF_INDEPENDENT:        2.088
REMARK UNBOUND:                -1.958
REMARK  7 active torsions:
REMARK  status: ('A' for Active; 'I' for Inactive)
REMARK    1  A    between atoms: O_2  and  C_3 
REMARK    2  A    between atoms: C_8  and  N_9 
REMARK       I    between atoms: N_9  and  C_10 
REMARK       I    between atoms: C_10  and  N_11 
REMARK       I    between atoms: C_10  and  N_23 
REMARK       I    between atoms: N_11  and  C_12 
REMARK    3  A    between atoms: C_12  and  C_14 
REMARK    4  A    between atoms: C_18  and  N_19 
REMARK    5  A    between atoms: N_23  and  C_24 
REMARK    6  A    between atoms: C_24  and  C_25 
REMARK    7  A    between atoms: C_25  and  C_26 
ROOT
ATOM      1  N   UNL d   1      25.254 -16.165  -2.769  0.00  0.00    -0.324 N 
ATOM      2  C   UNL d   1      26.311 -15.048  -2.907  0.00  0.00     0.205 C 
ATOM      3  N   UNL d   1      27.233 -14.474  -2.019  0.00  0.00    -0.175 NA
ATOM      4  C   UNL d   1      26.779 -14.610  -0.716  0.00  0.00     0.280 C 
ATOM      5  O   UNL d   1      25.738 -14.863  -0.904  0.00  0.00    -0.265 OA
ATOM      6  N   UNL d   1      26.011 -14.169  -3.984  0.00  0.00    -0.360 N 
ATOM      7  H   UNL d   1      24.716 -16.418  -3.602  0.00  0.00     0.169 HD
ATOM      8  H   UNL d   1      25.532 -14.462  -4.832  0.00  0.00     0.162 HD
ENDROOT
BRANCH   1   9
ATOM      9  C   UNL d   1      24.564 -16.823  -1.537  0.00  0.00     0.068 C 
ATOM     10  C   UNL d   1      23.328 -16.307  -1.084  0.00  0.00     0.032 C 
ATOM     11  C   UNL d   1      22.537 -17.067  -0.160  0.00  0.00     0.002 C 
ATOM     12  C   UNL d   1      22.833 -18.398   0.194  0.00  0.00     0.003 C 
ATOM     13  C   UNL d   1      24.063 -18.911  -0.145  0.00  0.00     0.039 C 
ATOM     14  C   UNL d   1      24.975 -18.030  -0.761  0.00  0.00     0.095 C 
BRANCH  14  15
ATOM     15  O   UNL d   1      26.339 -18.414  -0.314  0.00  0.00    -0.354 OA
ATOM     16  C   UNL d   1      27.260 -17.599   0.580  0.00  0.00     0.210 C 
ENDBRANCH  14  15
ENDBRANCH   1   9
BRANCH   6  17
ATOM     17  C   UNL d   1      26.426 -12.758  -3.873  0.00  0.00     0.127 C 
BRANCH  17  18
ATOM     18  C   UNL d   1      27.866 -12.563  -4.263  0.00  0.00     0.056 C 
BRANCH  18  19
ATOM     19  C   UNL d   1      28.340 -13.224  -5.523  0.00  0.00    -0.048 A 
ATOM     20  C   UNL d   1      28.899 -14.430  -5.436  0.00  0.00    -0.006 A 
ATOM     21  C   UNL d   1      29.133 -15.236  -4.296  0.00  0.00     0.014 C 
ATOM     22  C   UNL d   1      29.328 -14.809  -6.781  0.00  0.00     0.038 A 
ATOM     23  C   UNL d   1      29.882 -16.329  -4.439  0.00  0.00     0.001 C 
ATOM     24  C   UNL d   1      30.298 -16.780  -5.755  0.00  0.00     0.002 C 
ATOM     25  C   UNL d   1      30.063 -16.093  -6.897  0.00  0.00     0.030 C 
ATOM     26  N   UNL d   1      28.976 -13.929  -7.643  0.00  0.00    -0.385 N 
ATOM     27  C   UNL d   1      28.330 -12.750  -6.951  0.00  0.00     0.155 A 
ATOM     28  H   UNL d   1      29.124 -14.075  -8.643  0.00  0.00     0.160 HD
ENDBRANCH  18  19
ENDBRANCH  17  18
ENDBRANCH   6  17
BRANCH   4  29
ATOM     29  C   UNL d   1      26.821 -14.029   0.801  0.00  0.00     0.036 C 
ATOM     30  C   UNL d   1      26.475 -12.680   1.049  0.00  0.00     0.017 C 
ATOM     31  C   UNL d   1      26.704 -12.051   2.315  0.00  0.00     0.003 C 
ATOM     32  C   UNL d   1      27.349 -12.708   3.372  0.00  0.00     0.029 C 
ATOM     33  C   UNL d   1      27.991 -13.913   3.140  0.00  0.00     0.030 C 
ATOM     34  C   UNL d   1      27.707 -14.487   1.859  0.00  0.00     0.046 C 
BRANCH  33  35
ATOM     35  N   UNL d   1      28.867 -14.519   4.046  0.00  0.00    -0.390 N 
ATOM     36  C   UNL d   1      30.319 -14.449   3.854  0.00  0.00     0.149 C 
ATOM     37  C   UNL d   1      28.470 -15.084   5.350  0.00  0.00     0.149 C 
ENDBRANCH  33  35
ENDBRANCH   4  29
TORSDOF 7
ENDMDL
MODEL 3
REMARK VINA RESULT:    -8.781      2.370      7.522
REMARK INTER + INTRA:         -13.101
REMARK INTER:                 -10.869
REMARK INTRA:                  -2.233
REMARK CONF_INDEPENDENT:        2.088
REMARK UNBOUND:                -2.233
REMARK  7 active torsions:
REMARK  status: ('A' for Active; 'I' for Inactive)
REMARK    1  A    between atoms: O_2  and  C_3 
REMARK    2  A    between atoms: C_8  and  N_9 
REMARK       I    between atoms: N_9  and  C_10 
REMARK       I    between atoms: C_10  and  N_11 
REMARK       I    between atoms: C_10  and  N_23 
REMARK       I    between atoms: N_11  and  C_12 
REMARK    3  A    between atoms: C_12  and  C_14 
REMARK    4  A    between atoms: C_18  and  N_19 
REMARK    5  A    between atoms: N_23  and  C_24 
REMARK    6  A    between atoms: C_24  and  C_25 
REMARK    7  A    between atoms: C_25  and  C_26 
ROOT
ATOM      1  N   UNL d   1      27.867 -12.120  -1.765  0.00  0.00    -0.324 N 
ATOM      2  C   UNL d   1      28.059 -12.317  -0.246  0.00  0.00     0.205 C 
ATOM      3  N   UNL d   1      28.137 -13.450   0.579  0.00  0.00    -0.175 NA
ATOM      4  C   UNL d   1      27.458 -14.507  -0.006  0.00  0.00     0.280 C 
ATOM      5  O   UNL d   1      26.882 -13.970  -0.756  0.00  0.00    -0.265 OA
ATOM      6  N   UNL d   1      27.671 -11.164   0.489  0.00  0.00    -0.360 N 
ATOM      7  H   UNL d   1      27.875 -11.163  -2.127  0.00  0.00     0.169 HD
ATOM      8  H   UNL d   1      27.752 -10.216   0.130  0.00  0.00     0.162 HD
ENDROOT
BRANCH   1   9
ATOM      9  C   UNL d   1      27.335 -13.051  -2.895  0.00  0.00     0.068 C 
ATOM     10  C   UNL d   1      28.033 -14.244  -3.189  0.00  0.00     0.032 C 
ATOM     11  C   UNL d   1      27.410 -15.250  -4.000  0.00  0.00     0.002 C 
ATOM     12  C   UNL d   1      26.055 -15.202  -4.382  0.00  0.00     0.003 C 
ATOM     13  C   UNL d   1      25.362 -14.028  -4.201  0.00  0.00     0.039 C 
ATOM     14  C   UNL d   1      26.091 -12.925  -3.711  0.00  0.00     0.095 C 
BRANCH  14  15
ATOM     15  O   UNL d   1      25.516 -11.701  -4.326  0.00  0.00    -0.354 OA
ATOM     16  C   UNL d   1      25.905 -11.094  -5.665  0.00  0.00     0.210 C 
ENDBRANCH  14  15
ENDBRANCH   1   9
BRANCH   6  17
ATOM     17  C   UNL d   1      27.132 -11.349   1.849  0.00  0.00     0.127 C 
BRANCH  17  18
ATOM     18  C   UNL d   1      28.069 -10.822   2.901  0.00  0.00     0.056 C 
BRANCH  18  19
ATOM     19  C   UNL d   1      29.112 -11.759   3.434  0.00  0.00    -0.048 A 
ATOM     20  C   UNL d   1      28.714 -12.888   4.019  0.00  0.00    -0.006 A 
ATOM     21  C   UNL d   1      27.404 -13.381   4.231  0.00  0.00     0.014 C 
ATOM     22  C   UNL d   1      29.910 -13.574   4.502  0.00  0.00     0.038 A 
ATOM     23  C   UNL d   1      27.251 -14.451   5.010  0.00  0.00     0.001 C 
ATOM     24  C   UNL d   1      28.403 -15.200   5.482  0.00  0.00     0.002 C 
ATOM     25  C   UNL d   1      29.684 -14.823   5.270  0.00  0.00     0.030 C 
ATOM     26  N   UNL d   1      30.974 -12.945   4.159  0.00  0.00    -0.385 N 
ATOM     27  C   UNL d   1      30.613 -11.652   3.463  0.00  0.00     0.155 A 
ATOM     28  H   UNL d   1      31.902 -13.328   4.346  0.00  0.00     0.160 HD
ENDBRANCH  18  19
ENDBRANCH  17  18
ENDBRANCH   6  17
BRANCH   4  29
ATOM     29  C   UNL d   1      26.670 -15.908   0.230  0.00  0.00     0.036 C 
ATOM     30  C   UNL d   1      27.394 -17.119   0.316  0.00  0.00     0.017 C 
ATOM     31  C   UNL d   1      26.753 -18.399   0.299  0.00  0.00     0.003 C 
ATOM     32  C   UNL d   1      25.369 -18.540   0.127  0.00  0.00     0.029 C 
ATOM     33  C   UNL d   1      24.612 -17.448  -0.264  0.00  0.00     0.030 C 
ATOM     34  C   UNL d   1      25.316 -16.203  -0.211  0.00  0.00     0.046 C 
BRANCH  33  35
ATOM     35  N   UNL d   1      23.287 -17.533  -0.703  0.00  0.00    -0.390 N 
ATOM     36  C   UNL d   1      22.477 -16.325  -0.895  0.00  0.00     0.149 C 
ATOM     37  C   UNL d   1      22.645 -18.761  -1.209  0.00  0.00     0.149 C 
ENDBRANCH  33  35
ENDBRANCH   4  29
TORSDOF 7
ENDMDL
MODEL 4
REMARK VINA RESULT:    -7.826      2.501      7.349
REMARK INTER + INTRA:         -12.636
REMARK INTER:                  -9.914
REMARK INTRA:                  -2.722
REMARK CONF_INDEPENDENT:        2.088
REMARK UNBOUND:                -2.722
REMARK  7 active torsions:
REMARK  status: ('A' for Active; 'I' for Inactive)
REMARK    1  A    between atoms: O_2  and  C_3 
REMARK    2  A    between atoms: C_8  and  N_9 
REMARK       I    between atoms: N_9  and  C_10 
REMARK       I    between atoms: C_10  and  N_11 
REMARK       I    between atoms: C_10  and  N_23 
REMARK       I    between atoms: N_11  and  C_12 
REMARK    3  A    between atoms: C_12  and  C_14 
REMARK    4  A    between atoms: C_18  and  N_19 
REMARK    5  A    between atoms: N_23  and  C_24 
REMARK    6  A    between atoms: C_24  and  C_25 
REMARK    7  A    between atoms: C_25  and  C_26 
ROOT
ATOM      1  N   UNL d   1      29.081 -13.539  -3.526  0.00  0.00    -0.324 N 
ATOM      2  C   UNL d   1      29.944 -14.339  -2.527  0.00  0.00     0.205 C 
ATOM      3  N   UNL d   1      29.743 -15.530  -1.814  0.00  0.00    -0.175 NA
ATOM      4  C   UNL d   1      28.387 -15.742  -1.622  0.00  0.00     0.280 C 
ATOM      5  O   UNL d   1      28.006 -14.750  -1.857  0.00  0.00    -0.265 OA
ATOM      6  N   UNL d   1      30.926 -13.520  -1.905  0.00  0.00    -0.360 N 
ATOM      7  H   UNL d   1      29.485 -12.693  -3.936  0.00  0.00     0.169 HD
ATOM      8  H   UNL d   1      31.362 -12.722  -2.361  0.00  0.00     0.162 HD
ENDROOT
BRANCH   1   9
ATOM      9  C   UNL d   1      27.556 -13.541  -3.847  0.00  0.00     0.068 C 
ATOM     10  C   UNL d   1      27.015 -14.600  -4.610  0.00  0.00     0.032 C 
ATOM     11  C   UNL d   1      25.593 -14.784  -4.662  0.00  0.00     0.002 C 
ATOM     12  C   UNL d   1      24.694 -14.072  -3.844  0.00  0.00     0.003 C 
ATOM     13  C   UNL d   1      25.157 -12.975  -3.156  0.00  0.00     0.039 C 
ATOM     14  C   UNL d   1      26.496 -12.597  -3.385  0.00  0.00     0.095 C 
BRANCH  14  15
ATOM     15  O   UNL d   1      26.564 -11.115  -3.287  0.00  0.00    -0.354 OA
ATOM     16  C   UNL d   1      27.568 -10.309  -2.478  0.00  0.00     0.210 C 
ENDBRANCH  14  15
ENDBRANCH   1   9
BRANCH   6  17
ATOM     17  C   UNL d   1      31.344 -13.850  -0.530  0.00  0.00     0.127 C 
BRANCH  17  18
ATOM     18  C   UNL d   1      30.437 -13.230   0.497  0.00  0.00     0.056 C 
BRANCH  18  19
ATOM     19  C   UNL d   1      30.450 -13.814   1.878  0.00  0.00    -0.048 A 
ATOM     20  C   UNL d   1      29.299 -13.894   2.545  0.00  0.00    -0.006 A 
ATOM     21  C   UNL d   1      27.997 -13.503   2.149  0.00  0.00     0.014 C 
ATOM     22  C   UNL d   1      29.600 -14.430   3.871  0.00  0.00     0.038 A 
ATOM     23  C   UNL d   1      27.030 -13.509   3.065  0.00  0.00     0.001 C 
ATOM     24  C   UNL d   1      27.258 -14.071   4.385  0.00  0.00     0.002 C 
ATOM     25  C   UNL d   1      28.460 -14.518   4.816  0.00  0.00     0.030 C 
ATOM     26  N   UNL d   1      30.840 -14.736   3.975  0.00  0.00    -0.385 N 
ATOM     27  C   UNL d   1      31.582 -14.335   2.720  0.00  0.00     0.155 A 
ATOM     28  H   UNL d   1      31.206 -15.199   4.808  0.00  0.00     0.160 HD
ENDBRANCH  18  19
ENDBRANCH  17  18
ENDBRANCH   6  17
BRANCH   4  29
ATOM     29  C   UNL d   1      27.240 -16.446  -0.711  0.00  0.00     0.036 C 
ATOM     30  C   UNL d   1      27.595 -17.458   0.210  0.00  0.00     0.017 C 
ATOM     31  C   UNL d   1      26.618 -18.267   0.874  0.00  0.00     0.003 C 
ATOM     32  C   UNL d   1      25.246 -18.156   0.605  0.00  0.00     0.029 C 
ATOM     33  C   UNL d   1      24.820 -17.417  -0.486  0.00  0.00     0.030 C 
ATOM     34  C   UNL d   1      25.848 -16.626  -1.091  0.00  0.00     0.046 C 
BRANCH  33  35
ATOM     35  N   UNL d   1      23.515 -17.447  -0.987  0.00  0.00    -0.390 N 
ATOM     36  C   UNL d   1      22.966 -18.666  -1.590  0.00  0.00     0.149 C 
ATOM     37  C   UNL d   1      22.512 -16.384  -0.787  0.00  0.00     0.149 C 
ENDBRANCH  33  35
ENDBRANCH   4  29
TORSDOF 7
ENDMDL
MODEL 5
REMARK VINA RESULT:    -6.910      2.867      7.703
REMARK INTER + INTRA:         -12.794
REMARK INTER:                  -8.998
REMARK INTRA:                  -3.796
REMARK CONF_INDEPENDENT:        2.088
REMARK UNBOUND:                -3.796
REMARK  7 active torsions:
REMARK  status: ('A' for Active; 'I' for Inactive)
REMARK    1  A    between atoms: O_2  and  C_3 
REMARK    2  A    between atoms: C_8  and  N_9 
REMARK       I    between atoms: N_9  and  C_10 
REMARK       I    between atoms: C_10  and  N_11 
REMARK       I    between atoms: C_10  and  N_23 
REMARK       I    between atoms: N_11  and  C_12 
REMARK    3  A    between atoms: C_12  and  C_14 
REMARK    4  A    between atoms: C_18  and  N_19 
REMARK    5  A    between atoms: N_23  and  C_24 
REMARK    6  A    between atoms: C_24  and  C_25 
REMARK    7  A    between atoms: C_25  and  C_26 
ROOT
ATOM      1  N   UNL d   1      29.341 -13.325  -2.286  0.00  0.00    -0.324 N 
ATOM      2  C   UNL d   1      27.994 -12.762  -1.783  0.00  0.00     0.205 C 
ATOM      3  N   UNL d   1      27.075 -13.182  -0.809  0.00  0.00    -0.175 NA
ATOM      4  C   UNL d   1      27.171 -14.552  -0.629  0.00  0.00     0.280 C 
ATOM      5  O   UNL d   1      27.733 -14.821  -1.521  0.00  0.00    -0.265 OA
ATOM      6  N   UNL d   1      27.379 -11.921  -2.751  0.00  0.00    -0.360 N 
ATOM      7  H   UNL d   1      29.839 -12.797  -3.007  0.00  0.00     0.169 HD
ATOM      8  H   UNL d   1      27.901 -11.354  -3.414  0.00  0.00     0.162 HD
ENDROOT
BRANCH   1   9
ATOM      9  C   UNL d   1      30.010 -14.728  -2.175  0.00  0.00     0.068 C 
ATOM     10  C   UNL d   1      30.683 -15.077  -0.982  0.00  0.00     0.032 C 
ATOM     11  C   UNL d   1      31.040 -16.445  -0.741  0.00  0.00     0.002 C 
ATOM     12  C   UNL d   1      30.597 -17.510  -1.551  0.00  0.00     0.003 C 
ATOM     13  C   UNL d   1      30.021 -17.219  -2.764  0.00  0.00     0.039 C 
ATOM     14  C   UNL d   1      29.986 -15.862  -3.146  0.00  0.00     0.095 C 
BRANCH  14  15
ATOM     15  O   UNL d   1      30.135 -15.809  -4.623  0.00  0.00    -0.354 OA
ATOM     16  C   UNL d   1      30.337 -16.995  -5.554  0.00  0.00     0.210 C 
ENDBRANCH  14  15
ENDBRANCH   1   9
BRANCH   6  17
ATOM     17  C   UNL d   1      25.906 -11.859  -2.790  0.00  0.00     0.127 C 
BRANCH  17  18
ATOM     18  C   UNL d   1      25.324 -12.899  -3.708  0.00  0.00     0.056 C 
BRANCH  18  19
ATOM     19  C   UNL d   1      26.275 -13.846  -4.377  0.00  0.00    -0.048 A 
ATOM     20  C   UNL d   1      27.040 -13.386  -5.366  0.00  0.00    -0.006 A 
ATOM     21  C   UNL d   1      27.112 -12.085  -5.921  0.00  0.00     0.014 C 
ATOM     22  C   UNL d   1      27.813 -14.514  -5.880  0.00  0.00     0.038 A 
ATOM     23  C   UNL d   1      27.822 -11.913  -7.035  0.00  0.00     0.001 C 
ATOM     24  C   UNL d   1      28.645 -12.985  -7.567  0.00  0.00     0.002 C 
ATOM     25  C   UNL d   1      28.673 -14.237  -7.057  0.00  0.00     0.030 C 
ATOM     26  N   UNL d   1      27.596 -15.574  -5.193  0.00  0.00    -0.385 N 
ATOM     27  C   UNL d   1      26.531 -15.311  -4.152  0.00  0.00     0.155 A 
ATOM     28  H   UNL d   1      28.116 -16.436  -5.366  0.00  0.00     0.160 HD
ENDBRANCH  18  19
ENDBRANCH  17  18
ENDBRANCH   6  17
BRANCH   4  29
ATOM     29  C   UNL d   1      26.418 -15.914  -0.159  0.00  0.00     0.036 C 
ATOM     30  C   UNL d   1      27.161 -17.102   0.026  0.00  0.00     0.017 C 
ATOM     31  C   UNL d   1      26.535 -18.375   0.219  0.00  0.00     0.003 C 
ATOM     32  C   UNL d   1      25.144 -18.541   0.169  0.00  0.00     0.029 C 
ATOM     33  C   UNL d   1      24.348 -17.509  -0.302  0.00  0.00     0.030 C 
ATOM     34  C   UNL d   1      25.039 -16.265  -0.459  0.00  0.00     0.046 C 
BRANCH  33  35
ATOM     35  N   UNL d   1      22.995 -17.653  -0.628  0.00  0.00    -0.390 N 
ATOM     36  C   UNL d   1      22.155 -16.480  -0.894  0.00  0.00     0.149 C 
ATOM     37  C   UNL d   1      22.337 -18.935  -0.942  0.00  0.00     0.149 C 
ENDBRANCH  33  35
ENDBRANCH   4  29
TORSDOF 7
ENDMDL
MODEL 6
REMARK VINA RESULT:    -6.583      2.678      7.079
REMARK INTER + INTRA:         -13.629
REMARK INTER:                  -8.672
REMARK INTRA:                  -4.957
REMARK CONF_INDEPENDENT:        2.088
REMARK UNBOUND:                -4.957
REMARK  7 active torsions:
REMARK  status: ('A' for Active; 'I' for Inactive)
REMARK    1  A    between atoms: O_2  and  C_3 
REMARK    2  A    between atoms: C_8  and  N_9 
REMARK       I    between atoms: N_9  and  C_10 
REMARK       I    between atoms: C_10  and  N_11 
REMARK       I    between atoms: C_10  and  N_23 
REMARK       I    between atoms: N_11  and  C_12 
REMARK    3  A    between atoms: C_12  and  C_14 
REMARK    4  A    between atoms: C_18  and  N_19 
REMARK    5  A    between atoms: N_23  and  C_24 
REMARK    6  A    between atoms: C_24  and  C_25 
REMARK    7  A    between atoms: C_25  and  C_26 
ROOT
ATOM      1  N   UNL d   1      29.328 -14.476  -4.221  0.00  0.00    -0.324 N 
ATOM      2  C   UNL d   1      30.143 -15.429  -3.321  0.00  0.00     0.205 C 
ATOM      3  N   UNL d   1      29.807 -16.547  -2.542  0.00  0.00    -0.175 NA
ATOM      4  C   UNL d   1      28.478 -16.473  -2.159  0.00  0.00     0.280 C 
ATOM      5  O   UNL d   1      28.277 -15.426  -2.376  0.00  0.00    -0.265 OA
ATOM      6  N   UNL d   1      31.350 -14.826  -2.870  0.00  0.00    -0.360 N 
ATOM      7  H   UNL d   1      29.834 -13.736  -4.713  0.00  0.00     0.169 HD
ATOM      8  H   UNL d   1      31.870 -14.139  -3.410  0.00  0.00     0.162 HD
ENDROOT
BRANCH   1   9
ATOM      9  C   UNL d   1      27.805 -14.166  -4.328  0.00  0.00     0.068 C 
ATOM     10  C   UNL d   1      26.951 -15.112  -4.938  0.00  0.00     0.032 C 
ATOM     11  C   UNL d   1      25.531 -14.992  -4.783  0.00  0.00     0.002 C 
ATOM     12  C   UNL d   1      24.927 -14.075  -3.899  0.00  0.00     0.003 C 
ATOM     13  C   UNL d   1      25.702 -13.078  -3.355  0.00  0.00     0.039 C 
ATOM     14  C   UNL d   1      27.041 -13.001  -3.790  0.00  0.00     0.095 C 
BRANCH  14  15
ATOM     15  O   UNL d   1      27.426 -11.566  -3.801  0.00  0.00    -0.354 OA
ATOM     16  C   UNL d   1      26.532 -10.394  -4.174  0.00  0.00     0.210 C 
ENDBRANCH  14  15
ENDBRANCH   1   9
BRANCH   6  17
ATOM     17  C   UNL d   1      31.883 -15.225  -1.554  0.00  0.00     0.127 C 
BRANCH  17  18
ATOM     18  C   UNL d   1      31.462 -14.274  -0.466  0.00  0.00     0.056 C 
BRANCH  18  19
ATOM     19  C   UNL d   1      30.255 -13.421  -0.718  0.00  0.00    -0.048 A 
ATOM     20  C   UNL d   1      29.146 -13.667  -0.022  0.00  0.00    -0.006 A 
ATOM     21  C   UNL d   1      28.901 -14.648   0.969  0.00  0.00     0.014 C 
ATOM     22  C   UNL d   1      28.116 -12.749  -0.504  0.00  0.00     0.038 A 
ATOM     23  C   UNL d   1      27.649 -14.822   1.390  0.00  0.00     0.001 C 
ATOM     24  C   UNL d   1      26.593 -13.913   0.981  0.00  0.00     0.002 C 
ATOM     25  C   UNL d   1      26.763 -12.916   0.082  0.00  0.00     0.030 C 
ATOM     26  N   UNL d   1      28.590 -11.940  -1.377  0.00  0.00    -0.385 N 
ATOM     27  C   UNL d   1      30.030 -12.288  -1.682  0.00  0.00     0.155 A 
ATOM     28  H   UNL d   1      28.027 -11.179  -1.759  0.00  0.00     0.160 HD
ENDBRANCH  18  19
ENDBRANCH  17  18
ENDBRANCH   6  17
BRANCH   4  29
ATOM     29  C   UNL d   1      27.353 -16.918  -1.074  0.00  0.00     0.036 C 
ATOM     30  C   UNL d   1      27.678 -17.853  -0.065  0.00  0.00     0.017 C 
ATOM     31  C   UNL d   1      26.684 -18.451   0.776  0.00  0.00     0.003 C 
ATOM     32  C   UNL d   1      25.315 -18.200   0.610  0.00  0.00     0.029 C 
ATOM     33  C   UNL d   1      24.871 -17.544  -0.526  0.00  0.00     0.030 C 
ATOM     34  C   UNL d   1      25.919 -16.964  -1.311  0.00  0.00     0.046 C 
BRANCH  33  35
ATOM     35  N   UNL d   1      23.528 -17.468  -0.910  0.00  0.00    -0.390 N 
ATOM     36  C   UNL d   1      22.746 -18.682  -1.164  0.00  0.00     0.149 C 
ATOM     37  C   UNL d   1      22.718 -16.235  -0.895  0.00  0.00     0.149 C 
ENDBRANCH  33  35
ENDBRANCH   4  29
TORSDOF 7
ENDMDL
