MODEL 1
REMARK VINA RESULT:    -7.894      0.000      0.000
REMARK INTER + INTRA:         -12.668
REMARK INTER:                 -10.280
REMARK INTRA:                  -2.387
REMARK CONF_INDEPENDENT:        2.386
REMARK UNBOUND:                -2.387
REMARK  8 active torsions:
REMARK  status: ('A' for Active; 'I' for Inactive)
REMARK    1  A    between atoms: CB_2  and  CA_4 
REMARK    2  A    between atoms: CA_4  and  N_5 
REMARK    3  A    between atoms: CA_4  and  C_31 
REMARK       I    between atoms: N_5  and  C_6 
REMARK    4  A    between atoms: C_6  and  C_8 
REMARK    5  A    between atoms: C_8  and  C_9 
REMARK    6  A    between atoms: C_8  and  N_19 
REMARK    7  A    between atoms: C_9  and  C_10 
REMARK    8  A    between atoms: C_29  and  O_30 
ROOT
ATOM      1  C   UNK d   0      28.388 -13.072   1.930  0.00  0.00     0.188 C 
ENDROOT
BRANCH   1   2
ATOM      2  C   UNK d   0      28.270 -11.576   1.533  0.00  0.00     0.241 C 
ATOM      3  N   VAL d   1      27.249 -10.816   2.091  0.00  0.00    -0.344 N 
ATOM      4  H   VAL d   1      26.444 -11.262   2.517  0.00  0.00     0.163 HD
ATOM      5  O   UNK d   0      29.033 -11.096   0.691  0.00  0.00    -0.271 OA
BRANCH   3   6
ATOM      6  CA  VAL d   1      27.019  -9.399   1.637  0.00  0.00     0.189 C 
BRANCH   6   7
ATOM      7  CB  VAL d   1      28.079  -8.564   2.373  0.00  0.00     0.010 C 
ATOM      8  CG1 VAL d   1      28.180  -7.127   1.834  0.00  0.00     0.012 C 
ATOM      9  CG2 VAL d   1      27.823  -8.473   3.871  0.00  0.00     0.012 C 
ENDBRANCH   6   7
BRANCH   6  10
ATOM     10  C   VAL d   1      25.532  -8.841   1.842  0.00  0.00     0.197 C 
ATOM     11  O   VAL d   1      25.280  -7.704   1.355  0.00  0.00    -0.646 OA
ATOM     12  OXT VAL d   1      24.738  -9.575   2.503  0.00  0.00    -0.646 OA
ENDBRANCH   6  10
ENDBRANCH   3   6
ENDBRANCH   1   2
BRANCH   1  13
ATOM     13  C   UNK d   0      27.336 -13.282   3.052  0.00  0.00     0.076 C 
BRANCH  13  14
ATOM     14  C   UNK d   0      27.875 -13.714   4.391  0.00  0.00    -0.028 C 
ATOM     15  C   UNK d   0      28.405 -14.941   4.707  0.00  0.00     0.096 C 
ATOM     16  N   UNK d   0      28.489 -15.056   6.069  0.00  0.00    -0.365 N 
ATOM     17  C   UNK d   0      28.530 -13.788   6.581  0.00  0.00     0.042 A 
ATOM     18  H   UNK d   0      28.645 -15.947   6.541  0.00  0.00     0.165 HD
ATOM     19  C   UNK d   0      28.898 -13.338   7.849  0.00  0.00     0.030 A 
ATOM     20  C   UNK d   0      28.154 -12.927   5.542  0.00  0.00    -0.002 A 
ATOM     21  C   UNK d   0      28.933 -11.955   8.035  0.00  0.00     0.002 A 
ATOM     22  C   UNK d   0      28.586 -11.072   7.010  0.00  0.00     0.001 A 
ATOM     23  C   UNK d   0      28.172 -11.545   5.766  0.00  0.00     0.014 A 
ENDBRANCH  13  14
ENDBRANCH   1  13
BRANCH   1  24
ATOM     24  N   UNK d   0      28.204 -14.042   0.766  0.00  0.00    -0.290 N 
ATOM     25  C   UNK d   0      26.970 -14.154   0.117  0.00  0.00     0.260 C 
ATOM     26  O   UNK d   0      26.279 -13.222  -0.235  0.00  0.00    -0.267 OA
ATOM     27  C   UNK d   0      26.504 -15.556  -0.122  0.00  0.00     0.058 A 
ATOM     28  C   UNK d   0      25.222 -15.809  -0.613  0.00  0.00     0.019 A 
ATOM     29  C   UNK d   0      27.356 -16.606   0.238  0.00  0.00     0.047 A 
ATOM     30  C   UNK d   0      24.786 -17.128  -0.742  0.00  0.00     0.001 A 
ATOM     31  C   UNK d   0      25.629 -18.182  -0.388  0.00  0.00     0.002 A 
ATOM     32  C   UNK d   0      26.912 -17.921   0.095  0.00  0.00     0.030 A 
ATOM     33  N   UNK d   0      28.655 -16.341   0.605  0.00  0.00    -0.346 N 
ATOM     34  C   UNK d   0      29.193 -15.031   0.414  0.00  0.00     0.332 C 
ATOM     35  H   UNK d   0      29.220 -17.006   1.111  0.00  0.00     0.164 HD
BRANCH  34  36
ATOM     36  O   UNK d   0      29.504 -14.881  -0.959  0.00  0.00    -0.359 OA
ATOM     37  H   UNK d   0      28.890 -14.213  -1.288  0.00  0.00     0.214 HD
ENDBRANCH  34  36
ENDBRANCH   1  24
TORSDOF 8
ENDMDL
MODEL 2
REMARK VINA RESULT:    -7.764      4.011      7.112
REMARK INTER + INTRA:         -12.550
REMARK INTER:                 -10.150
REMARK INTRA:                  -2.400
REMARK CONF_INDEPENDENT:        2.386
REMARK UNBOUND:                -2.400
REMARK  8 active torsions:
REMARK  status: ('A' for Active; 'I' for Inactive)
REMARK    1  A    between atoms: CB_2  and  CA_4 
REMARK    2  A    between atoms: CA_4  and  N_5 
REMARK    3  A    between atoms: CA_4  and  C_31 
REMARK       I    between atoms: N_5  and  C_6 
REMARK    4  A    between atoms: C_6  and  C_8 
REMARK    5  A    between atoms: C_8  and  C_9 
REMARK    6  A    between atoms: C_8  and  N_19 
REMARK    7  A    between atoms: C_9  and  C_10 
REMARK    8  A    between atoms: C_29  and  O_30 
ROOT
ATOM      1  C   UNK d   0      26.989 -14.850  -2.191  0.00  0.00     0.188 C 
ENDROOT
BRANCH   1   2
ATOM      2  C   UNK d   0      27.986 -13.828  -1.581  0.00  0.00     0.241 C 
ATOM      3  N   VAL d   1      27.528 -12.555  -1.266  0.00  0.00    -0.344 N 
ATOM      4  H   VAL d   1      26.665 -12.200  -1.666  0.00  0.00     0.163 HD
ATOM      5  O   UNK d   0      29.174 -14.129  -1.440  0.00  0.00    -0.271 OA
BRANCH   3   6
ATOM      6  CA  VAL d   1      28.486 -11.494  -0.795  0.00  0.00     0.189 C 
BRANCH   6   7
ATOM      7  CB  VAL d   1      28.416 -11.542   0.740  0.00  0.00     0.010 C 
ATOM      8  CG1 VAL d   1      27.026 -11.945   1.258  0.00  0.00     0.012 C 
ATOM      9  CG2 VAL d   1      29.426 -12.506   1.347  0.00  0.00     0.012 C 
ENDBRANCH   6   7
BRANCH   6  10
ATOM     10  C   VAL d   1      28.239 -10.026  -1.386  0.00  0.00     0.197 C 
ATOM     11  O   VAL d   1      29.099  -9.147  -1.101  0.00  0.00    -0.646 OA
ATOM     12  OXT VAL d   1      27.182  -9.861  -2.066  0.00  0.00    -0.646 OA
ENDBRANCH   6  10
ENDBRANCH   3   6
ENDBRANCH   1   2
BRANCH   1  13
ATOM     13  C   UNK d   0      25.862 -15.002  -1.134  0.00  0.00     0.076 C 
BRANCH  13  14
ATOM     14  C   UNK d   0      25.512 -16.413  -0.740  0.00  0.00    -0.028 C 
ATOM     15  C   UNK d   0      26.317 -17.307  -0.076  0.00  0.00     0.096 C 
ATOM     16  N   UNK d   0      25.777 -18.560  -0.180  0.00  0.00    -0.365 N 
ATOM     17  C   UNK d   0      24.438 -18.407  -0.416  0.00  0.00     0.042 A 
ATOM     18  H   UNK d   0      26.299 -19.409   0.042  0.00  0.00     0.165 HD
ATOM     19  C   UNK d   0      23.393 -19.325  -0.317  0.00  0.00     0.030 A 
ATOM     20  C   UNK d   0      24.247 -17.063  -0.763  0.00  0.00    -0.002 A 
ATOM     21  C   UNK d   0      22.104 -18.830  -0.528  0.00  0.00     0.002 A 
ATOM     22  C   UNK d   0      21.882 -17.490  -0.853  0.00  0.00     0.001 A 
ATOM     23  C   UNK d   0      22.946 -16.601  -0.996  0.00  0.00     0.014 A 
ENDBRANCH  13  14
ENDBRANCH   1  13
BRANCH   1  24
ATOM     24  N   UNK d   0      26.455 -14.456  -3.565  0.00  0.00    -0.290 N 
ATOM     25  C   UNK d   0      27.248 -14.598  -4.708  0.00  0.00     0.260 C 
ATOM     26  O   UNK d   0      27.912 -15.575  -4.980  0.00  0.00    -0.267 OA
ATOM     27  C   UNK d   0      27.256 -13.417  -5.627  0.00  0.00     0.058 A 
ATOM     28  C   UNK d   0      28.126 -13.364  -6.717  0.00  0.00     0.019 A 
ATOM     29  C   UNK d   0      26.427 -12.332  -5.315  0.00  0.00     0.047 A 
ATOM     30  C   UNK d   0      28.171 -12.212  -7.502  0.00  0.00     0.001 A 
ATOM     31  C   UNK d   0      27.347 -11.126  -7.201  0.00  0.00     0.002 A 
ATOM     32  C   UNK d   0      26.475 -11.189  -6.114  0.00  0.00     0.030 A 
ATOM     33  N   UNK d   0      25.492 -12.449  -4.313  0.00  0.00    -0.346 N 
ATOM     34  C   UNK d   0      25.221 -13.730  -3.740  0.00  0.00     0.332 C 
ATOM     35  H   UNK d   0      25.061 -11.646  -3.880  0.00  0.00     0.164 HD
BRANCH  34  36
ATOM     36  O   UNK d   0      24.405 -14.450  -4.645  0.00  0.00    -0.359 OA
ATOM     37  H   UNK d   0      23.712 -13.832  -4.911  0.00  0.00     0.214 HD
ENDBRANCH  34  36
ENDBRANCH   1  24
TORSDOF 8
ENDMDL
MODEL 3
REMARK VINA RESULT:    -7.701      6.023      8.782
REMARK INTER + INTRA:         -13.087
REMARK INTER:                 -10.088
REMARK INTRA:                  -2.999
REMARK CONF_INDEPENDENT:        2.386
REMARK UNBOUND:                -2.999
REMARK  8 active torsions:
REMARK  status: ('A' for Active; 'I' for Inactive)
REMARK    1  A    between atoms: CB_2  and  CA_4 
REMARK    2  A    between atoms: CA_4  and  N_5 
REMARK    3  A    between atoms: CA_4  and  C_31 
REMARK       I    between atoms: N_5  and  C_6 
REMARK    4  A    between atoms: C_6  and  C_8 
REMARK    5  A    between atoms: C_8  and  C_9 
REMARK    6  A    between atoms: C_8  and  N_19 
REMARK    7  A    between atoms: C_9  and  C_10 
REMARK    8  A    between atoms: C_29  and  O_30 
ROOT
ATOM      1  C   UNK d   0      27.013 -15.662  -3.117  0.00  0.00     0.188 C 
ENDROOT
BRANCH   1   2
ATOM      2  C   UNK d   0      28.547 -15.628  -3.353  0.00  0.00     0.241 C 
ATOM      3  N   VAL d   1      29.038 -15.964  -4.608  0.00  0.00    -0.344 N 
ATOM      4  H   VAL d   1      28.465 -16.480  -5.268  0.00  0.00     0.163 HD
ATOM      5  O   UNK d   0      29.311 -15.366  -2.420  0.00  0.00    -0.271 OA
BRANCH   3   6
ATOM      6  CA  VAL d   1      30.521 -16.069  -4.844  0.00  0.00     0.189 C 
BRANCH   6   7
ATOM      7  CB  VAL d   1      30.894 -14.801  -5.629  0.00  0.00     0.010 C 
ATOM      8  CG1 VAL d   1      30.043 -14.615  -6.895  0.00  0.00     0.012 C 
ATOM      9  CG2 VAL d   1      30.760 -13.532  -4.798  0.00  0.00     0.012 C 
ENDBRANCH   6   7
BRANCH   6  10
ATOM     10  C   VAL d   1      31.013 -17.414  -5.560  0.00  0.00     0.197 C 
ATOM     11  O   VAL d   1      30.118 -18.162  -6.042  0.00  0.00    -0.646 OA
ATOM     12  OXT VAL d   1      32.262 -17.632  -5.557  0.00  0.00    -0.646 OA
ENDBRANCH   6  10
ENDBRANCH   3   6
ENDBRANCH   1   2
BRANCH   1  13
ATOM     13  C   UNK d   0      26.830 -15.457  -1.589  0.00  0.00     0.076 C 
BRANCH  13  14
ATOM     14  C   UNK d   0      26.183 -16.595  -0.843  0.00  0.00    -0.028 C 
ATOM     15  C   UNK d   0      26.774 -17.406   0.095  0.00  0.00     0.096 C 
ATOM     16  N   UNK d   0      25.979 -18.500   0.308  0.00  0.00    -0.365 N 
ATOM     17  C   UNK d   0      24.705 -18.151  -0.050  0.00  0.00     0.042 A 
ATOM     18  H   UNK d   0      26.306 -19.337   0.791  0.00  0.00     0.165 HD
ATOM     19  C   UNK d   0      23.487 -18.771   0.230  0.00  0.00     0.030 A 
ATOM     20  C   UNK d   0      24.808 -16.953  -0.769  0.00  0.00    -0.002 A 
ATOM     21  C   UNK d   0      22.335 -18.105  -0.196  0.00  0.00     0.002 A 
ATOM     22  C   UNK d   0      22.408 -16.898  -0.894  0.00  0.00     0.001 A 
ATOM     23  C   UNK d   0      23.638 -16.322  -1.208  0.00  0.00     0.014 A 
ENDBRANCH  13  14
ENDBRANCH   1  13
BRANCH   1  24
ATOM     24  N   UNK d   0      26.234 -14.643  -3.943  0.00  0.00    -0.290 N 
ATOM     25  C   UNK d   0      26.699 -14.231  -5.196  0.00  0.00     0.260 C 
ATOM     26  O   UNK d   0      27.121 -14.969  -6.061  0.00  0.00    -0.267 OA
ATOM     27  C   UNK d   0      26.669 -12.754  -5.431  0.00  0.00     0.058 A 
ATOM     28  C   UNK d   0      27.252 -12.199  -6.572  0.00  0.00     0.019 A 
ATOM     29  C   UNK d   0      26.117 -11.938  -4.437  0.00  0.00     0.047 A 
ATOM     30  C   UNK d   0      27.286 -10.812  -6.719  0.00  0.00     0.001 A 
ATOM     31  C   UNK d   0      26.734  -9.990  -5.734  0.00  0.00     0.002 A 
ATOM     32  C   UNK d   0      26.147 -10.553  -4.600  0.00  0.00     0.030 A 
ATOM     33  N   UNK d   0      25.441 -12.505  -3.381  0.00  0.00    -0.346 N 
ATOM     34  C   UNK d   0      25.120 -13.898  -3.409  0.00  0.00     0.332 C 
ATOM     35  H   UNK d   0      25.255 -12.002  -2.527  0.00  0.00     0.164 HD
BRANCH  34  36
ATOM     36  O   UNK d   0      24.011 -14.074  -4.270  0.00  0.00    -0.359 OA
ATOM     37  H   UNK d   0      24.163 -13.470  -5.008  0.00  0.00     0.214 HD
ENDBRANCH  34  36
ENDBRANCH   1  24
TORSDOF 8
ENDMDL
MODEL 4
REMARK VINA RESULT:    -7.548      2.010      6.438
REMARK INTER + INTRA:         -12.320
REMARK INTER:                  -9.934
REMARK INTRA:                  -2.385
REMARK CONF_INDEPENDENT:        2.386
REMARK UNBOUND:                -2.385
REMARK  8 active torsions:
REMARK  status: ('A' for Active; 'I' for Inactive)
REMARK    1  A    between atoms: CB_2  and  CA_4 
REMARK    2  A    between atoms: CA_4  and  N_5 
REMARK    3  A    between atoms: CA_4  and  C_31 
REMARK       I    between atoms: N_5  and  C_6 
REMARK    4  A    between atoms: C_6  and  C_8 
REMARK    5  A    between atoms: C_8  and  C_9 
REMARK    6  A    between atoms: C_8  and  N_19 
REMARK    7  A    between atoms: C_9  and  C_10 
REMARK    8  A    between atoms: C_29  and  O_30 
ROOT
ATOM      1  C   UNK d   0      27.331 -13.781   1.889  0.00  0.00     0.188 C 
ENDROOT
BRANCH   1   2
ATOM      2  C   UNK d   0      27.214 -12.374   1.245  0.00  0.00     0.241 C 
ATOM      3  N   VAL d   1      27.240 -11.257   2.071  0.00  0.00    -0.344 N 
ATOM      4  H   VAL d   1      27.060 -11.343   3.066  0.00  0.00     0.163 HD
ATOM      5  O   UNK d   0      27.040 -12.262   0.029  0.00  0.00    -0.271 OA
BRANCH   3   6
ATOM      6  CA  VAL d   1      27.001  -9.884   1.503  0.00  0.00     0.189 C 
BRANCH   6   7
ATOM      7  CB  VAL d   1      28.392  -9.363   1.109  0.00  0.00     0.010 C 
ATOM      8  CG1 VAL d   1      29.510  -9.920   2.006  0.00  0.00     0.012 C 
ATOM      9  CG2 VAL d   1      28.759  -9.690  -0.332  0.00  0.00     0.012 C 
ENDBRANCH   6   7
BRANCH   6  10
ATOM     10  C   VAL d   1      26.202  -8.872   2.454  0.00  0.00     0.197 C 
ATOM     11  O   VAL d   1      26.279  -9.080   3.697  0.00  0.00    -0.646 OA
ATOM     12  OXT VAL d   1      25.531  -7.964   1.878  0.00  0.00    -0.646 OA
ENDBRANCH   6  10
ENDBRANCH   3   6
ENDBRANCH   1   2
BRANCH   1  13
ATOM     13  C   UNK d   0      27.799 -14.718   0.742  0.00  0.00     0.076 C 
BRANCH  13  14
ATOM     14  C   UNK d   0      26.736 -15.147  -0.236  0.00  0.00    -0.028 C 
ATOM     15  C   UNK d   0      26.461 -14.576  -1.455  0.00  0.00     0.096 C 
ATOM     16  N   UNK d   0      25.248 -15.030  -1.898  0.00  0.00    -0.365 N 
ATOM     17  C   UNK d   0      25.010 -16.227  -1.279  0.00  0.00     0.042 A 
ATOM     18  H   UNK d   0      24.738 -14.588  -2.664  0.00  0.00     0.165 HD
ATOM     19  C   UNK d   0      24.088 -17.230  -1.576  0.00  0.00     0.030 A 
ATOM     20  C   UNK d   0      25.939 -16.324  -0.235  0.00  0.00    -0.002 A 
ATOM     21  C   UNK d   0      24.162 -18.394  -0.808  0.00  0.00     0.002 A 
ATOM     22  C   UNK d   0      25.092 -18.528   0.224  0.00  0.00     0.001 A 
ATOM     23  C   UNK d   0      25.971 -17.493   0.537  0.00  0.00     0.014 A 
ENDBRANCH  13  14
ENDBRANCH   1  13
BRANCH   1  24
ATOM     24  N   UNK d   0      28.255 -13.836   3.103  0.00  0.00    -0.290 N 
ATOM     25  C   UNK d   0      27.733 -13.795   4.400  0.00  0.00     0.260 C 
ATOM     26  O   UNK d   0      26.784 -14.440   4.791  0.00  0.00    -0.267 OA
ATOM     27  C   UNK d   0      28.427 -12.855   5.335  0.00  0.00     0.058 A 
ATOM     28  C   UNK d   0      27.910 -12.600   6.606  0.00  0.00     0.019 A 
ATOM     29  C   UNK d   0      29.559 -12.175   4.869  0.00  0.00     0.047 A 
ATOM     30  C   UNK d   0      28.531 -11.651   7.420  0.00  0.00     0.001 A 
ATOM     31  C   UNK d   0      29.662 -10.971   6.965  0.00  0.00     0.002 A 
ATOM     32  C   UNK d   0      30.176 -11.237   5.696  0.00  0.00     0.030 A 
ATOM     33  N   UNK d   0      30.123 -12.527   3.664  0.00  0.00    -0.346 N 
ATOM     34  C   UNK d   0      29.688 -13.714   2.996  0.00  0.00     0.332 C 
ATOM     35  H   UNK d   0      30.758 -11.921   3.168  0.00  0.00     0.164 HD
BRANCH  34  36
ATOM     36  O   UNK d   0      30.279 -14.823   3.646  0.00  0.00    -0.359 OA
ATOM     37  H   UNK d   0      29.692 -15.568   3.465  0.00  0.00     0.214 HD
ENDBRANCH  34  36
ENDBRANCH   1  24
TORSDOF 8
ENDMDL
MODEL 5
REMARK VINA RESULT:    -7.040      5.534      7.952
REMARK INTER + INTRA:         -12.558
REMARK INTER:                  -9.427
REMARK INTRA:                  -3.131
REMARK CONF_INDEPENDENT:        2.386
REMARK UNBOUND:                -3.131
REMARK  8 active torsions:
REMARK  status: ('A' for Active; 'I' for Inactive)
REMARK    1  A    between atoms: CB_2  and  CA_4 
REMARK    2  A    between atoms: CA_4  and  N_5 
REMARK    3  A    between atoms: CA_4  and  C_31 
REMARK       I    between atoms: N_5  and  C_6 
REMARK    4  A    between atoms: C_6  and  C_8 
REMARK    5  A    between atoms: C_8  and  C_9 
REMARK    6  A    between atoms: C_8  and  N_19 
REMARK    7  A    between atoms: C_9  and  C_10 
REMARK    8  A    between atoms: C_29  and  O_30 
ROOT
ATOM      1  C   UNK d   0      27.257 -15.104  -2.573  0.00  0.00     0.188 C 
ENDROOT
BRANCH   1   2
ATOM      2  C   UNK d   0      28.582 -14.394  -2.187  0.00  0.00     0.241 C 
ATOM      3  N   VAL d   1      29.438 -13.982  -3.200  0.00  0.00    -0.344 N 
ATOM      4  H   VAL d   1      29.357 -14.365  -4.136  0.00  0.00     0.163 HD
ATOM      5  O   UNK d   0      28.889 -14.258  -1.000  0.00  0.00    -0.271 OA
BRANCH   3   6
ATOM      6  CA  VAL d   1      30.790 -13.407  -2.870  0.00  0.00     0.189 C 
BRANCH   6   7
ATOM      7  CB  VAL d   1      30.616 -11.883  -2.977  0.00  0.00     0.010 C 
ATOM      8  CG1 VAL d   1      30.201 -11.432  -4.387  0.00  0.00     0.012 C 
ATOM      9  CG2 VAL d   1      29.584 -11.336  -2.000  0.00  0.00     0.012 C 
ENDBRANCH   6   7
BRANCH   6  10
ATOM     10  C   VAL d   1      32.010 -13.959  -3.747  0.00  0.00     0.197 C 
ATOM     11  O   VAL d   1      33.172 -13.654  -3.360  0.00  0.00    -0.646 OA
ATOM     12  OXT VAL d   1      31.706 -14.633  -4.778  0.00  0.00    -0.646 OA
ENDBRANCH   6  10
ENDBRANCH   3   6
ENDBRANCH   1   2
BRANCH   1  13
ATOM     13  C   UNK d   0      26.381 -15.059  -1.291  0.00  0.00     0.076 C 
BRANCH  13  14
ATOM     14  C   UNK d   0      25.880 -16.387  -0.786  0.00  0.00    -0.028 C 
ATOM     15  C   UNK d   0      26.581 -17.301  -0.038  0.00  0.00     0.096 C 
ATOM     16  N   UNK d   0      25.911 -18.494  -0.045  0.00  0.00    -0.365 N 
ATOM     17  C   UNK d   0      24.598 -18.222  -0.314  0.00  0.00     0.042 A 
ATOM     18  H   UNK d   0      26.339 -19.372   0.255  0.00  0.00     0.165 HD
ATOM     19  C   UNK d   0      23.460 -19.013  -0.155  0.00  0.00     0.030 A 
ATOM     20  C   UNK d   0      24.553 -16.899  -0.775  0.00  0.00    -0.002 A 
ATOM     21  C   UNK d   0      22.233 -18.405  -0.427  0.00  0.00     0.002 A 
ATOM     22  C   UNK d   0      22.157 -17.081  -0.866  0.00  0.00     0.001 A 
ATOM     23  C   UNK d   0      23.310 -16.325  -1.066  0.00  0.00     0.014 A 
ENDBRANCH  13  14
ENDBRANCH   1  13
BRANCH   1  24
ATOM     24  N   UNK d   0      26.554 -14.497  -3.784  0.00  0.00    -0.290 N 
ATOM     25  C   UNK d   0      27.227 -14.351  -5.002  0.00  0.00     0.260 C 
ATOM     26  O   UNK d   0      27.916 -15.201  -5.524  0.00  0.00    -0.267 OA
ATOM     27  C   UNK d   0      27.064 -13.018  -5.662  0.00  0.00     0.058 A 
ATOM     28  C   UNK d   0      27.808 -12.686  -6.796  0.00  0.00     0.019 A 
ATOM     29  C   UNK d   0      26.210 -12.085  -5.064  0.00  0.00     0.047 A 
ATOM     30  C   UNK d   0      27.698 -11.405  -7.336  0.00  0.00     0.001 A 
ATOM     31  C   UNK d   0      26.847 -10.467  -6.748  0.00  0.00     0.002 A 
ATOM     32  C   UNK d   0      26.101 -10.809  -5.619  0.00  0.00     0.030 A 
ATOM     33  N   UNK d   0      25.396 -12.467  -4.023  0.00  0.00    -0.346 N 
ATOM     34  C   UNK d   0      25.267 -13.853  -3.694  0.00  0.00     0.332 C 
ATOM     35  H   UNK d   0      24.967 -11.800  -3.399  0.00  0.00     0.164 HD
BRANCH  34  36
ATOM     36  O   UNK d   0      24.404 -14.448  -4.645  0.00  0.00    -0.359 OA
ATOM     37  H   UNK d   0      24.009 -13.711  -5.128  0.00  0.00     0.214 HD
ENDBRANCH  34  36
ENDBRANCH   1  24
TORSDOF 8
ENDMDL
MODEL 6
REMARK VINA RESULT:    -6.439      5.286      7.666
REMARK INTER + INTRA:         -12.326
REMARK INTER:                  -8.826
REMARK INTRA:                  -3.501
REMARK CONF_INDEPENDENT:        2.386
REMARK UNBOUND:                -3.501
REMARK  8 active torsions:
REMARK  status: ('A' for Active; 'I' for Inactive)
REMARK    1  A    between atoms: CB_2  and  CA_4 
REMARK    2  A    between atoms: CA_4  and  N_5 
REMARK    3  A    between atoms: CA_4  and  C_31 
REMARK       I    between atoms: N_5  and  C_6 
REMARK    4  A    between atoms: C_6  and  C_8 
REMARK    5  A    between atoms: C_8  and  C_9 
REMARK    6  A    between atoms: C_8  and  N_19 
REMARK    7  A    between atoms: C_9  and  C_10 
REMARK    8  A    between atoms: C_29  and  O_30 
ROOT
ATOM      1  C   UNK d   0      27.893 -14.304  -1.169  0.00  0.00     0.188 C 
ENDROOT
BRANCH   1   2
ATOM      2  C   UNK d   0      28.722 -13.896  -2.415  0.00  0.00     0.241 C 
ATOM      3  N   VAL d   1      28.299 -14.320  -3.668  0.00  0.00    -0.344 N 
ATOM      4  H   VAL d   1      27.646 -15.091  -3.761  0.00  0.00     0.163 HD
ATOM      5  O   UNK d   0      29.770 -13.257  -2.280  0.00  0.00    -0.271 OA
BRANCH   3   6
ATOM      6  CA  VAL d   1      29.141 -14.056  -4.888  0.00  0.00     0.189 C 
BRANCH   6   7
ATOM      7  CB  VAL d   1      29.138 -12.528  -5.056  0.00  0.00     0.010 C 
ATOM      8  CG1 VAL d   1      30.525 -11.905  -4.835  0.00  0.00     0.012 C 
ATOM      9  CG2 VAL d   1      28.653 -12.087  -6.430  0.00  0.00     0.012 C 
ENDBRANCH   6   7
BRANCH   6  10
ATOM     10  C   VAL d   1      28.696 -14.832  -6.216  0.00  0.00     0.197 C 
ATOM     11  O   VAL d   1      27.490 -15.200  -6.282  0.00  0.00    -0.646 OA
ATOM     12  OXT VAL d   1      29.600 -15.039  -7.080  0.00  0.00    -0.646 OA
ENDBRANCH   6  10
ENDBRANCH   3   6
ENDBRANCH   1   2
BRANCH   1  13
ATOM     13  C   UNK d   0      26.681 -13.333  -1.147  0.00  0.00     0.076 C 
BRANCH  13  14
ATOM     14  C   UNK d   0      26.166 -12.890  -2.492  0.00  0.00    -0.028 C 
ATOM     15  C   UNK d   0      25.146 -13.463  -3.212  0.00  0.00     0.096 C 
ATOM     16  N   UNK d   0      25.182 -12.988  -4.496  0.00  0.00    -0.365 N 
ATOM     17  C   UNK d   0      25.829 -11.783  -4.465  0.00  0.00     0.042 A 
ATOM     18  H   UNK d   0      24.669 -13.425  -5.262  0.00  0.00     0.165 HD
ATOM     19  C   UNK d   0      25.885 -10.764  -5.416  0.00  0.00     0.030 A 
ATOM     20  C   UNK d   0      26.449 -11.697  -3.212  0.00  0.00    -0.002 A 
ATOM     21  C   UNK d   0      26.553  -9.596  -5.042  0.00  0.00     0.002 A 
ATOM     22  C   UNK d   0      27.161  -9.474  -3.790  0.00  0.00     0.001 A 
ATOM     23  C   UNK d   0      27.137 -10.524  -2.875  0.00  0.00     0.014 A 
ENDBRANCH  13  14
ENDBRANCH   1  13
BRANCH   1  24
ATOM     24  N   UNK d   0      27.469 -15.770  -1.156  0.00  0.00    -0.290 N 
ATOM     25  C   UNK d   0      26.446 -16.225  -1.995  0.00  0.00     0.260 C 
ATOM     26  O   UNK d   0      26.335 -15.953  -3.171  0.00  0.00    -0.267 OA
ATOM     27  C   UNK d   0      25.427 -17.101  -1.336  0.00  0.00     0.058 A 
ATOM     28  C   UNK d   0      24.272 -17.490  -2.017  0.00  0.00     0.019 A 
ATOM     29  C   UNK d   0      25.622 -17.447   0.006  0.00  0.00     0.047 A 
ATOM     30  C   UNK d   0      23.299 -18.233  -1.347  0.00  0.00     0.001 A 
ATOM     31  C   UNK d   0      23.486 -18.586  -0.009  0.00  0.00     0.002 A 
ATOM     32  C   UNK d   0      24.646 -18.199   0.662  0.00  0.00     0.030 A 
ATOM     33  N   UNK d   0      26.817 -17.159   0.622  0.00  0.00    -0.346 N 
ATOM     34  C   UNK d   0      27.926 -16.704  -0.157  0.00  0.00     0.332 C 
ATOM     35  H   UNK d   0      26.918 -17.147   1.626  0.00  0.00     0.164 HD
BRANCH  34  36
ATOM     36  O   UNK d   0      28.486 -17.824  -0.816  0.00  0.00    -0.359 OA
ATOM     37  H   UNK d   0      29.013 -18.278  -0.145  0.00  0.00     0.214 HD
ENDBRANCH  34  36
ENDBRANCH   1  24
TORSDOF 8
ENDMDL
MODEL 7
REMARK VINA RESULT:    -6.343      5.670      9.055
REMARK INTER + INTRA:         -12.379
REMARK INTER:                  -8.730
REMARK INTRA:                  -3.649
REMARK CONF_INDEPENDENT:        2.386
REMARK UNBOUND:                -3.649
REMARK  8 active torsions:
REMARK  status: ('A' for Active; 'I' for Inactive)
REMARK    1  A    between atoms: CB_2  and  CA_4 
REMARK    2  A    between atoms: CA_4  and  N_5 
REMARK    3  A    between atoms: CA_4  and  C_31 
REMARK       I    between atoms: N_5  and  C_6 
REMARK    4  A    between atoms: C_6  and  C_8 
REMARK    5  A    between atoms: C_8  and  C_9 
REMARK    6  A    between atoms: C_8  and  N_19 
REMARK    7  A    between atoms: C_9  and  C_10 
REMARK    8  A    between atoms: C_29  and  O_30 
ROOT
ATOM      1  C   UNK d   0      25.516 -13.619  -4.718  0.00  0.00     0.188 C 
ENDROOT
BRANCH   1   2
ATOM      2  C   UNK d   0      26.486 -14.801  -4.979  0.00  0.00     0.241 C 
ATOM      3  N   VAL d   1      27.850 -14.546  -5.037  0.00  0.00    -0.344 N 
ATOM      4  H   VAL d   1      28.196 -13.604  -5.187  0.00  0.00     0.163 HD
ATOM      5  O   UNK d   0      26.041 -15.933  -5.190  0.00  0.00    -0.271 OA
BRANCH   3   6
ATOM      6  CA  VAL d   1      28.815 -15.638  -5.415  0.00  0.00     0.189 C 
BRANCH   6   7
ATOM      7  CB  VAL d   1      29.280 -16.244  -4.080  0.00  0.00     0.010 C 
ATOM      8  CG1 VAL d   1      30.073 -17.548  -4.265  0.00  0.00     0.012 C 
ATOM      9  CG2 VAL d   1      30.149 -15.292  -3.271  0.00  0.00     0.012 C 
ENDBRANCH   6   7
BRANCH   6  10
ATOM     10  C   VAL d   1      30.033 -15.190  -6.354  0.00  0.00     0.197 C 
ATOM     11  O   VAL d   1      30.790 -16.108  -6.778  0.00  0.00    -0.646 OA
ATOM     12  OXT VAL d   1      30.154 -13.947  -6.569  0.00  0.00    -0.646 OA
ENDBRANCH   6  10
ENDBRANCH   3   6
ENDBRANCH   1   2
BRANCH   1  13
ATOM     13  C   UNK d   0      24.942 -13.866  -3.296  0.00  0.00     0.076 C 
BRANCH  13  14
ATOM     14  C   UNK d   0      25.805 -14.683  -2.369  0.00  0.00    -0.028 C 
ATOM     15  C   UNK d   0      27.001 -14.303  -1.810  0.00  0.00     0.096 C 
ATOM     16  N   UNK d   0      27.625 -15.407  -1.294  0.00  0.00    -0.365 N 
ATOM     17  C   UNK d   0      26.656 -16.341  -1.044  0.00  0.00     0.042 A 
ATOM     18  H   UNK d   0      28.609 -15.412  -1.026  0.00  0.00     0.165 HD
ATOM     19  C   UNK d   0      26.699 -17.501  -0.269  0.00  0.00     0.030 A 
ATOM     20  C   UNK d   0      25.501 -15.903  -1.704  0.00  0.00    -0.002 A 
ATOM     21  C   UNK d   0      25.499 -18.200  -0.126  0.00  0.00     0.002 A 
ATOM     22  C   UNK d   0      24.327 -17.774  -0.754  0.00  0.00     0.001 A 
ATOM     23  C   UNK d   0      24.319 -16.640  -1.565  0.00  0.00     0.014 A 
ENDBRANCH  13  14
ENDBRANCH   1  13
BRANCH   1  24
ATOM     24  N   UNK d   0      26.159 -12.242  -4.859  0.00  0.00    -0.290 N 
ATOM     25  C   UNK d   0      25.904 -11.235  -3.923  0.00  0.00     0.260 C 
ATOM     26  O   UNK d   0      25.912 -11.382  -2.719  0.00  0.00    -0.267 OA
ATOM     27  C   UNK d   0      25.586  -9.893  -4.504  0.00  0.00     0.058 A 
ATOM     28  C   UNK d   0      25.156  -8.844  -3.688  0.00  0.00     0.019 A 
ATOM     29  C   UNK d   0      25.649  -9.744  -5.894  0.00  0.00     0.047 A 
ATOM     30  C   UNK d   0      24.783  -7.633  -4.271  0.00  0.00     0.001 A 
ATOM     31  C   UNK d   0      24.846  -7.473  -5.657  0.00  0.00     0.002 A 
ATOM     32  C   UNK d   0      25.283  -8.524  -6.464  0.00  0.00     0.030 A 
ATOM     33  N   UNK d   0      26.189 -10.745  -6.668  0.00  0.00    -0.346 N 
ATOM     34  C   UNK d   0      26.872 -11.835  -6.044  0.00  0.00     0.332 C 
ATOM     35  H   UNK d   0      26.027 -10.806  -7.662  0.00  0.00     0.164 HD
BRANCH  34  36
ATOM     36  O   UNK d   0      28.157 -11.382  -5.658  0.00  0.00    -0.359 OA
ATOM     37  H   UNK d   0      28.772 -12.049  -5.988  0.00  0.00     0.214 HD
ENDBRANCH  34  36
ENDBRANCH   1  24
TORSDOF 8
ENDMDL
MODEL 8
REMARK VINA RESULT:    -5.983      9.354     11.930
REMARK INTER + INTRA:         -12.303
REMARK INTER:                  -8.369
REMARK INTRA:                  -3.934
REMARK CONF_INDEPENDENT:        2.386
REMARK UNBOUND:                -3.934
REMARK  8 active torsions:
REMARK  status: ('A' for Active; 'I' for Inactive)
REMARK    1  A    between atoms: CB_2  and  CA_4 
REMARK    2  A    between atoms: CA_4  and  N_5 
REMARK    3  A    between atoms: CA_4  and  C_31 
REMARK       I    between atoms: N_5  and  C_6 
REMARK    4  A    between atoms: C_6  and  C_8 
REMARK    5  A    between atoms: C_8  and  C_9 
REMARK    6  A    between atoms: C_8  and  N_19 
REMARK    7  A    between atoms: C_9  and  C_10 
REMARK    8  A    between atoms: C_29  and  O_30 
ROOT
ATOM      1  C   UNK d   0      33.504 -20.718   1.540  0.00  0.00     0.188 C 
ENDROOT
BRANCH   1   2
ATOM      2  C   UNK d   0      33.301 -20.408   3.047  0.00  0.00     0.241 C 
ATOM      3  N   VAL d   1      32.931 -21.442   3.898  0.00  0.00    -0.344 N 
ATOM      4  H   VAL d   1      32.534 -22.300   3.529  0.00  0.00     0.163 HD
ATOM      5  O   UNK d   0      33.409 -19.251   3.461  0.00  0.00    -0.271 OA
BRANCH   3   6
ATOM      6  CA  VAL d   1      32.599 -21.162   5.339  0.00  0.00     0.189 C 
BRANCH   6   7
ATOM      7  CB  VAL d   1      33.638 -21.951   6.152  0.00  0.00     0.010 C 
ATOM      8  CG1 VAL d   1      34.857 -22.366   5.312  0.00  0.00     0.012 C 
ATOM      9  CG2 VAL d   1      34.155 -21.178   7.357  0.00  0.00     0.012 C 
ENDBRANCH   6   7
BRANCH   6  10
ATOM     10  C   VAL d   1      31.091 -21.480   5.776  0.00  0.00     0.197 C 
ATOM     11  O   VAL d   1      30.328 -21.947   4.884  0.00  0.00    -0.646 OA
ATOM     12  OXT VAL d   1      30.780 -21.208   6.974  0.00  0.00    -0.646 OA
ENDBRANCH   6  10
ENDBRANCH   3   6
ENDBRANCH   1   2
BRANCH   1  13
ATOM     13  C   UNK d   0      34.327 -22.034   1.500  0.00  0.00     0.076 C 
BRANCH  13  14
ATOM     14  C   UNK d   0      34.053 -22.950   0.336  0.00  0.00    -0.028 C 
ATOM     15  C   UNK d   0      34.546 -22.828  -0.941  0.00  0.00     0.096 C 
ATOM     16  N   UNK d   0      33.835 -23.648  -1.775  0.00  0.00    -0.365 N 
ATOM     17  C   UNK d   0      33.291 -24.639  -1.005  0.00  0.00     0.042 A 
ATOM     18  H   UNK d   0      33.871 -23.569  -2.793  0.00  0.00     0.165 HD
ATOM     19  C   UNK d   0      32.735 -25.865  -1.371  0.00  0.00     0.030 A 
ATOM     20  C   UNK d   0      33.424 -24.225   0.327  0.00  0.00    -0.002 A 
ATOM     21  C   UNK d   0      32.354 -26.714  -0.330  0.00  0.00     0.002 A 
ATOM     22  C   UNK d   0      32.495 -26.336   1.007  0.00  0.00     0.001 A 
ATOM     23  C   UNK d   0      33.007 -25.086   1.349  0.00  0.00     0.014 A 
ENDBRANCH  13  14
ENDBRANCH   1  13
BRANCH   1  24
ATOM     24  N   UNK d   0      32.206 -20.815   0.743  0.00  0.00    -0.290 N 
ATOM     25  C   UNK d   0      31.220 -21.743   1.094  0.00  0.00     0.260 C 
ATOM     26  O   UNK d   0      30.826 -21.950   2.222  0.00  0.00    -0.267 OA
ATOM     27  C   UNK d   0      30.650 -22.526  -0.046  0.00  0.00     0.058 A 
ATOM     28  C   UNK d   0      29.778 -23.592   0.183  0.00  0.00     0.019 A 
ATOM     29  C   UNK d   0      31.080 -22.215  -1.341  0.00  0.00     0.047 A 
ATOM     30  C   UNK d   0      29.334 -24.358  -0.895  0.00  0.00     0.001 A 
ATOM     31  C   UNK d   0      29.756 -24.054  -2.191  0.00  0.00     0.002 A 
ATOM     32  C   UNK d   0      30.622 -22.983  -2.412  0.00  0.00     0.030 A 
ATOM     33  N   UNK d   0      31.841 -21.090  -1.560  0.00  0.00    -0.346 N 
ATOM     34  C   UNK d   0      32.011 -20.133  -0.512  0.00  0.00     0.332 C 
ATOM     35  H   UNK d   0      32.384 -20.960  -2.401  0.00  0.00     0.164 HD
BRANCH  34  36
ATOM     36  O   UNK d   0      30.824 -19.366  -0.424  0.00  0.00    -0.359 OA
ATOM     37  H   UNK d   0      30.840 -18.972   0.458  0.00  0.00     0.214 HD
ENDBRANCH  34  36
ENDBRANCH   1  24
TORSDOF 8
ENDMDL
MODEL 9
REMARK VINA RESULT:    -5.930      3.238      5.062
REMARK INTER + INTRA:         -12.334
REMARK INTER:                  -8.316
REMARK INTRA:                  -4.018
REMARK CONF_INDEPENDENT:        2.386
REMARK UNBOUND:                -4.018
REMARK  8 active torsions:
REMARK  status: ('A' for Active; 'I' for Inactive)
REMARK    1  A    between atoms: CB_2  and  CA_4 
REMARK    2  A    between atoms: CA_4  and  N_5 
REMARK    3  A    between atoms: CA_4  and  C_31 
REMARK       I    between atoms: N_5  and  C_6 
REMARK    4  A    between atoms: C_6  and  C_8 
REMARK    5  A    between atoms: C_8  and  C_9 
REMARK    6  A    between atoms: C_8  and  N_19 
REMARK    7  A    between atoms: C_9  and  C_10 
REMARK    8  A    between atoms: C_29  and  O_30 
ROOT
ATOM      1  C   UNK d   0      29.716 -11.973   2.614  0.00  0.00     0.188 C 
ENDROOT
BRANCH   1   2
ATOM      2  C   UNK d   0      28.663 -11.350   1.658  0.00  0.00     0.241 C 
ATOM      3  N   VAL d   1      27.978 -10.214   2.068  0.00  0.00    -0.344 N 
ATOM      4  H   VAL d   1      27.946  -9.953   3.048  0.00  0.00     0.163 HD
ATOM      5  O   UNK d   0      28.404 -11.896   0.583  0.00  0.00    -0.271 OA
BRANCH   3   6
ATOM      6  CA  VAL d   1      26.860  -9.653   1.230  0.00  0.00     0.189 C 
BRANCH   6   7
ATOM      7  CB  VAL d   1      27.547  -9.059  -0.011  0.00  0.00     0.010 C 
ATOM      8  CG1 VAL d   1      26.804  -9.391  -1.315  0.00  0.00     0.012 C 
ATOM      9  CG2 VAL d   1      27.688  -7.545   0.061  0.00  0.00     0.012 C 
ENDBRANCH   6   7
BRANCH   6  10
ATOM     10  C   VAL d   1      25.897  -8.610   1.970  0.00  0.00     0.197 C 
ATOM     11  O   VAL d   1      24.848  -8.270   1.355  0.00  0.00    -0.646 OA
ATOM     12  OXT VAL d   1      26.283  -8.187   3.101  0.00  0.00    -0.646 OA
ENDBRANCH   6  10
ENDBRANCH   3   6
ENDBRANCH   1   2
BRANCH   1  13
ATOM     13  C   UNK d   0      30.534 -10.771   3.160  0.00  0.00     0.076 C 
BRANCH  13  14
ATOM     14  C   UNK d   0      31.141 -10.951   4.527  0.00  0.00    -0.028 C 
ATOM     15  C   UNK d   0      32.318 -11.594   4.826  0.00  0.00     0.096 C 
ATOM     16  N   UNK d   0      32.373 -11.824   6.174  0.00  0.00    -0.365 N 
ATOM     17  C   UNK d   0      31.554 -10.909   6.776  0.00  0.00     0.042 A 
ATOM     18  H   UNK d   0      33.039 -12.471   6.599  0.00  0.00     0.165 HD
ATOM     19  C   UNK d   0      31.466 -10.517   8.112  0.00  0.00     0.030 A 
ATOM     20  C   UNK d   0      30.775 -10.342   5.758  0.00  0.00    -0.002 A 
ATOM     21  C   UNK d   0      30.587  -9.470   8.399  0.00  0.00     0.002 A 
ATOM     22  C   UNK d   0      29.815  -8.871   7.401  0.00  0.00     0.001 A 
ATOM     23  C   UNK d   0      29.882  -9.313   6.081  0.00  0.00     0.014 A 
ENDBRANCH  13  14
ENDBRANCH   1  13
BRANCH   1  24
ATOM     24  N   UNK d   0      29.118 -12.828   3.727  0.00  0.00    -0.290 N 
ATOM     25  C   UNK d   0      28.351 -12.245   4.742  0.00  0.00     0.260 C 
ATOM     26  O   UNK d   0      27.475 -11.425   4.571  0.00  0.00    -0.267 OA
ATOM     27  C   UNK d   0      28.689 -12.691   6.130  0.00  0.00     0.058 A 
ATOM     28  C   UNK d   0      28.113 -12.073   7.240  0.00  0.00     0.019 A 
ATOM     29  C   UNK d   0      29.661 -13.687   6.285  0.00  0.00     0.047 A 
ATOM     30  C   UNK d   0      28.516 -12.452   8.521  0.00  0.00     0.001 A 
ATOM     31  C   UNK d   0      29.482 -13.446   8.686  0.00  0.00     0.002 A 
ATOM     32  C   UNK d   0      30.048 -14.064   7.571  0.00  0.00     0.030 A 
ATOM     33  N   UNK d   0      30.128 -14.368   5.185  0.00  0.00    -0.346 N 
ATOM     34  C   UNK d   0      29.474 -14.211   3.923  0.00  0.00     0.332 C 
ATOM     35  H   UNK d   0      30.988 -14.894   5.200  0.00  0.00     0.164 HD
BRANCH  34  36
ATOM     36  O   UNK d   0      28.285 -14.979   3.948  0.00  0.00    -0.359 OA
ATOM     37  H   UNK d   0      28.521 -15.827   3.549  0.00  0.00     0.214 HD
ENDBRANCH  34  36
ENDBRANCH   1  24
TORSDOF 8
ENDMDL
