MODEL 1
REMARK VINA RESULT:    -8.458      0.000      0.000
REMARK INTER + INTRA:         -11.979
REMARK INTER:                 -10.547
REMARK INTRA:                  -1.433
REMARK CONF_INDEPENDENT:        2.088
REMARK UNBOUND:                -1.433
REMARK  7 active torsions:
REMARK  status: ('A' for Active; 'I' for Inactive)
REMARK    1  A    between atoms: C_2  and  C_4 
REMARK    2  A    between atoms: C_4  and  C_5 
REMARK    3  A    between atoms: C_5  and  C_6 
REMARK       I    between atoms: C_6  and  N_8 
REMARK    4  A    between atoms: N_8  and  N_9 
REMARK       I    between atoms: N_9  and  C_10 
REMARK    5  A    between atoms: C_10  and  C_12 
REMARK    6  A    between atoms: C_13  and  C_14 
REMARK    7  A    between atoms: C_18  and  N_19 
ROOT
ATOM      1  N   UNL d   1      23.477 -17.839  -1.015  0.00  0.00    -0.264 N 
ATOM      2  C   UNL d   1      24.834 -17.718  -0.780  0.00  0.00     0.259 C 
ATOM      3  O   UNL d   1      25.449 -18.457  -0.009  0.00  0.00    -0.267 OA
ATOM      4  H   UNL d   1      22.940 -17.242  -1.643  0.00  0.00     0.190 HD
ENDROOT
BRANCH   2   5
ATOM      5  C   UNL d   1      25.511 -16.614  -1.531  0.00  0.00     0.076 C 
ATOM      6  C   UNL d   1      24.841 -15.825  -2.397  0.00  0.00     0.017 C 
BRANCH   6   7
ATOM      7  C   UNL d   1      25.491 -14.767  -3.201  0.00  0.00    -0.034 A 
ATOM      8  C   UNL d   1      25.175 -13.407  -3.037  0.00  0.00     0.011 A 
ATOM      9  C   UNL d   1      25.764 -12.425  -3.852  0.00  0.00     0.003 A 
ATOM     10  C   UNL d   1      26.713 -12.781  -4.811  0.00  0.00     0.036 A 
ATOM     11  C   UNL d   1      27.011 -14.134  -4.996  0.00  0.00     0.103 A 
ATOM     12  C   UNL d   1      26.396 -15.120  -4.209  0.00  0.00     0.047 A 
BRANCH  11  13
ATOM     13  N   UNL d   1      27.954 -14.544  -6.042  0.00  0.00    -0.116 N 
ATOM     14  O   UNL d   1      28.493 -15.653  -5.932  0.00  0.00    -0.532 OA
ATOM     15  O   UNL d   1      28.157 -13.752  -6.974  0.00  0.00    -0.532 OA
ENDBRANCH  11  13
ENDBRANCH   6   7
ENDBRANCH   2   5
BRANCH   1  16
ATOM     16  N   UNL d   1      22.737 -18.862  -0.358  0.00  0.00    -0.267 N 
ATOM     17  C   UNL d   1      21.365 -18.928  -0.549  0.00  0.00     0.236 C 
ATOM     18  O   UNL d   1      20.771 -18.124  -1.269  0.00  0.00    -0.272 OA
ATOM     19  H   UNL d   1      23.271 -19.513   0.215  0.00  0.00     0.190 HD
BRANCH  17  20
ATOM     20  C   UNL d   1      20.661 -20.073   0.181  0.00  0.00     0.105 C 
BRANCH  20  21
ATOM     21  C   UNL d   1      19.132 -20.036  -0.009  0.00  0.00     0.013 C 
BRANCH  21  22
ATOM     22  C   UNL d   1      18.327 -20.512   1.218  0.00  0.00    -0.022 C 
ATOM     23  C   UNL d   1      17.835 -21.950   1.012  0.00  0.00     0.009 C 
ATOM     24  C   UNL d   1      19.162 -20.450   2.497  0.00  0.00     0.009 C 
ENDBRANCH  21  22
ENDBRANCH  20  21
ENDBRANCH  17  20
ENDBRANCH   1  16
TORSDOF 7
ENDMDL
MODEL 2
REMARK VINA RESULT:    -7.464      1.894      2.260
REMARK INTER + INTRA:         -10.946
REMARK INTER:                  -9.552
REMARK INTRA:                  -1.394
REMARK CONF_INDEPENDENT:        2.088
REMARK UNBOUND:                -1.394
REMARK  7 active torsions:
REMARK  status: ('A' for Active; 'I' for Inactive)
REMARK    1  A    between atoms: C_2  and  C_4 
REMARK    2  A    between atoms: C_4  and  C_5 
REMARK    3  A    between atoms: C_5  and  C_6 
REMARK       I    between atoms: C_6  and  N_8 
REMARK    4  A    between atoms: N_8  and  N_9 
REMARK       I    between atoms: N_9  and  C_10 
REMARK    5  A    between atoms: C_10  and  C_12 
REMARK    6  A    between atoms: C_13  and  C_14 
REMARK    7  A    between atoms: C_18  and  N_19 
ROOT
ATOM      1  N   UNL d   1      23.667 -17.783  -1.019  0.00  0.00    -0.264 N 
ATOM      2  C   UNL d   1      25.017 -17.608  -0.772  0.00  0.00     0.259 C 
ATOM      3  O   UNL d   1      25.610 -18.185   0.140  0.00  0.00    -0.267 OA
ATOM      4  H   UNL d   1      23.147 -17.318  -1.763  0.00  0.00     0.190 HD
ENDROOT
BRANCH   2   5
ATOM      5  C   UNL d   1      25.712 -16.659  -1.698  0.00  0.00     0.076 C 
ATOM      6  C   UNL d   1      25.059 -15.645  -2.302  0.00  0.00     0.017 C 
BRANCH   6   7
ATOM      7  C   UNL d   1      25.701 -14.728  -3.269  0.00  0.00    -0.034 A 
ATOM      8  C   UNL d   1      26.398 -15.201  -4.394  0.00  0.00     0.011 A 
ATOM      9  C   UNL d   1      27.048 -14.312  -5.268  0.00  0.00     0.003 A 
ATOM     10  C   UNL d   1      26.973 -12.935  -5.057  0.00  0.00     0.036 A 
ATOM     11  C   UNL d   1      26.304 -12.461  -3.926  0.00  0.00     0.103 A 
ATOM     12  C   UNL d   1      25.685 -13.348  -3.031  0.00  0.00     0.047 A 
BRANCH  11  13
ATOM     13  N   UNL d   1      26.265 -11.022  -3.642  0.00  0.00    -0.116 N 
ATOM     14  O   UNL d   1      27.300 -10.368  -3.826  0.00  0.00    -0.532 OA
ATOM     15  O   UNL d   1      25.197 -10.547  -3.230  0.00  0.00    -0.532 OA
ENDBRANCH  11  13
ENDBRANCH   6   7
ENDBRANCH   2   5
BRANCH   1  16
ATOM     16  N   UNL d   1      22.912 -18.671  -0.203  0.00  0.00    -0.267 N 
ATOM     17  C   UNL d   1      21.533 -18.710  -0.350  0.00  0.00     0.236 C 
ATOM     18  O   UNL d   1      20.947 -17.995  -1.164  0.00  0.00    -0.272 OA
ATOM     19  H   UNL d   1      23.439 -19.254   0.445  0.00  0.00     0.190 HD
BRANCH  17  20
ATOM     20  C   UNL d   1      20.811 -19.710   0.555  0.00  0.00     0.105 C 
BRANCH  20  21
ATOM     21  C   UNL d   1      19.339 -19.914   0.144  0.00  0.00     0.013 C 
BRANCH  21  22
ATOM     22  C   UNL d   1      18.422 -20.396   1.287  0.00  0.00    -0.022 C 
ATOM     23  C   UNL d   1      17.853 -21.785   0.969  0.00  0.00     0.009 C 
ATOM     24  C   UNL d   1      19.166 -20.456   2.621  0.00  0.00     0.009 C 
ENDBRANCH  21  22
ENDBRANCH  20  21
ENDBRANCH  17  20
ENDBRANCH   1  16
TORSDOF 7
ENDMDL
MODEL 3
REMARK VINA RESULT:    -7.056      4.883      5.574
REMARK INTER + INTRA:         -10.422
REMARK INTER:                  -9.144
REMARK INTRA:                  -1.278
REMARK CONF_INDEPENDENT:        2.088
REMARK UNBOUND:                -1.278
REMARK  7 active torsions:
REMARK  status: ('A' for Active; 'I' for Inactive)
REMARK    1  A    between atoms: C_2  and  C_4 
REMARK    2  A    between atoms: C_4  and  C_5 
REMARK    3  A    between atoms: C_5  and  C_6 
REMARK       I    between atoms: C_6  and  N_8 
REMARK    4  A    between atoms: N_8  and  N_9 
REMARK       I    between atoms: N_9  and  C_10 
REMARK    5  A    between atoms: C_10  and  C_12 
REMARK    6  A    between atoms: C_13  and  C_14 
REMARK    7  A    between atoms: C_18  and  N_19 
ROOT
ATOM      1  N   UNL d   1      24.848 -16.181  -0.488  0.00  0.00    -0.264 N 
ATOM      2  C   UNL d   1      26.142 -15.999  -0.034  0.00  0.00     0.259 C 
ATOM      3  O   UNL d   1      26.838 -16.921   0.391  0.00  0.00    -0.267 OA
ATOM      4  H   UNL d   1      24.246 -15.438  -0.843  0.00  0.00     0.190 HD
ENDROOT
BRANCH   2   5
ATOM      5  C   UNL d   1      26.640 -14.588  -0.094  0.00  0.00     0.076 C 
ATOM      6  C   UNL d   1      26.756 -13.824   1.013  0.00  0.00     0.017 C 
BRANCH   6   7
ATOM      7  C   UNL d   1      27.186 -12.410   0.981  0.00  0.00    -0.034 A 
ATOM      8  C   UNL d   1      28.369 -12.005   0.339  0.00  0.00     0.011 A 
ATOM      9  C   UNL d   1      28.786 -10.663   0.371  0.00  0.00     0.003 A 
ATOM     10  C   UNL d   1      28.004  -9.697   1.005  0.00  0.00     0.036 A 
ATOM     11  C   UNL d   1      26.842 -10.098   1.668  0.00  0.00     0.103 A 
ATOM     12  C   UNL d   1      26.442 -11.443   1.669  0.00  0.00     0.047 A 
BRANCH  11  13
ATOM     13  N   UNL d   1      26.035  -9.116   2.400  0.00  0.00    -0.116 N 
ATOM     14  O   UNL d   1      25.159  -8.505   1.773  0.00  0.00    -0.532 OA
ATOM     15  O   UNL d   1      26.281  -8.953   3.604  0.00  0.00    -0.532 OA
ENDBRANCH  11  13
ENDBRANCH   6   7
ENDBRANCH   2   5
BRANCH   1  16
ATOM     16  N   UNL d   1      24.278 -17.485  -0.483  0.00  0.00    -0.267 N 
ATOM     17  C   UNL d   1      22.897 -17.615  -0.519  0.00  0.00     0.236 C 
ATOM     18  O   UNL d   1      22.154 -16.634  -0.551  0.00  0.00    -0.272 OA
ATOM     19  H   UNL d   1      24.930 -18.267  -0.471  0.00  0.00     0.190 HD
BRANCH  17  20
ATOM     20  C   UNL d   1      22.380 -19.055  -0.531  0.00  0.00     0.105 C 
BRANCH  20  21
ATOM     21  C   UNL d   1      20.841 -19.123  -0.567  0.00  0.00     0.013 C 
BRANCH  21  22
ATOM     22  C   UNL d   1      20.224 -20.098   0.458  0.00  0.00    -0.022 C 
ATOM     23  C   UNL d   1      20.277 -19.496   1.868  0.00  0.00     0.009 C 
ATOM     24  C   UNL d   1      18.774 -20.434   0.113  0.00  0.00     0.009 C 
ENDBRANCH  21  22
ENDBRANCH  20  21
ENDBRANCH  17  20
ENDBRANCH   1  16
TORSDOF 7
ENDMDL
MODEL 4
REMARK VINA RESULT:    -6.936      1.384      1.911
REMARK INTER + INTRA:         -10.300
REMARK INTER:                  -9.024
REMARK INTRA:                  -1.276
REMARK CONF_INDEPENDENT:        2.088
REMARK UNBOUND:                -1.276
REMARK  7 active torsions:
REMARK  status: ('A' for Active; 'I' for Inactive)
REMARK    1  A    between atoms: C_2  and  C_4 
REMARK    2  A    between atoms: C_4  and  C_5 
REMARK    3  A    between atoms: C_5  and  C_6 
REMARK       I    between atoms: C_6  and  N_8 
REMARK    4  A    between atoms: N_8  and  N_9 
REMARK       I    between atoms: N_9  and  C_10 
REMARK    5  A    between atoms: C_10  and  C_12 
REMARK    6  A    between atoms: C_13  and  C_14 
REMARK    7  A    between atoms: C_18  and  N_19 
ROOT
ATOM      1  N   UNL d   1      23.677 -17.760  -1.468  0.00  0.00    -0.264 N 
ATOM      2  C   UNL d   1      24.511 -16.677  -1.254  0.00  0.00     0.259 C 
ATOM      3  O   UNL d   1      24.500 -16.019  -0.214  0.00  0.00    -0.267 OA
ATOM      4  H   UNL d   1      23.661 -18.322  -2.319  0.00  0.00     0.190 HD
ENDROOT
BRANCH   2   5
ATOM      5  C   UNL d   1      25.436 -16.357  -2.388  0.00  0.00     0.076 C 
ATOM      6  C   UNL d   1      25.810 -15.091  -2.667  0.00  0.00     0.017 C 
BRANCH   6   7
ATOM      7  C   UNL d   1      26.671 -14.733  -3.815  0.00  0.00    -0.034 A 
ATOM      8  C   UNL d   1      26.424 -13.598  -4.607  0.00  0.00     0.011 A 
ATOM      9  C   UNL d   1      27.222 -13.310  -5.728  0.00  0.00     0.003 A 
ATOM     10  C   UNL d   1      28.308 -14.126  -6.047  0.00  0.00     0.036 A 
ATOM     11  C   UNL d   1      28.542 -15.270  -5.280  0.00  0.00     0.103 A 
ATOM     12  C   UNL d   1      27.724 -15.580  -4.182  0.00  0.00     0.047 A 
BRANCH  11  13
ATOM     13  N   UNL d   1      29.636 -16.182  -5.632  0.00  0.00    -0.116 N 
ATOM     14  O   UNL d   1      30.096 -16.116  -6.779  0.00  0.00    -0.532 OA
ATOM     15  O   UNL d   1      30.031 -16.968  -4.759  0.00  0.00    -0.532 OA
ENDBRANCH  11  13
ENDBRANCH   6   7
ENDBRANCH   2   5
BRANCH   1  16
ATOM     16  N   UNL d   1      22.765 -18.157  -0.451  0.00  0.00    -0.267 N 
ATOM     17  C   UNL d   1      21.680 -18.950  -0.794  0.00  0.00     0.236 C 
ATOM     18  O   UNL d   1      21.484 -19.315  -1.954  0.00  0.00    -0.272 OA
ATOM     19  H   UNL d   1      22.974 -17.844   0.495  0.00  0.00     0.190 HD
BRANCH  17  20
ATOM     20  C   UNL d   1      20.767 -19.342   0.370  0.00  0.00     0.105 C 
BRANCH  20  21
ATOM     21  C   UNL d   1      19.694 -20.366  -0.047  0.00  0.00     0.013 C 
BRANCH  21  22
ATOM     22  C   UNL d   1      19.128 -21.204   1.119  0.00  0.00    -0.022 C 
ATOM     23  C   UNL d   1      19.246 -20.431   2.439  0.00  0.00     0.009 C 
ATOM     24  C   UNL d   1      17.664 -21.574   0.887  0.00  0.00     0.009 C 
ENDBRANCH  21  22
ENDBRANCH  20  21
ENDBRANCH  17  20
ENDBRANCH   1  16
TORSDOF 7
ENDMDL
MODEL 5
REMARK VINA RESULT:    -6.682      2.912      9.880
REMARK INTER + INTRA:         -10.267
REMARK INTER:                  -8.770
REMARK INTRA:                  -1.497
REMARK CONF_INDEPENDENT:        2.088
REMARK UNBOUND:                -1.497
REMARK  7 active torsions:
REMARK  status: ('A' for Active; 'I' for Inactive)
REMARK    1  A    between atoms: C_2  and  C_4 
REMARK    2  A    between atoms: C_4  and  C_5 
REMARK    3  A    between atoms: C_5  and  C_6 
REMARK       I    between atoms: C_6  and  N_8 
REMARK    4  A    between atoms: N_8  and  N_9 
REMARK       I    between atoms: N_9  and  C_10 
REMARK    5  A    between atoms: C_10  and  C_12 
REMARK    6  A    between atoms: C_13  and  C_14 
REMARK    7  A    between atoms: C_18  and  N_19 
ROOT
ATOM      1  N   UNL d   1      26.533 -14.421  -4.787  0.00  0.00    -0.264 N 
ATOM      2  C   UNL d   1      25.644 -13.817  -3.917  0.00  0.00     0.259 C 
ATOM      3  O   UNL d   1      25.429 -12.604  -3.914  0.00  0.00    -0.267 OA
ATOM      4  H   UNL d   1      26.735 -15.420  -4.812  0.00  0.00     0.190 HD
ENDROOT
BRANCH   2   5
ATOM      5  C   UNL d   1      24.956 -14.748  -2.967  0.00  0.00     0.076 C 
ATOM      6  C   UNL d   1      25.638 -15.657  -2.240  0.00  0.00     0.017 C 
BRANCH   6   7
ATOM      7  C   UNL d   1      24.985 -16.632  -1.340  0.00  0.00    -0.034 A 
ATOM      8  C   UNL d   1      25.673 -17.244  -0.278  0.00  0.00     0.011 A 
ATOM      9  C   UNL d   1      25.047 -18.210   0.528  0.00  0.00     0.003 A 
ATOM     10  C   UNL d   1      23.709 -18.545   0.317  0.00  0.00     0.036 A 
ATOM     11  C   UNL d   1      23.028 -17.960  -0.754  0.00  0.00     0.103 A 
ATOM     12  C   UNL d   1      23.662 -17.023  -1.584  0.00  0.00     0.047 A 
BRANCH  11  13
ATOM     13  N   UNL d   1      21.642 -18.343  -1.042  0.00  0.00    -0.116 N 
ATOM     14  O   UNL d   1      21.409 -19.535  -1.280  0.00  0.00    -0.532 OA
ATOM     15  O   UNL d   1      20.785 -17.446  -1.034  0.00  0.00    -0.532 OA
ENDBRANCH  11  13
ENDBRANCH   6   7
ENDBRANCH   2   5
BRANCH   1  16
ATOM     16  N   UNL d   1      27.235 -13.628  -5.738  0.00  0.00    -0.267 N 
ATOM     17  C   UNL d   1      28.192 -14.232  -6.540  0.00  0.00     0.236 C 
ATOM     18  O   UNL d   1      28.452 -15.432  -6.449  0.00  0.00    -0.272 OA
ATOM     19  H   UNL d   1      26.977 -12.644  -5.790  0.00  0.00     0.190 HD
BRANCH  17  20
ATOM     20  C   UNL d   1      28.877 -13.303  -7.545  0.00  0.00     0.105 C 
BRANCH  20  21
ATOM     21  C   UNL d   1      28.121 -11.972  -7.721  0.00  0.00     0.013 C 
BRANCH  21  22
ATOM     22  C   UNL d   1      27.950 -11.528  -9.189  0.00  0.00    -0.022 C 
ATOM     23  C   UNL d   1      28.551 -12.573 -10.139  0.00  0.00     0.009 C 
ATOM     24  C   UNL d   1      26.478 -11.318  -9.547  0.00  0.00     0.009 C 
ENDBRANCH  21  22
ENDBRANCH  20  21
ENDBRANCH  17  20
ENDBRANCH   1  16
TORSDOF 7
ENDMDL
MODEL 6
REMARK VINA RESULT:    -6.526      2.673     10.000
REMARK INTER + INTRA:         -10.045
REMARK INTER:                  -8.614
REMARK INTRA:                  -1.431
REMARK CONF_INDEPENDENT:        2.088
REMARK UNBOUND:                -1.431
REMARK  7 active torsions:
REMARK  status: ('A' for Active; 'I' for Inactive)
REMARK    1  A    between atoms: C_2  and  C_4 
REMARK    2  A    between atoms: C_4  and  C_5 
REMARK    3  A    between atoms: C_5  and  C_6 
REMARK       I    between atoms: C_6  and  N_8 
REMARK    4  A    between atoms: N_8  and  N_9 
REMARK       I    between atoms: N_9  and  C_10 
REMARK    5  A    between atoms: C_10  and  C_12 
REMARK    6  A    between atoms: C_13  and  C_14 
REMARK    7  A    between atoms: C_18  and  N_19 
ROOT
ATOM      1  N   UNL d   1      24.735 -16.082  -2.355  0.00  0.00    -0.264 N 
ATOM      2  C   UNL d   1      24.481 -16.642  -1.116  0.00  0.00     0.259 C 
ATOM      3  O   UNL d   1      25.325 -16.697  -0.221  0.00  0.00    -0.267 OA
ATOM      4  H   UNL d   1      24.060 -16.024  -3.117  0.00  0.00     0.190 HD
ENDROOT
BRANCH   2   5
ATOM      5  C   UNL d   1      23.097 -17.184  -0.938  0.00  0.00     0.076 C 
ATOM      6  C   UNL d   1      22.866 -18.365  -0.327  0.00  0.00     0.017 C 
BRANCH   6   7
ATOM      7  C   UNL d   1      21.518 -18.958  -0.189  0.00  0.00    -0.034 A 
ATOM      8  C   UNL d   1      20.683 -19.174  -1.299  0.00  0.00     0.011 A 
ATOM      9  C   UNL d   1      19.384 -19.686  -1.138  0.00  0.00     0.003 A 
ATOM     10  C   UNL d   1      18.917 -20.034   0.130  0.00  0.00     0.036 A 
ATOM     11  C   UNL d   1      19.732 -19.796   1.239  0.00  0.00     0.103 A 
ATOM     12  C   UNL d   1      21.016 -19.250   1.084  0.00  0.00     0.047 A 
BRANCH  11  13
ATOM     13  N   UNL d   1      19.242 -20.090   2.591  0.00  0.00    -0.116 N 
ATOM     14  O   UNL d   1      20.080 -20.338   3.468  0.00  0.00    -0.532 OA
ATOM     15  O   UNL d   1      18.016 -20.075   2.772  0.00  0.00    -0.532 OA
ENDBRANCH  11  13
ENDBRANCH   6   7
ENDBRANCH   2   5
BRANCH   1  16
ATOM     16  N   UNL d   1      26.017 -15.529  -2.628  0.00  0.00    -0.267 N 
ATOM     17  C   UNL d   1      26.275 -15.022  -3.893  0.00  0.00     0.236 C 
ATOM     18  O   UNL d   1      25.427 -15.042  -4.785  0.00  0.00    -0.272 OA
ATOM     19  H   UNL d   1      26.683 -15.520  -1.857  0.00  0.00     0.190 HD
BRANCH  17  20
ATOM     20  C   UNL d   1      27.674 -14.430  -4.084  0.00  0.00     0.105 C 
BRANCH  20  21
ATOM     21  C   UNL d   1      28.615 -15.387  -4.841  0.00  0.00     0.013 C 
BRANCH  21  22
ATOM     22  C   UNL d   1      28.973 -14.926  -6.270  0.00  0.00    -0.022 C 
ATOM     23  C   UNL d   1      28.245 -13.619  -6.610  0.00  0.00     0.009 C 
ATOM     24  C   UNL d   1      30.478 -14.714  -6.433  0.00  0.00     0.009 C 
ENDBRANCH  21  22
ENDBRANCH  20  21
ENDBRANCH  17  20
ENDBRANCH   1  16
TORSDOF 7
ENDMDL
MODEL 7
REMARK VINA RESULT:    -6.402      3.114      9.933
REMARK INTER + INTRA:          -9.983
REMARK INTER:                  -8.490
REMARK INTRA:                  -1.493
REMARK CONF_INDEPENDENT:        2.088
REMARK UNBOUND:                -1.493
REMARK  7 active torsions:
REMARK  status: ('A' for Active; 'I' for Inactive)
REMARK    1  A    between atoms: C_2  and  C_4 
REMARK    2  A    between atoms: C_4  and  C_5 
REMARK    3  A    between atoms: C_5  and  C_6 
REMARK       I    between atoms: C_6  and  N_8 
REMARK    4  A    between atoms: N_8  and  N_9 
REMARK       I    between atoms: N_9  and  C_10 
REMARK    5  A    between atoms: C_10  and  C_12 
REMARK    6  A    between atoms: C_13  and  C_14 
REMARK    7  A    between atoms: C_18  and  N_19 
ROOT
ATOM      1  N   UNL d   1      26.209 -13.442  -4.619  0.00  0.00    -0.264 N 
ATOM      2  C   UNL d   1      26.501 -14.794  -4.641  0.00  0.00     0.259 C 
ATOM      3  O   UNL d   1      27.351 -15.284  -5.385  0.00  0.00    -0.267 OA
ATOM      4  H   UNL d   1      25.510 -13.008  -4.017  0.00  0.00     0.190 HD
ENDROOT
BRANCH   2   5
ATOM      5  C   UNL d   1      25.701 -15.630  -3.690  0.00  0.00     0.076 C 
ATOM      6  C   UNL d   1      26.097 -15.840  -2.417  0.00  0.00     0.017 C 
BRANCH   6   7
ATOM      7  C   UNL d   1      25.364 -16.709  -1.471  0.00  0.00    -0.034 A 
ATOM      8  C   UNL d   1      25.988 -17.282  -0.350  0.00  0.00     0.011 A 
ATOM      9  C   UNL d   1      25.285 -18.151   0.503  0.00  0.00     0.003 A 
ATOM     10  C   UNL d   1      23.935 -18.422   0.276  0.00  0.00     0.036 A 
ATOM     11  C   UNL d   1      23.318 -17.876  -0.852  0.00  0.00     0.103 A 
ATOM     12  C   UNL d   1      24.027 -17.038  -1.726  0.00  0.00     0.047 A 
BRANCH  11  13
ATOM     13  N   UNL d   1      21.918 -18.198  -1.154  0.00  0.00    -0.116 N 
ATOM     14  O   UNL d   1      21.061 -17.343  -0.897  0.00  0.00    -0.532 OA
ATOM     15  O   UNL d   1      21.678 -19.309  -1.647  0.00  0.00    -0.532 OA
ENDBRANCH  11  13
ENDBRANCH   6   7
ENDBRANCH   2   5
BRANCH   1  16
ATOM     16  N   UNL d   1      26.918 -12.556  -5.477  0.00  0.00    -0.267 N 
ATOM     17  C   UNL d   1      26.528 -11.226  -5.539  0.00  0.00     0.236 C 
ATOM     18  O   UNL d   1      25.586 -10.794  -4.875  0.00  0.00    -0.272 OA
ATOM     19  H   UNL d   1      27.699 -12.952  -5.997  0.00  0.00     0.190 HD
BRANCH  17  20
ATOM     20  C   UNL d   1      27.363 -10.347  -6.474  0.00  0.00     0.105 C 
BRANCH  20  21
ATOM     21  C   UNL d   1      26.541  -9.814  -7.664  0.00  0.00     0.013 C 
BRANCH  21  22
ATOM     22  C   UNL d   1      26.669 -10.655  -8.951  0.00  0.00    -0.022 C 
ATOM     23  C   UNL d   1      27.111  -9.773 -10.126  0.00  0.00     0.009 C 
ATOM     24  C   UNL d   1      27.670 -11.797  -8.781  0.00  0.00     0.009 C 
ENDBRANCH  21  22
ENDBRANCH  20  21
ENDBRANCH  17  20
ENDBRANCH   1  16
TORSDOF 7
ENDMDL
MODEL 8
REMARK VINA RESULT:    -6.372      3.086      9.734
REMARK INTER + INTRA:          -9.921
REMARK INTER:                  -8.460
REMARK INTRA:                  -1.461
REMARK CONF_INDEPENDENT:        2.088
REMARK UNBOUND:                -1.461
REMARK  7 active torsions:
REMARK  status: ('A' for Active; 'I' for Inactive)
REMARK    1  A    between atoms: C_2  and  C_4 
REMARK    2  A    between atoms: C_4  and  C_5 
REMARK    3  A    between atoms: C_5  and  C_6 
REMARK       I    between atoms: C_6  and  N_8 
REMARK    4  A    between atoms: N_8  and  N_9 
REMARK       I    between atoms: N_9  and  C_10 
REMARK    5  A    between atoms: C_10  and  C_12 
REMARK    6  A    between atoms: C_13  and  C_14 
REMARK    7  A    between atoms: C_18  and  N_19 
ROOT
ATOM      1  N   UNL d   1      25.970 -13.462  -4.525  0.00  0.00    -0.264 N 
ATOM      2  C   UNL d   1      26.272 -14.797  -4.727  0.00  0.00     0.259 C 
ATOM      3  O   UNL d   1      27.038 -15.184  -5.610  0.00  0.00    -0.267 OA
ATOM      4  H   UNL d   1      25.339 -13.111  -3.805  0.00  0.00     0.190 HD
ENDROOT
BRANCH   2   5
ATOM      5  C   UNL d   1      25.595 -15.748  -3.790  0.00  0.00     0.076 C 
ATOM      6  C   UNL d   1      25.811 -15.713  -2.458  0.00  0.00     0.017 C 
BRANCH   6   7
ATOM      7  C   UNL d   1      25.207 -16.677  -1.512  0.00  0.00    -0.034 A 
ATOM      8  C   UNL d   1      25.967 -17.327  -0.524  0.00  0.00     0.011 A 
ATOM      9  C   UNL d   1      25.381 -18.281   0.327  0.00  0.00     0.003 A 
ATOM     10  C   UNL d   1      24.019 -18.566   0.234  0.00  0.00     0.036 A 
ATOM     11  C   UNL d   1      23.265 -17.943  -0.764  0.00  0.00     0.103 A 
ATOM     12  C   UNL d   1      23.855 -17.017  -1.638  0.00  0.00     0.047 A 
BRANCH  11  13
ATOM     13  N   UNL d   1      21.845 -18.272  -0.928  0.00  0.00    -0.116 N 
ATOM     14  O   UNL d   1      21.543 -19.462  -1.093  0.00  0.00    -0.532 OA
ATOM     15  O   UNL d   1      21.031 -17.338  -0.896  0.00  0.00    -0.532 OA
ENDBRANCH  11  13
ENDBRANCH   6   7
ENDBRANCH   2   5
BRANCH   1  16
ATOM     16  N   UNL d   1      26.567 -12.473  -5.355  0.00  0.00    -0.267 N 
ATOM     17  C   UNL d   1      26.254 -11.138  -5.141  0.00  0.00     0.236 C 
ATOM     18  O   UNL d   1      25.472 -10.789  -4.256  0.00  0.00    -0.272 OA
ATOM     19  H   UNL d   1      27.218 -12.805  -6.064  0.00  0.00     0.190 HD
BRANCH  17  20
ATOM     20  C   UNL d   1      26.960 -10.148  -6.069  0.00  0.00     0.105 C 
BRANCH  20  21
ATOM     21  C   UNL d   1      25.981  -9.141  -6.704  0.00  0.00     0.013 C 
BRANCH  21  22
ATOM     22  C   UNL d   1      25.448  -8.071  -5.729  0.00  0.00    -0.022 C 
ATOM     23  C   UNL d   1      25.655  -6.666  -6.309  0.00  0.00     0.009 C 
ATOM     24  C   UNL d   1      23.963  -8.272  -5.428  0.00  0.00     0.009 C 
ENDBRANCH  21  22
ENDBRANCH  20  21
ENDBRANCH  17  20
ENDBRANCH   1  16
TORSDOF 7
ENDMDL
MODEL 9
REMARK VINA RESULT:    -6.336      2.520      9.628
REMARK INTER + INTRA:          -9.968
REMARK INTER:                  -8.424
REMARK INTRA:                  -1.544
REMARK CONF_INDEPENDENT:        2.088
REMARK UNBOUND:                -1.544
REMARK  7 active torsions:
REMARK  status: ('A' for Active; 'I' for Inactive)
REMARK    1  A    between atoms: C_2  and  C_4 
REMARK    2  A    between atoms: C_4  and  C_5 
REMARK    3  A    between atoms: C_5  and  C_6 
REMARK       I    between atoms: C_6  and  N_8 
REMARK    4  A    between atoms: N_8  and  N_9 
REMARK       I    between atoms: N_9  and  C_10 
REMARK    5  A    between atoms: C_10  and  C_12 
REMARK    6  A    between atoms: C_13  and  C_14 
REMARK    7  A    between atoms: C_18  and  N_19 
ROOT
ATOM      1  N   UNL d   1      24.757 -16.276  -2.157  0.00  0.00    -0.264 N 
ATOM      2  C   UNL d   1      24.504 -16.886  -0.942  0.00  0.00     0.259 C 
ATOM      3  O   UNL d   1      25.367 -17.039  -0.076  0.00  0.00    -0.267 OA
ATOM      4  H   UNL d   1      24.066 -16.137  -2.893  0.00  0.00     0.190 HD
ENDROOT
BRANCH   2   5
ATOM      5  C   UNL d   1      23.094 -17.355  -0.751  0.00  0.00     0.076 C 
ATOM      6  C   UNL d   1      22.810 -18.597  -0.306  0.00  0.00     0.017 C 
BRANCH   6   7
ATOM      7  C   UNL d   1      21.430 -19.111  -0.166  0.00  0.00    -0.034 A 
ATOM      8  C   UNL d   1      20.575 -19.262  -1.271  0.00  0.00     0.011 A 
ATOM      9  C   UNL d   1      19.249 -19.700  -1.105  0.00  0.00     0.003 A 
ATOM     10  C   UNL d   1      18.772 -20.038   0.161  0.00  0.00     0.036 A 
ATOM     11  C   UNL d   1      19.610 -19.865   1.266  0.00  0.00     0.103 A 
ATOM     12  C   UNL d   1      20.922 -19.393   1.108  0.00  0.00     0.047 A 
BRANCH  11  13
ATOM     13  N   UNL d   1      19.114 -20.149   2.618  0.00  0.00    -0.116 N 
ATOM     14  O   UNL d   1      19.944 -20.448   3.486  0.00  0.00    -0.532 OA
ATOM     15  O   UNL d   1      17.891 -20.075   2.808  0.00  0.00    -0.532 OA
ENDBRANCH  11  13
ENDBRANCH   6   7
ENDBRANCH   2   5
BRANCH   1  16
ATOM     16  N   UNL d   1      26.063 -15.785  -2.438  0.00  0.00    -0.267 N 
ATOM     17  C   UNL d   1      26.319 -15.235  -3.686  0.00  0.00     0.236 C 
ATOM     18  O   UNL d   1      25.450 -15.164  -4.555  0.00  0.00    -0.272 OA
ATOM     19  H   UNL d   1      26.746 -15.850  -1.686  0.00  0.00     0.190 HD
BRANCH  17  20
ATOM     20  C   UNL d   1      27.745 -14.716  -3.887  0.00  0.00     0.105 C 
BRANCH  20  21
ATOM     21  C   UNL d   1      27.887 -13.231  -3.500  0.00  0.00     0.013 C 
BRANCH  21  22
ATOM     22  C   UNL d   1      26.633 -12.626  -2.834  0.00  0.00    -0.022 C 
ATOM     23  C   UNL d   1      27.035 -11.630  -1.739  0.00  0.00     0.009 C 
ATOM     24  C   UNL d   1      25.743 -11.913  -3.853  0.00  0.00     0.009 C 
ENDBRANCH  21  22
ENDBRANCH  20  21
ENDBRANCH  17  20
ENDBRANCH   1  16
TORSDOF 7
ENDMDL
