MODEL 1
REMARK VINA RESULT:    -9.714      0.000      0.000
REMARK INTER + INTRA:         -11.624
REMARK INTER:                 -11.205
REMARK INTRA:                  -0.419
REMARK CONF_INDEPENDENT:        1.492
REMARK UNBOUND:                -0.419
REMARK  5 active torsions:
REMARK  status: ('A' for Active; 'I' for Inactive)
REMARK       I    between atoms: C_2  and  N_3 
REMARK    1  A    between atoms: C_2  and  C_17 
REMARK    2  A    between atoms: N_3  and  N_4 
REMARK    3  A    between atoms: C_5  and  C_6 
REMARK    4  A    between atoms: C_7  and  O_8 
REMARK    5  A    between atoms: C_20  and  O_21 
ROOT
ATOM      1  N   UNL d   1      23.753 -18.387  -0.918  0.00  0.00    -0.183 NA
ATOM      2  C   UNL d   1      24.700 -18.019  -0.108  0.00  0.00     0.153 C 
ENDROOT
BRANCH   1   3
ATOM      3  N   UNL d   1      22.678 -19.090  -0.390  0.00  0.00    -0.243 N 
ATOM      4  C   UNL d   1      21.381 -18.589  -0.560  0.00  0.00     0.271 C 
ATOM      5  O   UNL d   1      21.107 -17.564  -1.189  0.00  0.00    -0.266 OA
ATOM      6  H   UNL d   1      22.834 -19.998   0.036  0.00  0.00     0.192 HD
BRANCH   4   7
ATOM      7  C   UNL d   1      20.249 -19.344   0.068  0.00  0.00     0.033 A 
ATOM      8  C   UNL d   1      20.275 -19.653   1.444  0.00  0.00     0.020 A 
ATOM      9  C   UNL d   1      19.272 -20.447   2.029  0.00  0.00     0.037 A 
ATOM     10  C   UNL d   1      18.252 -20.950   1.231  0.00  0.00     0.065 A 
ATOM     11  C   UNL d   1      18.228 -20.677  -0.133  0.00  0.00     0.037 A 
ATOM     12  C   UNL d   1      19.219 -19.874  -0.716  0.00  0.00     0.020 A 
BRANCH  10  13
ATOM     13  O   UNL d   1      17.248 -21.732   1.728  0.00  0.00    -0.361 OA
ATOM     14  H   UNL d   1      17.181 -22.552   1.213  0.00  0.00     0.217 HD
ENDBRANCH  10  13
ENDBRANCH   4   7
ENDBRANCH   1   3
BRANCH   2  15
ATOM     15  C   UNL d   1      25.910 -17.276  -0.597  0.00  0.00     0.027 A 
ATOM     16  C   UNL d   1      27.188 -17.705  -0.212  0.00  0.00     0.078 A 
ATOM     17  C   UNL d   1      28.332 -17.065  -0.693  0.00  0.00     0.038 A 
ATOM     18  C   UNL d   1      28.217 -15.992  -1.575  0.00  0.00     0.015 A 
ATOM     19  C   UNL d   1      26.956 -15.534  -1.979  0.00  0.00    -0.025 A 
ATOM     20  C   UNL d   1      26.863 -14.443  -2.863  0.00  0.00     0.012 A 
ATOM     21  C   UNL d   1      25.779 -16.168  -1.485  0.00  0.00    -0.011 A 
ATOM     22  C   UNL d   1      25.621 -13.951  -3.259  0.00  0.00     0.001 A 
ATOM     23  C   UNL d   1      24.463 -14.540  -2.770  0.00  0.00     0.001 A 
ATOM     24  C   UNL d   1      24.540 -15.629  -1.897  0.00  0.00     0.013 A 
BRANCH  16  25
ATOM     25  O   UNL d   1      27.400 -18.782   0.605  0.00  0.00    -0.360 OA
ATOM     26  H   UNL d   1      28.359 -18.984   0.606  0.00  0.00     0.217 HD
ENDBRANCH  16  25
ENDBRANCH   2  15
TORSDOF 5
ENDMDL
MODEL 2
REMARK VINA RESULT:    -7.981      1.546      2.848
REMARK INTER + INTRA:         -10.427
REMARK INTER:                  -9.472
REMARK INTRA:                  -0.955
REMARK CONF_INDEPENDENT:        1.492
REMARK UNBOUND:                -0.955
REMARK  5 active torsions:
REMARK  status: ('A' for Active; 'I' for Inactive)
REMARK       I    between atoms: C_2  and  N_3 
REMARK    1  A    between atoms: C_2  and  C_17 
REMARK    2  A    between atoms: N_3  and  N_4 
REMARK    3  A    between atoms: C_5  and  C_6 
REMARK    4  A    between atoms: C_7  and  O_8 
REMARK    5  A    between atoms: C_20  and  O_21 
ROOT
ATOM      1  N   UNL d   1      22.928 -16.431  -1.235  0.00  0.00    -0.183 NA
ATOM      2  C   UNL d   1      24.167 -16.721  -0.972  0.00  0.00     0.153 C 
ENDROOT
BRANCH   1   3
ATOM      3  N   UNL d   1      21.935 -17.124  -0.555  0.00  0.00    -0.243 N 
ATOM      4  C   UNL d   1      21.664 -18.452  -0.905  0.00  0.00     0.271 C 
ATOM      5  O   UNL d   1      22.278 -19.085  -1.768  0.00  0.00    -0.266 OA
ATOM      6  H   UNL d   1      21.479 -16.691   0.241  0.00  0.00     0.192 HD
BRANCH   4   7
ATOM      7  C   UNL d   1      20.551 -19.154  -0.187  0.00  0.00     0.033 A 
ATOM      8  C   UNL d   1      20.647 -19.412   1.196  0.00  0.00     0.020 A 
ATOM      9  C   UNL d   1      19.659 -20.158   1.866  0.00  0.00     0.037 A 
ATOM     10  C   UNL d   1      18.585 -20.665   1.145  0.00  0.00     0.065 A 
ATOM     11  C   UNL d   1      18.492 -20.443  -0.226  0.00  0.00     0.037 A 
ATOM     12  C   UNL d   1      19.466 -19.687  -0.893  0.00  0.00     0.020 A 
BRANCH  10  13
ATOM     13  O   UNL d   1      17.593 -21.402   1.726  0.00  0.00    -0.361 OA
ATOM     14  H   UNL d   1      17.349 -22.143   1.149  0.00  0.00     0.217 HD
ENDBRANCH  10  13
ENDBRANCH   4   7
ENDBRANCH   1   3
BRANCH   2  15
ATOM     15  C   UNL d   1      25.303 -16.038  -1.677  0.00  0.00     0.027 A 
ATOM     16  C   UNL d   1      25.035 -15.004  -2.584  0.00  0.00     0.078 A 
ATOM     17  C   UNL d   1      26.074 -14.318  -3.214  0.00  0.00     0.038 A 
ATOM     18  C   UNL d   1      27.400 -14.646  -2.940  0.00  0.00     0.015 A 
ATOM     19  C   UNL d   1      27.707 -15.677  -2.041  0.00  0.00    -0.025 A 
ATOM     20  C   UNL d   1      29.053 -15.998  -1.784  0.00  0.00     0.012 A 
ATOM     21  C   UNL d   1      26.656 -16.396  -1.401  0.00  0.00    -0.011 A 
ATOM     22  C   UNL d   1      29.385 -17.035  -0.916  0.00  0.00     0.001 A 
ATOM     23  C   UNL d   1      28.375 -17.764  -0.301  0.00  0.00     0.001 A 
ATOM     24  C   UNL d   1      27.034 -17.450  -0.539  0.00  0.00     0.013 A 
BRANCH  16  25
ATOM     25  O   UNL d   1      23.767 -14.577  -2.874  0.00  0.00    -0.360 OA
ATOM     26  H   UNL d   1      23.162 -14.911  -2.178  0.00  0.00     0.217 HD
ENDBRANCH  16  25
ENDBRANCH   2  15
TORSDOF 5
ENDMDL
MODEL 3
REMARK VINA RESULT:    -7.313      1.129      1.765
REMARK INTER + INTRA:          -9.738
REMARK INTER:                  -8.804
REMARK INTRA:                  -0.934
REMARK CONF_INDEPENDENT:        1.492
REMARK UNBOUND:                -0.934
REMARK  5 active torsions:
REMARK  status: ('A' for Active; 'I' for Inactive)
REMARK       I    between atoms: C_2  and  N_3 
REMARK    1  A    between atoms: C_2  and  C_17 
REMARK    2  A    between atoms: N_3  and  N_4 
REMARK    3  A    between atoms: C_5  and  C_6 
REMARK    4  A    between atoms: C_7  and  O_8 
REMARK    5  A    between atoms: C_20  and  O_21 
ROOT
ATOM      1  N   UNL d   1      24.927 -17.987  -0.530  0.00  0.00    -0.183 NA
ATOM      2  C   UNL d   1      25.012 -17.020  -1.395  0.00  0.00     0.153 C 
ENDROOT
BRANCH   1   3
ATOM      3  N   UNL d   1      23.743 -18.709  -0.471  0.00  0.00    -0.243 N 
ATOM      4  C   UNL d   1      22.536 -18.031  -0.258  0.00  0.00     0.271 C 
ATOM      5  O   UNL d   1      22.434 -16.807  -0.152  0.00  0.00    -0.266 OA
ATOM      6  H   UNL d   1      23.753 -19.705  -0.669  0.00  0.00     0.192 HD
BRANCH   4   7
ATOM      7  C   UNL d   1      21.282 -18.846  -0.148  0.00  0.00     0.033 A 
ATOM      8  C   UNL d   1      20.447 -19.023  -1.270  0.00  0.00     0.020 A 
ATOM      9  C   UNL d   1      19.218 -19.698  -1.161  0.00  0.00     0.037 A 
ATOM     10  C   UNL d   1      18.814 -20.179   0.079  0.00  0.00     0.065 A 
ATOM     11  C   UNL d   1      19.615 -19.987   1.201  0.00  0.00     0.037 A 
ATOM     12  C   UNL d   1      20.847 -19.328   1.092  0.00  0.00     0.020 A 
BRANCH  10  13
ATOM     13  O   UNL d   1      17.632 -20.839   0.261  0.00  0.00    -0.361 OA
ATOM     14  H   UNL d   1      16.972 -20.519  -0.375  0.00  0.00     0.217 HD
ENDBRANCH  10  13
ENDBRANCH   4   7
ENDBRANCH   1   3
BRANCH   2  15
ATOM     15  C   UNL d   1      26.245 -16.172  -1.510  0.00  0.00     0.027 A 
ATOM     16  C   UNL d   1      27.387 -16.506  -0.769  0.00  0.00     0.078 A 
ATOM     17  C   UNL d   1      28.564 -15.767  -0.896  0.00  0.00     0.038 A 
ATOM     18  C   UNL d   1      28.622 -14.686  -1.775  0.00  0.00     0.015 A 
ATOM     19  C   UNL d   1      27.500 -14.320  -2.529  0.00  0.00    -0.025 A 
ATOM     20  C   UNL d   1      27.577 -13.221  -3.404  0.00  0.00     0.012 A 
ATOM     21  C   UNL d   1      26.287 -15.057  -2.399  0.00  0.00    -0.011 A 
ATOM     22  C   UNL d   1      26.468 -12.820  -4.145  0.00  0.00     0.001 A 
ATOM     23  C   UNL d   1      25.271 -13.510  -4.014  0.00  0.00     0.001 A 
ATOM     24  C   UNL d   1      25.181 -14.610  -3.156  0.00  0.00     0.013 A 
BRANCH  16  25
ATOM     25  O   UNL d   1      27.440 -17.582   0.076  0.00  0.00    -0.360 OA
ATOM     26  H   UNL d   1      26.664 -17.542   0.674  0.00  0.00     0.217 HD
ENDBRANCH  16  25
ENDBRANCH   2  15
TORSDOF 5
ENDMDL
MODEL 4
REMARK VINA RESULT:    -6.878      4.346      8.981
REMARK INTER + INTRA:          -8.957
REMARK INTER:                  -8.370
REMARK INTRA:                  -0.587
REMARK CONF_INDEPENDENT:        1.492
REMARK UNBOUND:                -0.587
REMARK  5 active torsions:
REMARK  status: ('A' for Active; 'I' for Inactive)
REMARK       I    between atoms: C_2  and  N_3 
REMARK    1  A    between atoms: C_2  and  C_17 
REMARK    2  A    between atoms: N_3  and  N_4 
REMARK    3  A    between atoms: C_5  and  C_6 
REMARK    4  A    between atoms: C_7  and  O_8 
REMARK    5  A    between atoms: C_20  and  O_21 
ROOT
ATOM      1  N   UNL d   1      25.242 -14.739  -3.607  0.00  0.00    -0.183 NA
ATOM      2  C   UNL d   1      25.514 -14.720  -2.336  0.00  0.00     0.153 C 
ENDROOT
BRANCH   1   3
ATOM      3  N   UNL d   1      25.061 -13.524  -4.255  0.00  0.00    -0.243 N 
ATOM      4  C   UNL d   1      26.096 -12.580  -4.244  0.00  0.00     0.271 C 
ATOM      5  O   UNL d   1      27.198 -12.762  -3.722  0.00  0.00    -0.266 OA
ATOM      6  H   UNL d   1      24.219 -13.368  -4.800  0.00  0.00     0.192 HD
BRANCH   4   7
ATOM      7  C   UNL d   1      25.848 -11.259  -4.907  0.00  0.00     0.033 A 
ATOM      8  C   UNL d   1      26.069 -11.105  -6.291  0.00  0.00     0.020 A 
ATOM      9  C   UNL d   1      25.939  -9.849  -6.912  0.00  0.00     0.037 A 
ATOM     10  C   UNL d   1      25.609  -8.740  -6.141  0.00  0.00     0.065 A 
ATOM     11  C   UNL d   1      25.416  -8.872  -4.769  0.00  0.00     0.037 A 
ATOM     12  C   UNL d   1      25.530 -10.126  -4.150  0.00  0.00     0.020 A 
BRANCH  10  13
ATOM     13  O   UNL d   1      25.472  -7.490  -6.673  0.00  0.00    -0.361 OA
ATOM     14  H   UNL d   1      25.456  -7.543  -7.643  0.00  0.00     0.217 HD
ENDBRANCH  10  13
ENDBRANCH   4   7
ENDBRANCH   1   3
BRANCH   2  15
ATOM     15  C   UNL d   1      25.702 -15.986  -1.552  0.00  0.00     0.027 A 
ATOM     16  C   UNL d   1      26.997 -16.453  -1.290  0.00  0.00     0.078 A 
ATOM     17  C   UNL d   1      27.203 -17.599  -0.520  0.00  0.00     0.038 A 
ATOM     18  C   UNL d   1      26.116 -18.291   0.011  0.00  0.00     0.015 A 
ATOM     19  C   UNL d   1      24.807 -17.856  -0.232  0.00  0.00    -0.025 A 
ATOM     20  C   UNL d   1      23.723 -18.575   0.307  0.00  0.00     0.012 A 
ATOM     21  C   UNL d   1      24.581 -16.696  -1.029  0.00  0.00    -0.011 A 
ATOM     22  C   UNL d   1      22.411 -18.178   0.059  0.00  0.00     0.001 A 
ATOM     23  C   UNL d   1      22.170 -17.066  -0.735  0.00  0.00     0.001 A 
ATOM     24  C   UNL d   1      23.236 -16.337  -1.270  0.00  0.00     0.013 A 
BRANCH  16  25
ATOM     25  O   UNL d   1      28.124 -15.809  -1.724  0.00  0.00    -0.360 OA
ATOM     26  H   UNL d   1      27.861 -15.151  -2.402  0.00  0.00     0.217 HD
ENDBRANCH  16  25
ENDBRANCH   2  15
TORSDOF 5
ENDMDL
