MODEL 1
REMARK VINA RESULT:    -7.837      0.000      0.000
REMARK INTER + INTRA:         -10.741
REMARK INTER:                  -9.329
REMARK INTRA:                  -1.412
REMARK CONF_INDEPENDENT:        1.492
REMARK UNBOUND:                -1.412
REMARK  5 active torsions:
REMARK  status: ('A' for Active; 'I' for Inactive)
REMARK    1  A    between atoms: O_2  and  C_3 
REMARK    2  A    between atoms: C_5  and  C_6 
REMARK    3  A    between atoms: C_19  and  S_20 
REMARK    4  A    between atoms: C_27  and  O_28 
REMARK    5  A    between atoms: C_30  and  O_31 
ROOT
ATOM      1  C   UNL d   1      26.652 -16.171  -1.836  0.00  0.00     0.100 A 
ATOM      2  C   UNL d   1      26.417 -15.058  -2.835  0.00  0.00     0.024 A 
ATOM      3  C   UNL d   1      25.170 -14.609  -3.095  0.00  0.00     0.022 A 
ATOM      4  C   UNL d   1      24.916 -13.423  -3.994  0.00  0.00     0.067 C 
ATOM      5  C   UNL d   1      26.152 -12.504  -4.114  0.00  0.00    -0.036 C 
ATOM      6  C   UNL d   1      26.436 -11.795  -2.770  0.00  0.00     0.015 C 
ATOM      7  C   UNL d   1      25.905 -11.436  -5.183  0.00  0.00     0.015 C 
ATOM      8  C   UNL d   1      27.351 -13.367  -4.527  0.00  0.00     0.092 C 
ATOM      9  C   UNL d   1      27.608 -14.421  -3.480  0.00  0.00     0.159 C 
ATOM     10  O   UNL d   1      28.756 -14.750  -3.197  0.00  0.00    -0.293 OA
ATOM     11  N   UNL d   1      24.082 -15.197  -2.478  0.00  0.00    -0.343 N 
ATOM     12  C   UNL d   1      24.134 -16.272  -1.608  0.00  0.00     0.143 A 
ATOM     13  N   UNL d   1      22.969 -16.790  -1.078  0.00  0.00    -0.206 NA
ATOM     14  C   UNL d   1      23.080 -17.785  -0.266  0.00  0.00     0.170 A 
ATOM     15  N   UNL d   1      24.261 -18.354   0.092  0.00  0.00    -0.302 N 
ATOM     16  C   UNL d   1      25.442 -17.924  -0.411  0.00  0.00     0.258 A 
ATOM     17  O   UNL d   1      26.501 -18.488  -0.136  0.00  0.00    -0.267 OA
ATOM     18  C   UNL d   1      25.357 -16.765  -1.310  0.00  0.00     0.069 A 
ATOM     19  H   UNL d   1      23.149 -14.838  -2.656  0.00  0.00     0.167 HD
ATOM     20  H   UNL d   1      24.285 -19.143   0.718  0.00  0.00     0.171 HD
ENDROOT
BRANCH   1  21
ATOM     21  C   UNL d   1      27.518 -15.683  -0.678  0.00  0.00    -0.039 A 
ATOM     22  C   UNL d   1      28.865 -16.055  -0.628  0.00  0.00     0.048 A 
ATOM     23  C   UNL d   1      29.679 -15.645   0.425  0.00  0.00     0.104 A 
ATOM     24  C   UNL d   1      29.148 -14.825   1.444  0.00  0.00     0.133 A 
ATOM     25  C   UNL d   1      27.800 -14.432   1.414  0.00  0.00     0.104 A 
ATOM     26  C   UNL d   1      26.998 -14.875   0.350  0.00  0.00     0.048 A 
BRANCH  23  27
ATOM     27  O   UNL d   1      30.967 -16.121   0.336  0.00  0.00    -0.353 OA
ATOM     28  C   UNL d   1      31.141 -17.425  -0.205  0.00  0.00     0.210 C 
ENDBRANCH  23  27
BRANCH  24  29
ATOM     29  O   UNL d   1      30.035 -14.481   2.420  0.00  0.00    -0.356 OA
ATOM     30  H   UNL d   1      30.405 -15.186   2.942  0.00  0.00     0.218 HD
ENDBRANCH  24  29
BRANCH  25  31
ATOM     31  O   UNL d   1      27.104 -13.651   2.302  0.00  0.00    -0.353 OA
ATOM     32  C   UNL d   1      27.449 -13.715   3.671  0.00  0.00     0.210 C 
ENDBRANCH  25  31
ENDBRANCH   1  21
BRANCH  14  33
ATOM     33  S   UNL d   1      21.736 -18.575   0.507  0.00  0.00    -0.096 SA
ATOM     34  C   UNL d   1      20.657 -19.005  -0.876  0.00  0.00     0.099 C 
ENDBRANCH  14  33
TORSDOF 5
ENDMDL
MODEL 2
REMARK VINA RESULT:    -7.609      0.488      2.326
REMARK INTER + INTRA:         -10.558
REMARK INTER:                  -9.101
REMARK INTRA:                  -1.457
REMARK CONF_INDEPENDENT:        1.492
REMARK UNBOUND:                -1.457
REMARK  5 active torsions:
REMARK  status: ('A' for Active; 'I' for Inactive)
REMARK    1  A    between atoms: O_2  and  C_3 
REMARK    2  A    between atoms: C_5  and  C_6 
REMARK    3  A    between atoms: C_19  and  S_20 
REMARK    4  A    between atoms: C_27  and  O_28 
REMARK    5  A    between atoms: C_30  and  O_31 
ROOT
ATOM      1  C   UNL d   1      26.610 -16.284  -1.952  0.00  0.00     0.100 A 
ATOM      2  C   UNL d   1      26.361 -15.136  -2.908  0.00  0.00     0.024 A 
ATOM      3  C   UNL d   1      25.119 -14.637  -3.086  0.00  0.00     0.022 A 
ATOM      4  C   UNL d   1      24.859 -13.419  -3.939  0.00  0.00     0.067 C 
ATOM      5  C   UNL d   1      26.119 -12.541  -4.106  0.00  0.00    -0.036 C 
ATOM      6  C   UNL d   1      26.504 -11.879  -2.763  0.00  0.00     0.015 C 
ATOM      7  C   UNL d   1      25.853 -11.436  -5.132  0.00  0.00     0.015 C 
ATOM      8  C   UNL d   1      27.261 -13.435  -4.607  0.00  0.00     0.092 C 
ATOM      9  C   UNL d   1      27.537 -14.524  -3.604  0.00  0.00     0.159 C 
ATOM     10  O   UNL d   1      28.687 -14.902  -3.395  0.00  0.00    -0.293 OA
ATOM     11  N   UNL d   1      24.046 -15.202  -2.423  0.00  0.00    -0.343 N 
ATOM     12  C   UNL d   1      24.107 -16.302  -1.584  0.00  0.00     0.143 A 
ATOM     13  N   UNL d   1      22.956 -16.792  -1.002  0.00  0.00    -0.206 NA
ATOM     14  C   UNL d   1      23.075 -17.812  -0.223  0.00  0.00     0.170 A 
ATOM     15  N   UNL d   1      24.253 -18.432   0.053  0.00  0.00    -0.302 N 
ATOM     16  C   UNL d   1      25.418 -18.031  -0.505  0.00  0.00     0.258 A 
ATOM     17  O   UNL d   1      26.470 -18.639  -0.305  0.00  0.00    -0.267 OA
ATOM     18  C   UNL d   1      25.326 -16.846  -1.369  0.00  0.00     0.069 A 
ATOM     19  H   UNL d   1      23.119 -14.806  -2.539  0.00  0.00     0.167 HD
ATOM     20  H   UNL d   1      24.282 -19.238   0.657  0.00  0.00     0.171 HD
ENDROOT
BRANCH   1  21
ATOM     21  C   UNL d   1      27.557 -15.858  -0.833  0.00  0.00    -0.039 A 
ATOM     22  C   UNL d   1      27.079 -15.029   0.187  0.00  0.00     0.048 A 
ATOM     23  C   UNL d   1      27.921 -14.605   1.212  0.00  0.00     0.104 A 
ATOM     24  C   UNL d   1      29.265 -15.031   1.239  0.00  0.00     0.133 A 
ATOM     25  C   UNL d   1      29.768 -15.870   0.230  0.00  0.00     0.104 A 
ATOM     26  C   UNL d   1      28.903 -16.268  -0.802  0.00  0.00     0.048 A 
BRANCH  23  27
ATOM     27  O   UNL d   1      27.301 -13.772   2.117  0.00  0.00    -0.353 OA
ATOM     28  C   UNL d   1      26.654 -12.616   1.598  0.00  0.00     0.210 C 
ENDBRANCH  23  27
BRANCH  24  29
ATOM     29  O   UNL d   1      29.994 -14.558   2.289  0.00  0.00    -0.356 OA
ATOM     30  H   UNL d   1      30.387 -15.200   2.872  0.00  0.00     0.218 HD
ENDBRANCH  24  29
BRANCH  25  31
ATOM     31  O   UNL d   1      31.032 -16.383   0.078  0.00  0.00    -0.353 OA
ATOM     32  C   UNL d   1      31.172 -17.677  -0.473  0.00  0.00     0.210 C 
ENDBRANCH  25  31
ENDBRANCH   1  21
BRANCH  14  33
ATOM     33  S   UNL d   1      21.748 -18.575   0.605  0.00  0.00    -0.096 SA
ATOM     34  C   UNL d   1      20.744 -19.235  -0.742  0.00  0.00     0.099 C 
ENDBRANCH  14  33
TORSDOF 5
ENDMDL
MODEL 3
REMARK VINA RESULT:    -6.447      2.461      5.271
REMARK INTER + INTRA:          -9.710
REMARK INTER:                  -7.939
REMARK INTRA:                  -1.772
REMARK CONF_INDEPENDENT:        1.492
REMARK UNBOUND:                -1.772
REMARK  5 active torsions:
REMARK  status: ('A' for Active; 'I' for Inactive)
REMARK    1  A    between atoms: O_2  and  C_3 
REMARK    2  A    between atoms: C_5  and  C_6 
REMARK    3  A    between atoms: C_19  and  S_20 
REMARK    4  A    between atoms: C_27  and  O_28 
REMARK    5  A    between atoms: C_30  and  O_31 
ROOT
ATOM      1  C   UNL d   1      27.228 -14.978  -1.777  0.00  0.00     0.100 A 
ATOM      2  C   UNL d   1      28.090 -14.540  -0.612  0.00  0.00     0.024 A 
ATOM      3  C   UNL d   1      27.981 -15.136   0.595  0.00  0.00     0.022 A 
ATOM      4  C   UNL d   1      28.907 -14.803   1.741  0.00  0.00     0.067 C 
ATOM      5  C   UNL d   1      30.237 -14.185   1.257  0.00  0.00    -0.036 C 
ATOM      6  C   UNL d   1      31.080 -15.234   0.496  0.00  0.00     0.015 C 
ATOM      7  C   UNL d   1      31.049 -13.690   2.457  0.00  0.00     0.015 C 
ATOM      8  C   UNL d   1      29.908 -12.998   0.342  0.00  0.00     0.092 C 
ATOM      9  C   UNL d   1      29.113 -13.473  -0.847  0.00  0.00     0.159 C 
ATOM     10  O   UNL d   1      29.293 -12.976  -1.955  0.00  0.00    -0.293 OA
ATOM     11  N   UNL d   1      27.043 -16.131   0.792  0.00  0.00    -0.343 N 
ATOM     12  C   UNL d   1      26.134 -16.579  -0.152  0.00  0.00     0.143 A 
ATOM     13  N   UNL d   1      25.224 -17.563   0.176  0.00  0.00    -0.206 NA
ATOM     14  C   UNL d   1      24.409 -17.947  -0.746  0.00  0.00     0.170 A 
ATOM     15  N   UNL d   1      24.388 -17.442  -2.008  0.00  0.00    -0.302 N 
ATOM     16  C   UNL d   1      25.226 -16.453  -2.395  0.00  0.00     0.258 A 
ATOM     17  O   UNL d   1      25.155 -15.953  -3.518  0.00  0.00    -0.267 OA
ATOM     18  C   UNL d   1      26.195 -16.018  -1.381  0.00  0.00     0.069 A 
ATOM     19  H   UNL d   1      26.983 -16.595   1.693  0.00  0.00     0.167 HD
ATOM     20  H   UNL d   1      23.715 -17.769  -2.683  0.00  0.00     0.171 HD
ENDROOT
BRANCH   1  21
ATOM     21  C   UNL d   1      28.093 -15.502  -2.920  0.00  0.00    -0.039 A 
ATOM     22  C   UNL d   1      27.811 -15.100  -4.230  0.00  0.00     0.048 A 
ATOM     23  C   UNL d   1      28.567 -15.575  -5.299  0.00  0.00     0.104 A 
ATOM     24  C   UNL d   1      29.645 -16.454  -5.061  0.00  0.00     0.133 A 
ATOM     25  C   UNL d   1      29.954 -16.867  -3.754  0.00  0.00     0.104 A 
ATOM     26  C   UNL d   1      29.164 -16.387  -2.697  0.00  0.00     0.048 A 
BRANCH  23  27
ATOM     27  O   UNL d   1      28.139 -15.105  -6.520  0.00  0.00    -0.353 OA
ATOM     28  C   UNL d   1      28.902 -14.062  -7.117  0.00  0.00     0.210 C 
ENDBRANCH  23  27
BRANCH  24  29
ATOM     29  O   UNL d   1      30.316 -16.851  -6.179  0.00  0.00    -0.356 OA
ATOM     30  H   UNL d   1      30.144 -16.373  -6.984  0.00  0.00     0.218 HD
ENDBRANCH  24  29
BRANCH  25  31
ATOM     31  O   UNL d   1      30.947 -17.710  -3.322  0.00  0.00    -0.353 OA
ATOM     32  C   UNL d   1      31.171 -17.831  -1.932  0.00  0.00     0.210 C 
ENDBRANCH  25  31
ENDBRANCH   1  21
BRANCH  14  33
ATOM     33  S   UNL d   1      23.192 -19.172  -0.532  0.00  0.00    -0.096 SA
ATOM     34  C   UNL d   1      21.655 -18.296  -0.893  0.00  0.00     0.099 C 
ENDBRANCH  14  33
TORSDOF 5
ENDMDL
MODEL 4
REMARK VINA RESULT:    -6.400      2.460      5.157
REMARK INTER + INTRA:          -9.705
REMARK INTER:                  -7.891
REMARK INTRA:                  -1.813
REMARK CONF_INDEPENDENT:        1.492
REMARK UNBOUND:                -1.813
REMARK  5 active torsions:
REMARK  status: ('A' for Active; 'I' for Inactive)
REMARK    1  A    between atoms: O_2  and  C_3 
REMARK    2  A    between atoms: C_5  and  C_6 
REMARK    3  A    between atoms: C_19  and  S_20 
REMARK    4  A    between atoms: C_27  and  O_28 
REMARK    5  A    between atoms: C_30  and  O_31 
ROOT
ATOM      1  C   UNL d   1      27.253 -14.927  -1.762  0.00  0.00     0.100 A 
ATOM      2  C   UNL d   1      28.130 -14.509  -0.600  0.00  0.00     0.024 A 
ATOM      3  C   UNL d   1      28.028 -15.116   0.601  0.00  0.00     0.022 A 
ATOM      4  C   UNL d   1      28.968 -14.803   1.741  0.00  0.00     0.067 C 
ATOM      5  C   UNL d   1      30.298 -14.190   1.250  0.00  0.00    -0.036 C 
ATOM      6  C   UNL d   1      31.125 -15.237   0.470  0.00  0.00     0.015 C 
ATOM      7  C   UNL d   1      31.126 -13.714   2.447  0.00  0.00     0.015 C 
ATOM      8  C   UNL d   1      29.970 -12.992   0.351  0.00  0.00     0.092 C 
ATOM      9  C   UNL d   1      29.159 -13.447  -0.835  0.00  0.00     0.159 C 
ATOM     10  O   UNL d   1      29.332 -12.940  -1.939  0.00  0.00    -0.293 OA
ATOM     11  N   UNL d   1      27.083 -16.106   0.797  0.00  0.00    -0.343 N 
ATOM     12  C   UNL d   1      26.162 -16.537  -0.143  0.00  0.00     0.143 A 
ATOM     13  N   UNL d   1      25.247 -17.517   0.185  0.00  0.00    -0.206 NA
ATOM     14  C   UNL d   1      24.420 -17.884  -0.733  0.00  0.00     0.170 A 
ATOM     15  N   UNL d   1      24.391 -17.366  -1.989  0.00  0.00    -0.302 N 
ATOM     16  C   UNL d   1      25.233 -16.380  -2.374  0.00  0.00     0.258 A 
ATOM     17  O   UNL d   1      25.155 -15.868  -3.492  0.00  0.00    -0.267 OA
ATOM     18  C   UNL d   1      26.216 -15.963  -1.366  0.00  0.00     0.069 A 
ATOM     19  H   UNL d   1      27.029 -16.578   1.694  0.00  0.00     0.167 HD
ATOM     20  H   UNL d   1      23.708 -17.681  -2.661  0.00  0.00     0.171 HD
ENDROOT
BRANCH   1  21
ATOM     21  C   UNL d   1      28.102 -15.446  -2.919  0.00  0.00    -0.039 A 
ATOM     22  C   UNL d   1      29.186 -16.288  -2.647  0.00  0.00     0.048 A 
ATOM     23  C   UNL d   1      29.994 -16.763  -3.676  0.00  0.00     0.104 A 
ATOM     24  C   UNL d   1      29.707 -16.413  -5.013  0.00  0.00     0.133 A 
ATOM     25  C   UNL d   1      28.621 -15.575  -5.314  0.00  0.00     0.104 A 
ATOM     26  C   UNL d   1      27.833 -15.096  -4.254  0.00  0.00     0.048 A 
BRANCH  23  27
ATOM     27  O   UNL d   1      31.031 -17.554  -3.235  0.00  0.00    -0.353 OA
ATOM     28  C   UNL d   1      30.888 -18.155  -1.953  0.00  0.00     0.210 C 
ENDBRANCH  23  27
BRANCH  24  29
ATOM     29  O   UNL d   1      30.561 -16.938  -5.937  0.00  0.00    -0.356 OA
ATOM     30  H   UNL d   1      31.351 -17.359  -5.612  0.00  0.00     0.218 HD
ENDBRANCH  24  29
BRANCH  25  31
ATOM     31  O   UNL d   1      28.186 -15.122  -6.533  0.00  0.00    -0.353 OA
ATOM     32  C   UNL d   1      28.883 -14.053  -7.144  0.00  0.00     0.210 C 
ENDBRANCH  25  31
ENDBRANCH   1  21
BRANCH  14  33
ATOM     33  S   UNL d   1      23.195 -19.102  -0.520  0.00  0.00    -0.096 SA
ATOM     34  C   UNL d   1      21.665 -18.220  -0.894  0.00  0.00     0.099 C 
ENDBRANCH  14  33
TORSDOF 5
ENDMDL
MODEL 5
REMARK VINA RESULT:    -6.336      2.385      5.546
REMARK INTER + INTRA:          -9.640
REMARK INTER:                  -7.828
REMARK INTRA:                  -1.812
REMARK CONF_INDEPENDENT:        1.492
REMARK UNBOUND:                -1.812
REMARK  5 active torsions:
REMARK  status: ('A' for Active; 'I' for Inactive)
REMARK    1  A    between atoms: O_2  and  C_3 
REMARK    2  A    between atoms: C_5  and  C_6 
REMARK    3  A    between atoms: C_19  and  S_20 
REMARK    4  A    between atoms: C_27  and  O_28 
REMARK    5  A    between atoms: C_30  and  O_31 
ROOT
ATOM      1  C   UNL d   1      27.879 -14.984  -1.637  0.00  0.00     0.100 A 
ATOM      2  C   UNL d   1      29.220 -15.294  -1.008  0.00  0.00     0.024 A 
ATOM      3  C   UNL d   1      29.417 -16.440  -0.320  0.00  0.00     0.022 A 
ATOM      4  C   UNL d   1      30.773 -16.831   0.216  0.00  0.00     0.067 C 
ATOM      5  C   UNL d   1      31.925 -16.126  -0.535  0.00  0.00    -0.036 C 
ATOM      6  C   UNL d   1      32.025 -16.645  -1.988  0.00  0.00     0.015 C 
ATOM      7  C   UNL d   1      33.254 -16.404   0.171  0.00  0.00     0.015 C 
ATOM      8  C   UNL d   1      31.649 -14.617  -0.525  0.00  0.00     0.092 C 
ATOM      9  C   UNL d   1      30.345 -14.329  -1.221  0.00  0.00     0.159 C 
ATOM     10  O   UNL d   1      30.217 -13.324  -1.914  0.00  0.00    -0.293 OA
ATOM     11  N   UNL d   1      28.373 -17.328  -0.145  0.00  0.00    -0.343 N 
ATOM     12  C   UNL d   1      27.075 -17.143  -0.592  0.00  0.00     0.143 A 
ATOM     13  N   UNL d   1      26.111 -18.095  -0.328  0.00  0.00    -0.206 NA
ATOM     14  C   UNL d   1      24.923 -17.874  -0.776  0.00  0.00     0.170 A 
ATOM     15  N   UNL d   1      24.564 -16.767  -1.480  0.00  0.00    -0.302 N 
ATOM     16  C   UNL d   1      25.444 -15.775  -1.749  0.00  0.00     0.258 A 
ATOM     17  O   UNL d   1      25.095 -14.745  -2.327  0.00  0.00    -0.267 OA
ATOM     18  C   UNL d   1      26.818 -16.012  -1.287  0.00  0.00     0.069 A 
ATOM     19  H   UNL d   1      28.533 -18.200   0.349  0.00  0.00     0.167 HD
ATOM     20  H   UNL d   1      23.614 -16.639  -1.790  0.00  0.00     0.171 HD
ENDROOT
BRANCH   1  21
ATOM     21  C   UNL d   1      28.011 -14.856  -3.152  0.00  0.00    -0.039 A 
ATOM     22  C   UNL d   1      28.824 -15.758  -3.845  0.00  0.00     0.048 A 
ATOM     23  C   UNL d   1      28.984 -15.659  -5.225  0.00  0.00     0.104 A 
ATOM     24  C   UNL d   1      28.301 -14.652  -5.940  0.00  0.00     0.133 A 
ATOM     25  C   UNL d   1      27.472 -13.738  -5.269  0.00  0.00     0.104 A 
ATOM     26  C   UNL d   1      27.344 -13.850  -3.875  0.00  0.00     0.048 A 
BRANCH  23  27
ATOM     27  O   UNL d   1      29.839 -16.605  -5.745  0.00  0.00    -0.353 OA
ATOM     28  C   UNL d   1      30.265 -17.644  -4.872  0.00  0.00     0.210 C 
ENDBRANCH  23  27
BRANCH  24  29
ATOM     29  O   UNL d   1      28.528 -14.652  -7.284  0.00  0.00    -0.356 OA
ATOM     30  H   UNL d   1      29.202 -15.237  -7.613  0.00  0.00     0.218 HD
ENDBRANCH  24  29
BRANCH  25  31
ATOM     31  O   UNL d   1      26.736 -12.698  -5.778  0.00  0.00    -0.353 OA
ATOM     32  C   UNL d   1      25.905 -11.966  -4.900  0.00  0.00     0.210 C 
ENDBRANCH  25  31
ENDBRANCH   1  21
BRANCH  14  33
ATOM     33  S   UNL d   1      23.573 -18.948  -0.552  0.00  0.00    -0.096 SA
ATOM     34  C   UNL d   1      22.155 -17.831  -0.520  0.00  0.00     0.099 C 
ENDBRANCH  14  33
TORSDOF 5
ENDMDL
MODEL 6
REMARK VINA RESULT:    -6.277      3.445      5.258
REMARK INTER + INTRA:          -9.579
REMARK INTER:                  -7.768
REMARK INTRA:                  -1.811
REMARK CONF_INDEPENDENT:        1.492
REMARK UNBOUND:                -1.811
REMARK  5 active torsions:
REMARK  status: ('A' for Active; 'I' for Inactive)
REMARK    1  A    between atoms: O_2  and  C_3 
REMARK    2  A    between atoms: C_5  and  C_6 
REMARK    3  A    between atoms: C_19  and  S_20 
REMARK    4  A    between atoms: C_27  and  O_28 
REMARK    5  A    between atoms: C_30  and  O_31 
ROOT
ATOM      1  C   UNL d   1      26.427 -14.142  -1.425  0.00  0.00     0.100 A 
ATOM      2  C   UNL d   1      26.874 -14.076  -2.870  0.00  0.00     0.024 A 
ATOM      3  C   UNL d   1      27.873 -13.252  -3.251  0.00  0.00     0.022 A 
ATOM      4  C   UNL d   1      28.419 -13.251  -4.659  0.00  0.00     0.067 C 
ATOM      5  C   UNL d   1      28.132 -14.577  -5.399  0.00  0.00    -0.036 C 
ATOM      6  C   UNL d   1      28.941 -15.736  -4.773  0.00  0.00     0.015 C 
ATOM      7  C   UNL d   1      28.529 -14.449  -6.872  0.00  0.00     0.015 C 
ATOM      8  C   UNL d   1      26.627 -14.863  -5.302  0.00  0.00     0.092 C 
ATOM      9  C   UNL d   1      26.223 -14.996  -3.856  0.00  0.00     0.159 C 
ATOM     10  O   UNL d   1      25.374 -15.816  -3.520  0.00  0.00    -0.293 OA
ATOM     11  N   UNL d   1      28.474 -12.421  -2.326  0.00  0.00    -0.343 N 
ATOM     12  C   UNL d   1      28.120 -12.312  -0.991  0.00  0.00     0.143 A 
ATOM     13  N   UNL d   1      28.780 -11.421  -0.171  0.00  0.00    -0.206 NA
ATOM     14  C   UNL d   1      28.414 -11.370   1.064  0.00  0.00     0.170 A 
ATOM     15  N   UNL d   1      27.422 -12.129   1.600  0.00  0.00    -0.302 N 
ATOM     16  C   UNL d   1      26.707 -13.001   0.853  0.00  0.00     0.258 A 
ATOM     17  O   UNL d   1      25.764 -13.635   1.329  0.00  0.00    -0.267 OA
ATOM     18  C   UNL d   1      27.123 -13.114  -0.551  0.00  0.00     0.069 A 
ATOM     19  H   UNL d   1      29.243 -11.823  -2.612  0.00  0.00     0.167 HD
ATOM     20  H   UNL d   1      27.166 -12.033   2.570  0.00  0.00     0.171 HD
ENDROOT
BRANCH   1  21
ATOM     21  C   UNL d   1      26.636 -15.544  -0.859  0.00  0.00    -0.039 A 
ATOM     22  C   UNL d   1      27.917 -16.105  -0.882  0.00  0.00     0.048 A 
ATOM     23  C   UNL d   1      28.141 -17.390  -0.393  0.00  0.00     0.104 A 
ATOM     24  C   UNL d   1      27.070 -18.129   0.153  0.00  0.00     0.133 A 
ATOM     25  C   UNL d   1      25.775 -17.586   0.194  0.00  0.00     0.104 A 
ATOM     26  C   UNL d   1      25.575 -16.296  -0.322  0.00  0.00     0.048 A 
BRANCH  23  27
ATOM     27  O   UNL d   1      29.449 -17.800  -0.516  0.00  0.00    -0.353 OA
ATOM     28  C   UNL d   1      30.460 -16.851  -0.194  0.00  0.00     0.210 C 
ENDBRANCH  23  27
BRANCH  24  29
ATOM     29  O   UNL d   1      27.405 -19.371   0.605  0.00  0.00    -0.356 OA
ATOM     30  H   UNL d   1      28.329 -19.601   0.606  0.00  0.00     0.218 HD
ENDBRANCH  24  29
BRANCH  25  31
ATOM     31  O   UNL d   1      24.616 -18.141   0.675  0.00  0.00    -0.353 OA
ATOM     32  C   UNL d   1      23.494 -18.207  -0.182  0.00  0.00     0.210 C 
ENDBRANCH  25  31
ENDBRANCH   1  21
BRANCH  14  33
ATOM     33  S   UNL d   1      29.120 -10.316   2.255  0.00  0.00    -0.096 SA
ATOM     34  C   UNL d   1      27.734  -9.939   3.349  0.00  0.00     0.099 C 
ENDBRANCH  14  33
TORSDOF 5
ENDMDL
MODEL 7
REMARK VINA RESULT:    -6.183      4.352      7.487
REMARK INTER + INTRA:          -9.489
REMARK INTER:                  -7.675
REMARK INTRA:                  -1.814
REMARK CONF_INDEPENDENT:        1.492
REMARK UNBOUND:                -1.814
REMARK  5 active torsions:
REMARK  status: ('A' for Active; 'I' for Inactive)
REMARK    1  A    between atoms: O_2  and  C_3 
REMARK    2  A    between atoms: C_5  and  C_6 
REMARK    3  A    between atoms: C_19  and  S_20 
REMARK    4  A    between atoms: C_27  and  O_28 
REMARK    5  A    between atoms: C_30  and  O_31 
ROOT
ATOM      1  C   UNL d   1      26.819 -14.176  -5.018  0.00  0.00     0.100 A 
ATOM      2  C   UNL d   1      26.523 -15.021  -3.797  0.00  0.00     0.024 A 
ATOM      3  C   UNL d   1      27.461 -15.841  -3.276  0.00  0.00     0.022 A 
ATOM      4  C   UNL d   1      27.236 -16.604  -1.992  0.00  0.00     0.067 C 
ATOM      5  C   UNL d   1      26.140 -15.960  -1.114  0.00  0.00    -0.036 C 
ATOM      6  C   UNL d   1      26.615 -14.596  -0.562  0.00  0.00     0.015 C 
ATOM      7  C   UNL d   1      25.817 -16.875   0.071  0.00  0.00     0.015 C 
ATOM      8  C   UNL d   1      24.882 -15.779  -1.974  0.00  0.00     0.092 C 
ATOM      9  C   UNL d   1      25.185 -14.876  -3.141  0.00  0.00     0.159 C 
ATOM     10  O   UNL d   1      24.346 -14.075  -3.542  0.00  0.00    -0.293 OA
ATOM     11  N   UNL d   1      28.697 -15.951  -3.883  0.00  0.00    -0.343 N 
ATOM     12  C   UNL d   1      29.083 -15.305  -5.046  0.00  0.00     0.143 A 
ATOM     13  N   UNL d   1      30.340 -15.521  -5.572  0.00  0.00    -0.206 NA
ATOM     14  C   UNL d   1      30.647 -14.886  -6.651  0.00  0.00     0.170 A 
ATOM     15  N   UNL d   1      29.813 -14.030  -7.299  0.00  0.00    -0.302 N 
ATOM     16  C   UNL d   1      28.554 -13.793  -6.864  0.00  0.00     0.258 A 
ATOM     17  O   UNL d   1      27.781 -13.071  -7.494  0.00  0.00    -0.267 OA
ATOM     18  C   UNL d   1      28.183 -14.471  -5.615  0.00  0.00     0.069 A 
ATOM     19  H   UNL d   1      29.408 -16.548  -3.472  0.00  0.00     0.167 HD
ATOM     20  H   UNL d   1      30.102 -13.575  -8.151  0.00  0.00     0.171 HD
ENDROOT
BRANCH   1  21
ATOM     21  C   UNL d   1      26.696 -12.691  -4.689  0.00  0.00    -0.039 A 
ATOM     22  C   UNL d   1      27.284 -12.200  -3.519  0.00  0.00     0.048 A 
ATOM     23  C   UNL d   1      27.174 -10.854  -3.177  0.00  0.00     0.104 A 
ATOM     24  C   UNL d   1      26.482  -9.968  -4.029  0.00  0.00     0.133 A 
ATOM     25  C   UNL d   1      25.888 -10.434  -5.214  0.00  0.00     0.104 A 
ATOM     26  C   UNL d   1      25.999 -11.799  -5.525  0.00  0.00     0.048 A 
BRANCH  23  27
ATOM     27  O   UNL d   1      27.784 -10.543  -1.982  0.00  0.00    -0.353 OA
ATOM     28  C   UNL d   1      27.787 -11.548  -0.975  0.00  0.00     0.210 C 
ENDBRANCH  23  27
BRANCH  24  29
ATOM     29  O   UNL d   1      26.440  -8.675  -3.598  0.00  0.00    -0.356 OA
ATOM     30  H   UNL d   1      26.881  -8.474  -2.778  0.00  0.00     0.218 HD
ENDBRANCH  24  29
BRANCH  25  31
ATOM     31  O   UNL d   1      25.177  -9.740  -6.160  0.00  0.00    -0.353 OA
ATOM     32  C   UNL d   1      24.399  -8.635  -5.744  0.00  0.00     0.210 C 
ENDBRANCH  25  31
ENDBRANCH   1  21
BRANCH  14  33
ATOM     33  S   UNL d   1      32.178 -15.019  -7.467  0.00  0.00    -0.096 SA
ATOM     34  C   UNL d   1      32.208 -16.739  -8.014  0.00  0.00     0.099 C 
ENDBRANCH  14  33
TORSDOF 5
ENDMDL
MODEL 8
REMARK VINA RESULT:    -6.106      4.428      6.402
REMARK INTER + INTRA:          -9.303
REMARK INTER:                  -7.597
REMARK INTRA:                  -1.706
REMARK CONF_INDEPENDENT:        1.492
REMARK UNBOUND:                -1.706
REMARK  5 active torsions:
REMARK  status: ('A' for Active; 'I' for Inactive)
REMARK    1  A    between atoms: O_2  and  C_3 
REMARK    2  A    between atoms: C_5  and  C_6 
REMARK    3  A    between atoms: C_19  and  S_20 
REMARK    4  A    between atoms: C_27  and  O_28 
REMARK    5  A    between atoms: C_30  and  O_31 
ROOT
ATOM      1  C   UNL d   1      29.616 -15.237  -4.200  0.00  0.00     0.100 A 
ATOM      2  C   UNL d   1      29.513 -13.964  -5.014  0.00  0.00     0.024 A 
ATOM      3  C   UNL d   1      29.641 -13.986  -6.358  0.00  0.00     0.022 A 
ATOM      4  C   UNL d   1      29.425 -12.754  -7.204  0.00  0.00     0.067 C 
ATOM      5  C   UNL d   1      28.557 -11.696  -6.487  0.00  0.00    -0.036 C 
ATOM      6  C   UNL d   1      27.104 -12.199  -6.330  0.00  0.00     0.015 C 
ATOM      7  C   UNL d   1      28.536 -10.400  -7.302  0.00  0.00     0.015 C 
ATOM      8  C   UNL d   1      29.179 -11.420  -5.112  0.00  0.00     0.092 C 
ATOM      9  C   UNL d   1      29.202 -12.687  -4.297  0.00  0.00     0.159 C 
ATOM     10  O   UNL d   1      28.995 -12.653  -3.087  0.00  0.00    -0.293 OA
ATOM     11  N   UNL d   1      29.912 -15.176  -7.007  0.00  0.00    -0.343 N 
ATOM     12  C   UNL d   1      30.111 -16.400  -6.392  0.00  0.00     0.143 A 
ATOM     13  N   UNL d   1      30.405 -17.515  -7.151  0.00  0.00    -0.206 NA
ATOM     14  C   UNL d   1      30.572 -18.630  -6.526  0.00  0.00     0.170 A 
ATOM     15  N   UNL d   1      30.483 -18.771  -5.177  0.00  0.00    -0.302 N 
ATOM     16  C   UNL d   1      30.231 -17.719  -4.363  0.00  0.00     0.258 A 
ATOM     17  O   UNL d   1      30.220 -17.842  -3.138  0.00  0.00    -0.267 OA
ATOM     18  C   UNL d   1      29.997 -16.440  -5.045  0.00  0.00     0.069 A 
ATOM     19  H   UNL d   1      29.979 -15.191  -8.019  0.00  0.00     0.167 HD
ATOM     20  H   UNL d   1      30.641 -19.666  -4.740  0.00  0.00     0.171 HD
ENDROOT
BRANCH   1  21
ATOM     21  C   UNL d   1      28.311 -15.508  -3.455  0.00  0.00    -0.039 A 
ATOM     22  C   UNL d   1      27.102 -15.098  -4.025  0.00  0.00     0.048 A 
ATOM     23  C   UNL d   1      25.895 -15.310  -3.364  0.00  0.00     0.104 A 
ATOM     24  C   UNL d   1      25.885 -15.966  -2.114  0.00  0.00     0.133 A 
ATOM     25  C   UNL d   1      27.085 -16.393  -1.523  0.00  0.00     0.104 A 
ATOM     26  C   UNL d   1      28.289 -16.150  -2.204  0.00  0.00     0.048 A 
BRANCH  23  27
ATOM     27  O   UNL d   1      24.805 -14.822  -4.048  0.00  0.00    -0.353 OA
ATOM     28  C   UNL d   1      24.754 -13.417  -4.270  0.00  0.00     0.210 C 
ENDBRANCH  23  27
BRANCH  24  29
ATOM     29  O   UNL d   1      24.649 -16.123  -1.561  0.00  0.00    -0.356 OA
ATOM     30  H   UNL d   1      23.897 -15.903  -2.102  0.00  0.00     0.218 HD
ENDBRANCH  24  29
BRANCH  25  31
ATOM     31  O   UNL d   1      27.283 -17.036  -0.327  0.00  0.00    -0.353 OA
ATOM     32  C   UNL d   1      26.431 -18.112   0.010  0.00  0.00     0.210 C 
ENDBRANCH  25  31
ENDBRANCH   1  21
BRANCH  14  33
ATOM     33  S   UNL d   1      30.946 -20.143  -7.299  0.00  0.00    -0.096 SA
ATOM     34  C   UNL d   1      31.055 -19.700  -9.045  0.00  0.00     0.099 C 
ENDBRANCH  14  33
TORSDOF 5
ENDMDL
MODEL 9
REMARK VINA RESULT:    -6.026      3.309      6.386
REMARK INTER + INTRA:          -9.402
REMARK INTER:                  -7.518
REMARK INTRA:                  -1.884
REMARK CONF_INDEPENDENT:        1.492
REMARK UNBOUND:                -1.884
REMARK  5 active torsions:
REMARK  status: ('A' for Active; 'I' for Inactive)
REMARK    1  A    between atoms: O_2  and  C_3 
REMARK    2  A    between atoms: C_5  and  C_6 
REMARK    3  A    between atoms: C_19  and  S_20 
REMARK    4  A    between atoms: C_27  and  O_28 
REMARK    5  A    between atoms: C_30  and  O_31 
ROOT
ATOM      1  C   UNL d   1      28.329 -14.303  -0.406  0.00  0.00     0.100 A 
ATOM      2  C   UNL d   1      29.590 -15.039  -0.806  0.00  0.00     0.024 A 
ATOM      3  C   UNL d   1      30.469 -15.468   0.125  0.00  0.00     0.022 A 
ATOM      4  C   UNL d   1      31.672 -16.308  -0.234  0.00  0.00     0.067 C 
ATOM      5  C   UNL d   1      31.492 -17.042  -1.581  0.00  0.00    -0.036 C 
ATOM      6  C   UNL d   1      30.402 -18.131  -1.467  0.00  0.00     0.015 C 
ATOM      7  C   UNL d   1      32.807 -17.714  -1.988  0.00  0.00     0.015 C 
ATOM      8  C   UNL d   1      31.103 -16.004  -2.642  0.00  0.00     0.092 C 
ATOM      9  C   UNL d   1      29.808 -15.339  -2.257  0.00  0.00     0.159 C 
ATOM     10  O   UNL d   1      28.983 -15.037  -3.115  0.00  0.00    -0.293 OA
ATOM     11  N   UNL d   1      30.246 -15.199   1.462  0.00  0.00    -0.343 N 
ATOM     12  C   UNL d   1      29.183 -14.469   1.969  0.00  0.00     0.143 A 
ATOM     13  N   UNL d   1      29.087 -14.243   3.327  0.00  0.00    -0.206 NA
ATOM     14  C   UNL d   1      28.072 -13.566   3.743  0.00  0.00     0.170 A 
ATOM     15  N   UNL d   1      27.104 -13.060   2.933  0.00  0.00    -0.302 N 
ATOM     16  C   UNL d   1      27.148 -13.212   1.589  0.00  0.00     0.258 A 
ATOM     17  O   UNL d   1      26.305 -12.693   0.856  0.00  0.00    -0.267 OA
ATOM     18  C   UNL d   1      28.270 -14.013   1.083  0.00  0.00     0.069 A 
ATOM     19  H   UNL d   1      30.895 -15.547   2.160  0.00  0.00     0.167 HD
ATOM     20  H   UNL d   1      26.342 -12.522   3.313  0.00  0.00     0.171 HD
ENDROOT
BRANCH   1  21
ATOM     21  C   UNL d   1      27.090 -15.080  -0.842  0.00  0.00    -0.039 A 
ATOM     22  C   UNL d   1      26.786 -16.290  -0.211  0.00  0.00     0.048 A 
ATOM     23  C   UNL d   1      25.674 -17.035  -0.597  0.00  0.00     0.104 A 
ATOM     24  C   UNL d   1      24.830 -16.557  -1.621  0.00  0.00     0.133 A 
ATOM     25  C   UNL d   1      25.109 -15.341  -2.267  0.00  0.00     0.104 A 
ATOM     26  C   UNL d   1      26.246 -14.619  -1.869  0.00  0.00     0.048 A 
BRANCH  23  27
ATOM     27  O   UNL d   1      25.535 -18.212   0.104  0.00  0.00    -0.353 OA
ATOM     28  C   UNL d   1      26.598 -18.575   0.978  0.00  0.00     0.210 C 
ENDBRANCH  23  27
BRANCH  24  29
ATOM     29  O   UNL d   1      23.771 -17.365  -1.914  0.00  0.00    -0.356 OA
ATOM     30  H   UNL d   1      23.679 -18.165  -1.405  0.00  0.00     0.218 HD
ENDBRANCH  24  29
BRANCH  25  31
ATOM     31  O   UNL d   1      24.421 -14.716  -3.276  0.00  0.00    -0.353 OA
ATOM     32  C   UNL d   1      25.153 -13.987  -4.241  0.00  0.00     0.210 C 
ENDBRANCH  25  31
ENDBRANCH   1  21
BRANCH  14  33
ATOM     33  S   UNL d   1      27.769 -13.175   5.411  0.00  0.00    -0.096 SA
ATOM     34  C   UNL d   1      28.914 -14.249   6.303  0.00  0.00     0.099 C 
ENDBRANCH  14  33
TORSDOF 5
ENDMDL
