MODEL 1
REMARK VINA RESULT:    -8.449      0.000      0.000
REMARK INTER + INTRA:         -12.398
REMARK INTER:                 -10.537
REMARK INTRA:                  -1.861
REMARK CONF_INDEPENDENT:        2.088
REMARK UNBOUND:                -1.861
REMARK  7 active torsions:
REMARK  status: ('A' for Active; 'I' for Inactive)
REMARK    1  A    between atoms: C_2  and  C_3 
REMARK       I    between atoms: C_2  and  N_10 
REMARK    2  A    between atoms: C_3  and  C_4 
REMARK    3  A    between atoms: N_10  and  C_11 
REMARK    4  A    between atoms: C_11  and  C_12 
REMARK       I    between atoms: C_12  and  N_14 
REMARK    5  A    between atoms: N_14  and  N_15 
REMARK       I    between atoms: N_15  and  C_16 
REMARK    6  A    between atoms: C_16  and  C_18 
REMARK    7  A    between atoms: C_18  and  C_19 
ROOT
ATOM      1  C   UNL d   1      25.692 -16.792  -1.152  0.00  0.00     0.253 C 
ATOM      2  O   UNL d   1      26.862 -16.887  -0.774  0.00  0.00    -0.270 OA
ATOM      3  N   UNL d   1      25.344 -16.147  -2.324  0.00  0.00    -0.266 N 
ATOM      4  H   UNL d   1      24.389 -16.053  -2.667  0.00  0.00     0.190 HD
ENDROOT
BRANCH   1   5
ATOM      5  C   UNL d   1      24.508 -17.385  -0.363  0.00  0.00     0.227 C 
BRANCH   5   6
ATOM      6  N   UNL d   1      23.769 -18.316  -1.191  0.00  0.00    -0.352 N 
ATOM      7  C   UNL d   1      22.491 -18.747  -1.041  0.00  0.00     0.218 C 
ATOM      8  O   UNL d   1      21.992 -19.320  -2.011  0.00  0.00    -0.274 OA
ATOM      9  H   UNL d   1      24.167 -18.552  -2.099  0.00  0.00     0.162 HD
BRANCH   7  10
ATOM     10  C   UNL d   1      21.765 -18.494   0.287  0.00  0.00     0.107 C 
BRANCH  10  11
ATOM     11  C   UNL d   1      20.786 -19.621   0.711  0.00  0.00    -0.006 C 
ATOM     12  C   UNL d   1      20.282 -19.406   2.147  0.00  0.00     0.005 C 
ATOM     13  C   UNL d   1      19.309 -20.471   2.607  0.00  0.00     0.000 C 
ATOM     14  C   UNL d   1      18.114 -20.542   1.682  0.00  0.00     0.000 C 
ATOM     15  C   UNL d   1      18.565 -20.795   0.246  0.00  0.00     0.000 C 
ATOM     16  C   UNL d   1      19.566 -19.733  -0.238  0.00  0.00     0.005 C 
ENDBRANCH  10  11
ENDBRANCH   7  10
ENDBRANCH   5   6
ENDBRANCH   1   5
BRANCH   3  17
ATOM     17  N   UNL d   1      26.353 -15.561  -3.127  0.00  0.00    -0.267 N 
ATOM     18  C   UNL d   1      25.965 -14.875  -4.264  0.00  0.00     0.236 C 
ATOM     19  O   UNL d   1      24.777 -14.782  -4.574  0.00  0.00    -0.272 OA
ATOM     20  H   UNL d   1      27.318 -15.674  -2.816  0.00  0.00     0.190 HD
BRANCH  18  21
ATOM     21  C   UNL d   1      27.102 -14.248  -5.076  0.00  0.00     0.109 C 
BRANCH  21  22
ATOM     22  C   UNL d   1      28.404 -15.088  -5.020  0.00  0.00    -0.006 C 
ATOM     23  C   UNL d   1      29.261 -14.922  -6.289  0.00  0.00     0.005 C 
ATOM     24  C   UNL d   1      30.571 -15.713  -6.200  0.00  0.00     0.000 C 
ATOM     25  C   UNL d   1      31.370 -15.335  -4.957  0.00  0.00     0.000 C 
ATOM     26  C   UNL d   1      30.533 -15.518  -3.697  0.00  0.00     0.000 C 
ATOM     27  C   UNL d   1      29.231 -14.724  -3.772  0.00  0.00     0.005 C 
ENDBRANCH  21  22
ENDBRANCH  18  21
ENDBRANCH   3  17
TORSDOF 7
ENDMDL
MODEL 2
REMARK VINA RESULT:    -8.431      2.308      3.595
REMARK INTER + INTRA:         -12.300
REMARK INTER:                 -10.519
REMARK INTRA:                  -1.781
REMARK CONF_INDEPENDENT:        2.088
REMARK UNBOUND:                -1.781
REMARK  7 active torsions:
REMARK  status: ('A' for Active; 'I' for Inactive)
REMARK    1  A    between atoms: C_2  and  C_3 
REMARK       I    between atoms: C_2  and  N_10 
REMARK    2  A    between atoms: C_3  and  C_4 
REMARK    3  A    between atoms: N_10  and  C_11 
REMARK    4  A    between atoms: C_11  and  C_12 
REMARK       I    between atoms: C_12  and  N_14 
REMARK    5  A    between atoms: N_14  and  N_15 
REMARK       I    between atoms: N_15  and  C_16 
REMARK    6  A    between atoms: C_16  and  C_18 
REMARK    7  A    between atoms: C_18  and  C_19 
ROOT
ATOM      1  C   UNL d   1      25.300 -16.557  -0.612  0.00  0.00     0.253 C 
ATOM      2  O   UNL d   1      26.329 -16.363   0.037  0.00  0.00    -0.270 OA
ATOM      3  N   UNL d   1      25.037 -15.893  -1.796  0.00  0.00    -0.266 N 
ATOM      4  H   UNL d   1      24.198 -16.032  -2.359  0.00  0.00     0.190 HD
ENDROOT
BRANCH   1   5
ATOM      5  C   UNL d   1      24.211 -17.556  -0.174  0.00  0.00     0.227 C 
BRANCH   5   6
ATOM      6  N   UNL d   1      22.983 -17.313  -0.904  0.00  0.00    -0.352 N 
ATOM      7  C   UNL d   1      21.764 -17.876  -0.714  0.00  0.00     0.218 C 
ATOM      8  O   UNL d   1      20.815 -17.319  -1.269  0.00  0.00    -0.274 OA
ATOM      9  H   UNL d   1      22.957 -16.500  -1.518  0.00  0.00     0.162 HD
BRANCH   7  10
ATOM     10  C   UNL d   1      21.644 -19.130   0.161  0.00  0.00     0.107 C 
BRANCH  10  11
ATOM     11  C   UNL d   1      20.201 -19.455   0.628  0.00  0.00    -0.006 C 
ATOM     12  C   UNL d   1      19.522 -20.452  -0.324  0.00  0.00     0.005 C 
ATOM     13  C   UNL d   1      18.113 -20.817   0.094  0.00  0.00     0.000 C 
ATOM     14  C   UNL d   1      18.101 -21.399   1.491  0.00  0.00     0.000 C 
ATOM     15  C   UNL d   1      18.732 -20.423   2.480  0.00  0.00     0.000 C 
ATOM     16  C   UNL d   1      20.159 -20.027   2.067  0.00  0.00     0.005 C 
ENDBRANCH  10  11
ENDBRANCH   7  10
ENDBRANCH   5   6
ENDBRANCH   1   5
BRANCH   3  17
ATOM     17  N   UNL d   1      25.969 -14.949  -2.291  0.00  0.00    -0.267 N 
ATOM     18  C   UNL d   1      25.643 -14.252  -3.442  0.00  0.00     0.236 C 
ATOM     19  O   UNL d   1      24.576 -14.452  -4.023  0.00  0.00    -0.272 OA
ATOM     20  H   UNL d   1      26.834 -14.830  -1.764  0.00  0.00     0.190 HD
BRANCH  18  21
ATOM     21  C   UNL d   1      26.684 -13.231  -3.911  0.00  0.00     0.109 C 
BRANCH  21  22
ATOM     22  C   UNL d   1      26.069 -11.832  -4.164  0.00  0.00    -0.006 C 
ATOM     23  C   UNL d   1      26.736 -10.737  -3.309  0.00  0.00     0.005 C 
ATOM     24  C   UNL d   1      26.159  -9.349  -3.607  0.00  0.00     0.000 C 
ATOM     25  C   UNL d   1      26.257  -9.008  -5.090  0.00  0.00     0.000 C 
ATOM     26  C   UNL d   1      25.580 -10.076  -5.939  0.00  0.00     0.000 C 
ATOM     27  C   UNL d   1      26.157 -11.462  -5.657  0.00  0.00     0.005 C 
ENDBRANCH  21  22
ENDBRANCH  18  21
ENDBRANCH   3  17
TORSDOF 7
ENDMDL
MODEL 3
REMARK VINA RESULT:    -8.082      6.464      8.895
REMARK INTER + INTRA:         -11.874
REMARK INTER:                 -10.170
REMARK INTRA:                  -1.705
REMARK CONF_INDEPENDENT:        2.088
REMARK UNBOUND:                -1.705
REMARK  7 active torsions:
REMARK  status: ('A' for Active; 'I' for Inactive)
REMARK    1  A    between atoms: C_2  and  C_3 
REMARK       I    between atoms: C_2  and  N_10 
REMARK    2  A    between atoms: C_3  and  C_4 
REMARK    3  A    between atoms: N_10  and  C_11 
REMARK    4  A    between atoms: C_11  and  C_12 
REMARK       I    between atoms: C_12  and  N_14 
REMARK    5  A    between atoms: N_14  and  N_15 
REMARK       I    between atoms: N_15  and  C_16 
REMARK    6  A    between atoms: C_16  and  C_18 
REMARK    7  A    between atoms: C_18  and  C_19 
ROOT
ATOM      1  C   UNL d   1      25.985 -10.257  -2.973  0.00  0.00     0.253 C 
ATOM      2  O   UNL d   1      26.313  -9.480  -2.074  0.00  0.00    -0.270 OA
ATOM      3  N   UNL d   1      25.143  -9.883  -4.004  0.00  0.00    -0.266 N 
ATOM      4  H   UNL d   1      24.855 -10.499  -4.763  0.00  0.00     0.190 HD
ENDROOT
BRANCH   1   5
ATOM      5  C   UNL d   1      26.483 -11.715  -3.040  0.00  0.00     0.227 C 
BRANCH   5   6
ATOM      6  N   UNL d   1      25.489 -12.556  -3.674  0.00  0.00    -0.352 N 
ATOM      7  C   UNL d   1      25.209 -13.862  -3.431  0.00  0.00     0.218 C 
ATOM      8  O   UNL d   1      24.150 -14.287  -3.894  0.00  0.00    -0.274 OA
ATOM      9  H   UNL d   1      24.781 -12.096  -4.245  0.00  0.00     0.162 HD
BRANCH   7  10
ATOM     10  C   UNL d   1      26.198 -14.700  -2.610  0.00  0.00     0.107 C 
BRANCH  10  11
ATOM     11  C   UNL d   1      25.635 -16.059  -2.116  0.00  0.00    -0.006 C 
ATOM     12  C   UNL d   1      26.509 -16.646  -0.996  0.00  0.00     0.005 C 
ATOM     13  C   UNL d   1      25.994 -17.967  -0.464  0.00  0.00     0.000 C 
ATOM     14  C   UNL d   1      24.579 -17.825   0.052  0.00  0.00     0.000 C 
ATOM     15  C   UNL d   1      23.665 -17.281  -1.043  0.00  0.00     0.000 C 
ATOM     16  C   UNL d   1      24.176 -15.945  -1.607  0.00  0.00     0.005 C 
ENDBRANCH  10  11
ENDBRANCH   7  10
ENDBRANCH   5   6
ENDBRANCH   1   5
BRANCH   3  17
ATOM     17  N   UNL d   1      24.623  -8.567  -4.039  0.00  0.00    -0.267 N 
ATOM     18  C   UNL d   1      23.985  -8.149  -5.194  0.00  0.00     0.236 C 
ATOM     19  O   UNL d   1      23.878  -8.898  -6.166  0.00  0.00    -0.272 OA
ATOM     20  H   UNL d   1      24.745  -7.996  -3.203  0.00  0.00     0.190 HD
BRANCH  18  21
ATOM     21  C   UNL d   1      23.427  -6.723  -5.159  0.00  0.00     0.109 C 
BRANCH  21  22
ATOM     22  C   UNL d   1      22.054  -6.606  -5.869  0.00  0.00    -0.006 C 
ATOM     23  C   UNL d   1      21.234  -5.405  -5.360  0.00  0.00     0.005 C 
ATOM     24  C   UNL d   1      19.903  -5.266  -6.106  0.00  0.00     0.000 C 
ATOM     25  C   UNL d   1      20.113  -5.175  -7.614  0.00  0.00     0.000 C 
ATOM     26  C   UNL d   1      20.905  -6.371  -8.125  0.00  0.00     0.000 C 
ATOM     27  C   UNL d   1      22.239  -6.511  -7.395  0.00  0.00     0.005 C 
ENDBRANCH  21  22
ENDBRANCH  18  21
ENDBRANCH   3  17
TORSDOF 7
ENDMDL
MODEL 4
REMARK VINA RESULT:    -7.985      3.802      5.773
REMARK INTER + INTRA:         -12.073
REMARK INTER:                 -10.073
REMARK INTRA:                  -2.000
REMARK CONF_INDEPENDENT:        2.088
REMARK UNBOUND:                -2.000
REMARK  7 active torsions:
REMARK  status: ('A' for Active; 'I' for Inactive)
REMARK    1  A    between atoms: C_2  and  C_3 
REMARK       I    between atoms: C_2  and  N_10 
REMARK    2  A    between atoms: C_3  and  C_4 
REMARK    3  A    between atoms: N_10  and  C_11 
REMARK    4  A    between atoms: C_11  and  C_12 
REMARK       I    between atoms: C_12  and  N_14 
REMARK    5  A    between atoms: N_14  and  N_15 
REMARK       I    between atoms: N_15  and  C_16 
REMARK    6  A    between atoms: C_16  and  C_18 
REMARK    7  A    between atoms: C_18  and  C_19 
ROOT
ATOM      1  C   UNL d   1      27.365 -14.467  -5.644  0.00  0.00     0.253 C 
ATOM      2  O   UNL d   1      26.834 -15.574  -5.753  0.00  0.00    -0.270 OA
ATOM      3  N   UNL d   1      28.666 -14.229  -6.048  0.00  0.00    -0.266 N 
ATOM      4  H   UNL d   1      29.134 -13.326  -5.975  0.00  0.00     0.190 HD
ENDROOT
BRANCH   1   5
ATOM      5  C   UNL d   1      26.636 -13.244  -5.055  0.00  0.00     0.227 C 
BRANCH   5   6
ATOM      6  N   UNL d   1      25.282 -13.599  -4.679  0.00  0.00    -0.352 N 
ATOM      7  C   UNL d   1      24.839 -14.108  -3.503  0.00  0.00     0.218 C 
ATOM      8  O   UNL d   1      23.622 -14.074  -3.318  0.00  0.00    -0.274 OA
ATOM      9  H   UNL d   1      24.529 -13.271  -5.282  0.00  0.00     0.162 HD
BRANCH   7  10
ATOM     10  C   UNL d   1      25.855 -14.672  -2.500  0.00  0.00     0.107 C 
BRANCH  10  11
ATOM     11  C   UNL d   1      25.540 -16.108  -2.003  0.00  0.00    -0.006 C 
ATOM     12  C   UNL d   1      26.398 -16.472  -0.780  0.00  0.00     0.005 C 
ATOM     13  C   UNL d   1      26.118 -17.860  -0.244  0.00  0.00     0.000 C 
ATOM     14  C   UNL d   1      24.659 -18.008   0.129  0.00  0.00     0.000 C 
ATOM     15  C   UNL d   1      23.768 -17.695  -1.069  0.00  0.00     0.000 C 
ATOM     16  C   UNL d   1      24.045 -16.294  -1.640  0.00  0.00     0.005 C 
ENDBRANCH  10  11
ENDBRANCH   7  10
ENDBRANCH   5   6
ENDBRANCH   1   5
BRANCH   3  17
ATOM     17  N   UNL d   1      29.431 -15.284  -6.601  0.00  0.00    -0.267 N 
ATOM     18  C   UNL d   1      30.763 -15.041  -6.889  0.00  0.00     0.236 C 
ATOM     19  O   UNL d   1      31.267 -13.938  -6.677  0.00  0.00    -0.272 OA
ATOM     20  H   UNL d   1      28.955 -16.172  -6.754  0.00  0.00     0.190 HD
BRANCH  18  21
ATOM     21  C   UNL d   1      31.539 -16.230  -7.465  0.00  0.00     0.109 C 
BRANCH  21  22
ATOM     22  C   UNL d   1      30.864 -17.588  -7.148  0.00  0.00    -0.006 C 
ATOM     23  C   UNL d   1      31.406 -18.729  -8.030  0.00  0.00     0.005 C 
ATOM     24  C   UNL d   1      30.773 -20.078  -7.671  0.00  0.00     0.000 C 
ATOM     25  C   UNL d   1      30.956 -20.407  -6.193  0.00  0.00     0.000 C 
ATOM     26  C   UNL d   1      30.402 -19.291  -5.315  0.00  0.00     0.000 C 
ATOM     27  C   UNL d   1      31.037 -17.945  -5.659  0.00  0.00     0.005 C 
ENDBRANCH  21  22
ENDBRANCH  18  21
ENDBRANCH   3  17
TORSDOF 7
ENDMDL
MODEL 5
REMARK VINA RESULT:    -7.870      6.432      8.588
REMARK INTER + INTRA:         -11.766
REMARK INTER:                  -9.958
REMARK INTRA:                  -1.808
REMARK CONF_INDEPENDENT:        2.088
REMARK UNBOUND:                -1.808
REMARK  7 active torsions:
REMARK  status: ('A' for Active; 'I' for Inactive)
REMARK    1  A    between atoms: C_2  and  C_3 
REMARK       I    between atoms: C_2  and  N_10 
REMARK    2  A    between atoms: C_3  and  C_4 
REMARK    3  A    between atoms: N_10  and  C_11 
REMARK    4  A    between atoms: C_11  and  C_12 
REMARK       I    between atoms: C_12  and  N_14 
REMARK    5  A    between atoms: N_14  and  N_15 
REMARK       I    between atoms: N_15  and  C_16 
REMARK    6  A    between atoms: C_16  and  C_18 
REMARK    7  A    between atoms: C_18  and  C_19 
ROOT
ATOM      1  C   UNL d   1      28.266 -14.536   0.884  0.00  0.00     0.253 C 
ATOM      2  O   UNL d   1      27.581 -13.574   0.531  0.00  0.00    -0.270 OA
ATOM      3  N   UNL d   1      28.576 -14.776   2.210  0.00  0.00    -0.266 N 
ATOM      4  H   UNL d   1      29.137 -15.563   2.536  0.00  0.00     0.190 HD
ENDROOT
BRANCH   1   5
ATOM      5  C   UNL d   1      28.840 -15.564  -0.111  0.00  0.00     0.227 C 
BRANCH   5   6
ATOM      6  N   UNL d   1      28.391 -16.898   0.230  0.00  0.00    -0.352 N 
ATOM      7  C   UNL d   1      27.223 -17.505  -0.097  0.00  0.00     0.218 C 
ATOM      8  O   UNL d   1      27.178 -18.725   0.069  0.00  0.00    -0.274 OA
ATOM      9  H   UNL d   1      29.086 -17.543   0.605  0.00  0.00     0.162 HD
BRANCH   7  10
ATOM     10  C   UNL d   1      26.067 -16.660  -0.646  0.00  0.00     0.107 C 
BRANCH  10  11
ATOM     11  C   UNL d   1      24.656 -17.137  -0.210  0.00  0.00    -0.006 C 
ATOM     12  C   UNL d   1      23.555 -16.315  -0.900  0.00  0.00     0.005 C 
ATOM     13  C   UNL d   1      22.155 -16.751  -0.520  0.00  0.00     0.000 C 
ATOM     14  C   UNL d   1      21.941 -18.213  -0.845  0.00  0.00     0.000 C 
ATOM     15  C   UNL d   1      22.991 -19.073  -0.147  0.00  0.00     0.000 C 
ATOM     16  C   UNL d   1      24.422 -18.640  -0.507  0.00  0.00     0.005 C 
ENDBRANCH  10  11
ENDBRANCH   7  10
ENDBRANCH   5   6
ENDBRANCH   1   5
BRANCH   3  17
ATOM     17  N   UNL d   1      28.103 -13.892   3.210  0.00  0.00    -0.267 N 
ATOM     18  C   UNL d   1      28.215 -14.284   4.532  0.00  0.00     0.236 C 
ATOM     19  O   UNL d   1      28.705 -15.374   4.832  0.00  0.00    -0.272 OA
ATOM     20  H   UNL d   1      27.707 -13.006   2.897  0.00  0.00     0.190 HD
BRANCH  18  21
ATOM     21  C   UNL d   1      27.705 -13.274   5.565  0.00  0.00     0.109 C 
BRANCH  21  22
ATOM     22  C   UNL d   1      28.789 -12.890   6.603  0.00  0.00    -0.006 C 
ATOM     23  C   UNL d   1      28.517 -11.519   7.252  0.00  0.00     0.005 C 
ATOM     24  C   UNL d   1      29.563 -11.173   8.317  0.00  0.00     0.000 C 
ATOM     25  C   UNL d   1      29.661 -12.262   9.380  0.00  0.00     0.000 C 
ATOM     26  C   UNL d   1      29.951 -13.616   8.746  0.00  0.00     0.000 C 
ATOM     27  C   UNL d   1      28.906 -13.974   7.691  0.00  0.00     0.005 C 
ENDBRANCH  21  22
ENDBRANCH  18  21
ENDBRANCH   3  17
TORSDOF 7
ENDMDL
MODEL 6
REMARK VINA RESULT:    -7.865      6.939      9.824
REMARK INTER + INTRA:         -11.845
REMARK INTER:                  -9.953
REMARK INTRA:                  -1.892
REMARK CONF_INDEPENDENT:        2.088
REMARK UNBOUND:                -1.892
REMARK  7 active torsions:
REMARK  status: ('A' for Active; 'I' for Inactive)
REMARK    1  A    between atoms: C_2  and  C_3 
REMARK       I    between atoms: C_2  and  N_10 
REMARK    2  A    between atoms: C_3  and  C_4 
REMARK    3  A    between atoms: N_10  and  C_11 
REMARK    4  A    between atoms: C_11  and  C_12 
REMARK       I    between atoms: C_12  and  N_14 
REMARK    5  A    between atoms: N_14  and  N_15 
REMARK       I    between atoms: N_15  and  C_16 
REMARK    6  A    between atoms: C_16  and  C_18 
REMARK    7  A    between atoms: C_18  and  C_19 
ROOT
ATOM      1  C   UNL d   1      28.388 -14.006   2.089  0.00  0.00     0.253 C 
ATOM      2  O   UNL d   1      27.694 -13.032   1.790  0.00  0.00    -0.270 OA
ATOM      3  N   UNL d   1      28.248 -15.232   1.466  0.00  0.00    -0.266 N 
ATOM      4  H   UNL d   1      28.807 -16.056   1.687  0.00  0.00     0.190 HD
ENDROOT
BRANCH   1   5
ATOM      5  C   UNL d   1      29.479 -13.952   3.177  0.00  0.00     0.227 C 
BRANCH   5   6
ATOM      6  N   UNL d   1      29.128 -14.821   4.282  0.00  0.00    -0.352 N 
ATOM      7  C   UNL d   1      28.773 -14.477   5.546  0.00  0.00     0.218 C 
ATOM      8  O   UNL d   1      28.258 -15.365   6.227  0.00  0.00    -0.274 OA
ATOM      9  H   UNL d   1      28.943 -15.800   4.067  0.00  0.00     0.162 HD
BRANCH   7  10
ATOM     10  C   UNL d   1      29.019 -13.042   6.030  0.00  0.00     0.107 C 
BRANCH  10  11
ATOM     11  C   UNL d   1      29.407 -12.926   7.528  0.00  0.00    -0.006 C 
ATOM     12  C   UNL d   1      28.159 -12.926   8.425  0.00  0.00     0.005 C 
ATOM     13  C   UNL d   1      28.482 -12.830   9.902  0.00  0.00     0.000 C 
ATOM     14  C   UNL d   1      29.383 -13.968  10.329  0.00  0.00     0.000 C 
ATOM     15  C   UNL d   1      30.657 -13.983   9.489  0.00  0.00     0.000 C 
ATOM     16  C   UNL d   1      30.353 -14.065   7.984  0.00  0.00     0.005 C 
ENDBRANCH  10  11
ENDBRANCH   7  10
ENDBRANCH   5   6
ENDBRANCH   1   5
BRANCH   3  17
ATOM     17  N   UNL d   1      27.273 -15.395   0.453  0.00  0.00    -0.267 N 
ATOM     18  C   UNL d   1      27.137 -16.645  -0.126  0.00  0.00     0.236 C 
ATOM     19  O   UNL d   1      27.847 -17.588   0.226  0.00  0.00    -0.272 OA
ATOM     20  H   UNL d   1      26.718 -14.576   0.207  0.00  0.00     0.190 HD
BRANCH  18  21
ATOM     21  C   UNL d   1      26.050 -16.759  -1.199  0.00  0.00     0.109 C 
BRANCH  21  22
ATOM     22  C   UNL d   1      24.656 -17.074  -0.600  0.00  0.00    -0.006 C 
ATOM     23  C   UNL d   1      23.535 -16.256  -1.269  0.00  0.00     0.005 C 
ATOM     24  C   UNL d   1      22.154 -16.614  -0.708  0.00  0.00     0.000 C 
ATOM     25  C   UNL d   1      21.873 -18.108  -0.826  0.00  0.00     0.000 C 
ATOM     26  C   UNL d   1      22.968 -18.922  -0.147  0.00  0.00     0.000 C 
ATOM     27  C   UNL d   1      24.347 -18.579  -0.708  0.00  0.00     0.005 C 
ENDBRANCH  21  22
ENDBRANCH  18  21
ENDBRANCH   3  17
TORSDOF 7
ENDMDL
MODEL 7
REMARK VINA RESULT:    -7.623      7.199      9.592
REMARK INTER + INTRA:         -11.892
REMARK INTER:                  -9.712
REMARK INTRA:                  -2.180
REMARK CONF_INDEPENDENT:        2.088
REMARK UNBOUND:                -2.180
REMARK  7 active torsions:
REMARK  status: ('A' for Active; 'I' for Inactive)
REMARK    1  A    between atoms: C_2  and  C_3 
REMARK       I    between atoms: C_2  and  N_10 
REMARK    2  A    between atoms: C_3  and  C_4 
REMARK    3  A    between atoms: N_10  and  C_11 
REMARK    4  A    between atoms: C_11  and  C_12 
REMARK       I    between atoms: C_12  and  N_14 
REMARK    5  A    between atoms: N_14  and  N_15 
REMARK       I    between atoms: N_15  and  C_16 
REMARK    6  A    between atoms: C_16  and  C_18 
REMARK    7  A    between atoms: C_18  and  C_19 
ROOT
ATOM      1  C   UNL d   1      27.726 -14.066   2.331  0.00  0.00     0.253 C 
ATOM      2  O   UNL d   1      27.200 -12.956   2.227  0.00  0.00    -0.270 OA
ATOM      3  N   UNL d   1      28.351 -14.482   3.491  0.00  0.00    -0.266 N 
ATOM      4  H   UNL d   1      28.793 -15.393   3.612  0.00  0.00     0.190 HD
ENDROOT
BRANCH   1   5
ATOM      5  C   UNL d   1      27.735 -15.097   1.185  0.00  0.00     0.227 C 
BRANCH   5   6
ATOM      6  N   UNL d   1      27.148 -14.525  -0.010  0.00  0.00    -0.352 N 
ATOM      7  C   UNL d   1      26.440 -15.149  -0.984  0.00  0.00     0.218 C 
ATOM      8  O   UNL d   1      25.813 -14.421  -1.755  0.00  0.00    -0.274 OA
ATOM      9  H   UNL d   1      27.087 -13.509  -0.061  0.00  0.00     0.162 HD
BRANCH   7  10
ATOM     10  C   UNL d   1      26.458 -16.682  -1.059  0.00  0.00     0.107 C 
BRANCH  10  11
ATOM     11  C   UNL d   1      25.055 -17.339  -1.146  0.00  0.00    -0.006 C 
ATOM     12  C   UNL d   1      24.925 -18.499  -0.145  0.00  0.00     0.005 C 
ATOM     13  C   UNL d   1      23.566 -19.167  -0.176  0.00  0.00     0.000 C 
ATOM     14  C   UNL d   1      22.468 -18.165   0.102  0.00  0.00     0.000 C 
ATOM     15  C   UNL d   1      22.534 -17.011  -0.895  0.00  0.00     0.000 C 
ATOM     16  C   UNL d   1      23.911 -16.326  -0.891  0.00  0.00     0.005 C 
ENDBRANCH  10  11
ENDBRANCH   7  10
ENDBRANCH   5   6
ENDBRANCH   1   5
BRANCH   3  17
ATOM     17  N   UNL d   1      28.406 -13.613   4.607  0.00  0.00    -0.267 N 
ATOM     18  C   UNL d   1      29.025 -14.067   5.758  0.00  0.00     0.236 C 
ATOM     19  O   UNL d   1      29.511 -15.198   5.813  0.00  0.00    -0.272 OA
ATOM     20  H   UNL d   1      27.985 -12.691   4.499  0.00  0.00     0.190 HD
BRANCH  18  21
ATOM     21  C   UNL d   1      29.069 -13.071   6.921  0.00  0.00     0.109 C 
BRANCH  21  22
ATOM     22  C   UNL d   1      28.868 -13.756   8.296  0.00  0.00    -0.006 C 
ATOM     23  C   UNL d   1      30.197 -14.244   8.905  0.00  0.00     0.005 C 
ATOM     24  C   UNL d   1      29.995 -14.870  10.289  0.00  0.00     0.000 C 
ATOM     25  C   UNL d   1      29.287 -13.911  11.240  0.00  0.00     0.000 C 
ATOM     26  C   UNL d   1      27.962 -13.442  10.652  0.00  0.00     0.000 C 
ATOM     27  C   UNL d   1      28.155 -12.806   9.277  0.00  0.00     0.005 C 
ENDBRANCH  21  22
ENDBRANCH  18  21
ENDBRANCH   3  17
TORSDOF 7
ENDMDL
MODEL 8
REMARK VINA RESULT:    -7.552      7.371      9.952
REMARK INTER + INTRA:         -11.860
REMARK INTER:                  -9.640
REMARK INTRA:                  -2.219
REMARK CONF_INDEPENDENT:        2.088
REMARK UNBOUND:                -2.219
REMARK  7 active torsions:
REMARK  status: ('A' for Active; 'I' for Inactive)
REMARK    1  A    between atoms: C_2  and  C_3 
REMARK       I    between atoms: C_2  and  N_10 
REMARK    2  A    between atoms: C_3  and  C_4 
REMARK    3  A    between atoms: N_10  and  C_11 
REMARK    4  A    between atoms: C_11  and  C_12 
REMARK       I    between atoms: C_12  and  N_14 
REMARK    5  A    between atoms: N_14  and  N_15 
REMARK       I    between atoms: N_15  and  C_16 
REMARK    6  A    between atoms: C_16  and  C_18 
REMARK    7  A    between atoms: C_18  and  C_19 
ROOT
ATOM      1  C   UNL d   1      27.555 -14.080   2.810  0.00  0.00     0.253 C 
ATOM      2  O   UNL d   1      26.810 -13.146   2.508  0.00  0.00    -0.270 OA
ATOM      3  N   UNL d   1      27.783 -15.148   1.962  0.00  0.00    -0.266 N 
ATOM      4  H   UNL d   1      28.395 -15.934   2.178  0.00  0.00     0.190 HD
ENDROOT
BRANCH   1   5
ATOM      5  C   UNL d   1      28.307 -14.149   4.153  0.00  0.00     0.227 C 
BRANCH   5   6
ATOM      6  N   UNL d   1      27.892 -13.063   5.018  0.00  0.00    -0.352 N 
ATOM      7  C   UNL d   1      28.425 -12.678   6.204  0.00  0.00     0.218 C 
ATOM      8  O   UNL d   1      28.084 -11.569   6.621  0.00  0.00    -0.274 OA
ATOM      9  H   UNL d   1      27.243 -12.379   4.630  0.00  0.00     0.162 HD
BRANCH   7  10
ATOM     10  C   UNL d   1      29.398 -13.616   6.929  0.00  0.00     0.107 C 
BRANCH  10  11
ATOM     11  C   UNL d   1      28.946 -14.041   8.351  0.00  0.00    -0.006 C 
ATOM     12  C   UNL d   1      30.148 -14.456   9.214  0.00  0.00     0.005 C 
ATOM     13  C   UNL d   1      29.763 -14.865  10.621  0.00  0.00     0.000 C 
ATOM     14  C   UNL d   1      29.028 -13.745  11.324  0.00  0.00     0.000 C 
ATOM     15  C   UNL d   1      27.800 -13.327  10.520  0.00  0.00     0.000 C 
ATOM     16  C   UNL d   1      28.165 -12.920   9.083  0.00  0.00     0.005 C 
ENDBRANCH  10  11
ENDBRANCH   7  10
ENDBRANCH   5   6
ENDBRANCH   1   5
BRANCH   3  17
ATOM     17  N   UNL d   1      27.139 -15.190   0.701  0.00  0.00    -0.267 N 
ATOM     18  C   UNL d   1      27.169 -16.379  -0.007  0.00  0.00     0.236 C 
ATOM     19  O   UNL d   1      27.744 -17.371   0.443  0.00  0.00    -0.272 OA
ATOM     20  H   UNL d   1      26.682 -14.336   0.384  0.00  0.00     0.190 HD
BRANCH  18  21
ATOM     21  C   UNL d   1      26.437 -16.363  -1.352  0.00  0.00     0.109 C 
BRANCH  21  22
ATOM     22  C   UNL d   1      25.075 -17.102  -1.294  0.00  0.00    -0.006 C 
ATOM     23  C   UNL d   1      25.076 -18.247  -0.263  0.00  0.00     0.005 C 
ATOM     24  C   UNL d   1      23.709 -18.935  -0.173  0.00  0.00     0.000 C 
ATOM     25  C   UNL d   1      22.598 -17.936   0.133  0.00  0.00     0.000 C 
ATOM     26  C   UNL d   1      22.580 -16.812  -0.896  0.00  0.00     0.000 C 
ATOM     27  C   UNL d   1      23.935 -16.114  -0.984  0.00  0.00     0.005 C 
ENDBRANCH  21  22
ENDBRANCH  18  21
ENDBRANCH   3  17
TORSDOF 7
ENDMDL
MODEL 9
REMARK VINA RESULT:    -7.354      3.743      5.704
REMARK INTER + INTRA:         -11.857
REMARK INTER:                  -9.442
REMARK INTRA:                  -2.415
REMARK CONF_INDEPENDENT:        2.088
REMARK UNBOUND:                -2.415
REMARK  7 active torsions:
REMARK  status: ('A' for Active; 'I' for Inactive)
REMARK    1  A    between atoms: C_2  and  C_3 
REMARK       I    between atoms: C_2  and  N_10 
REMARK    2  A    between atoms: C_3  and  C_4 
REMARK    3  A    between atoms: N_10  and  C_11 
REMARK    4  A    between atoms: C_11  and  C_12 
REMARK       I    between atoms: C_12  and  N_14 
REMARK    5  A    between atoms: N_14  and  N_15 
REMARK       I    between atoms: N_15  and  C_16 
REMARK    6  A    between atoms: C_16  and  C_18 
REMARK    7  A    between atoms: C_18  and  C_19 
ROOT
ATOM      1  C   UNL d   1      27.618 -14.450  -5.326  0.00  0.00     0.253 C 
ATOM      2  O   UNL d   1      27.702 -14.825  -6.497  0.00  0.00    -0.270 OA
ATOM      3  N   UNL d   1      28.276 -15.094  -4.295  0.00  0.00    -0.266 N 
ATOM      4  H   UNL d   1      28.231 -14.809  -3.317  0.00  0.00     0.190 HD
ENDROOT
BRANCH   1   5
ATOM      5  C   UNL d   1      26.779 -13.230  -4.897  0.00  0.00     0.227 C 
BRANCH   5   6
ATOM      6  N   UNL d   1      25.401 -13.620  -4.677  0.00  0.00    -0.352 N 
ATOM      7  C   UNL d   1      24.824 -14.067  -3.533  0.00  0.00     0.218 C 
ATOM      8  O   UNL d   1      23.592 -14.075  -3.512  0.00  0.00    -0.274 OA
ATOM      9  H   UNL d   1      24.724 -13.370  -5.395  0.00  0.00     0.162 HD
BRANCH   7  10
ATOM     10  C   UNL d   1      25.715 -14.513  -2.367  0.00  0.00     0.107 C 
BRANCH  10  11
ATOM     11  C   UNL d   1      25.541 -15.998  -1.955  0.00  0.00    -0.006 C 
ATOM     12  C   UNL d   1      26.588 -16.409  -0.906  0.00  0.00     0.005 C 
ATOM     13  C   UNL d   1      26.452 -17.848  -0.455  0.00  0.00     0.000 C 
ATOM     14  C   UNL d   1      25.074 -18.106   0.112  0.00  0.00     0.000 C 
ATOM     15  C   UNL d   1      24.000 -17.749  -0.912  0.00  0.00     0.000 C 
ATOM     16  C   UNL d   1      24.127 -16.295  -1.395  0.00  0.00     0.005 C 
ENDBRANCH  10  11
ENDBRANCH   7  10
ENDBRANCH   5   6
ENDBRANCH   1   5
BRANCH   3  17
ATOM     17  N   UNL d   1      29.073 -16.231  -4.575  0.00  0.00    -0.267 N 
ATOM     18  C   UNL d   1      29.690 -16.871  -3.515  0.00  0.00     0.236 C 
ATOM     19  O   UNL d   1      29.557 -16.462  -2.362  0.00  0.00    -0.272 OA
ATOM     20  H   UNL d   1      29.144 -16.519  -5.551  0.00  0.00     0.190 HD
BRANCH  18  21
ATOM     21  C   UNL d   1      30.520 -18.105  -3.884  0.00  0.00     0.109 C 
BRANCH  21  22
ATOM     22  C   UNL d   1      30.379 -18.488  -5.379  0.00  0.00    -0.006 C 
ATOM     23  C   UNL d   1      31.398 -17.751  -6.269  0.00  0.00     0.005 C 
ATOM     24  C   UNL d   1      31.289 -18.178  -7.737  0.00  0.00     0.000 C 
ATOM     25  C   UNL d   1      31.431 -19.688  -7.893  0.00  0.00     0.000 C 
ATOM     26  C   UNL d   1      30.411 -20.422  -7.032  0.00  0.00     0.000 C 
ATOM     27  C   UNL d   1      30.521 -20.011  -5.565  0.00  0.00     0.005 C 
ENDBRANCH  21  22
ENDBRANCH  18  21
ENDBRANCH   3  17
TORSDOF 7
ENDMDL
