MODEL 1
REMARK VINA RESULT:    -7.315      0.000      0.000
REMARK INTER + INTRA:         -18.214
REMARK INTER:                 -11.491
REMARK INTRA:                  -6.723
REMARK CONF_INDEPENDENT:        4.176
REMARK UNBOUND:                -6.723
REMARK  14 active torsions:
REMARK  status: ('A' for Active; 'I' for Inactive)
REMARK    1  A    between atoms: N_2  and  C_4 
REMARK    2  A    between atoms: C_6  and  S_7 
REMARK    3  A    between atoms: S_7  and  N_10 
REMARK    4  A    between atoms: C_17  and  O_18 
REMARK    5  A    between atoms: O_18  and  C_19 
REMARK    6  A    between atoms: C_20  and  C_19 
REMARK    7  A    between atoms: C_20  and  C_22 
REMARK    8  A    between atoms: C_20  and  O_21 
REMARK    9  A    between atoms: N_23  and  C_22 
REMARK   10  A    between atoms: N_23  and  C_27 
REMARK   11  A    between atoms: N_23  and  C_24 
REMARK   12  A    between atoms: C_24  and  C_25 
REMARK   13  A    between atoms: C_25  and  O_26 
REMARK   14  A    between atoms: C_27  and  C_28 
ROOT
ATOM      1  O   UNL d   1      29.043 -14.826   2.190  0.00  0.00    -0.346 OA
ENDROOT
BRANCH   1   2
ATOM      2  C   UNL d   1      28.153 -14.919   1.155  0.00  0.00     0.102 C 
ATOM      3  C   UNL d   1      28.213 -16.167   0.524  0.00  0.00     0.041 C 
ATOM      4  C   UNL d   1      27.304 -16.495  -0.481  0.00  0.00     0.028 C 
ATOM      5  C   UNL d   1      26.286 -15.632  -0.837  0.00  0.00     0.082 C 
ATOM      6  C   UNL d   1      26.279 -14.340  -0.315  0.00  0.00     0.064 C 
ATOM      7  C   UNL d   1      27.194 -13.998   0.692  0.00  0.00     0.137 C 
BRANCH   5   8
ATOM      8  S   UNL d   1      24.874 -16.185  -1.787  0.00  0.00     0.260 S 
ATOM      9  O   UNL d   1      24.178 -14.953  -2.139  0.00  0.00    -0.200 OA
ATOM     10  O   UNL d   1      25.413 -17.065  -2.784  0.00  0.00    -0.200 OA
BRANCH   8  11
ATOM     11  N   UNL d   1      23.866 -17.070  -0.773  0.00  0.00    -0.307 N 
ATOM     12  C   UNL d   1      24.162 -18.377  -0.165  0.00  0.00     0.135 C 
ATOM     13  C   UNL d   1      22.932 -19.216  -0.517  0.00  0.00     0.022 C 
ATOM     14  C   UNL d   1      21.794 -18.209  -0.458  0.00  0.00     0.022 C 
ATOM     15  C   UNL d   1      22.414 -16.848  -0.777  0.00  0.00     0.135 C 
ENDBRANCH   8  11
ENDBRANCH   5   8
BRANCH   7  16
ATOM     16  N   UNL d   1      26.958 -12.699   1.302  0.00  0.00    -0.113 N 
ATOM     17  O   UNL d   1      27.235 -11.689   0.640  0.00  0.00    -0.532 OA
ATOM     18  O   UNL d   1      26.497 -12.697   2.446  0.00  0.00    -0.532 OA
ENDBRANCH   7  16
ENDBRANCH   1   2
BRANCH   1  19
ATOM     19  C   UNL d   1      30.004 -13.783   2.122  0.00  0.00     0.209 C 
BRANCH  19  20
ATOM     20  C   UNL d   1      30.952 -13.796   3.296  0.00  0.00     0.168 C 
BRANCH  20  21
ATOM     21  C   UNL d   1      30.552 -12.618   4.166  0.00  0.00     0.269 C 
BRANCH  21  22
ATOM     22  N   UNL d   1      29.692 -13.055   5.309  0.00  0.00    -0.063 N 
ATOM     23  H   UNL d   1      29.906 -14.033   5.561  0.00  0.00     0.280 HD
BRANCH  22  24
ATOM     24  C   UNL d   1      30.000 -12.248   6.537  0.00  0.00     0.273 C 
BRANCH  24  25
ATOM     25  C   UNL d   1      29.358 -12.701   7.825  0.00  0.00    -0.033 A 
ATOM     26  C   UNL d   1      28.702 -11.875   8.757  0.00  0.00     0.009 A 
ATOM     27  C   UNL d   1      28.170 -12.357   9.937  0.00  0.00     0.001 A 
ATOM     28  C   UNL d   1      28.270 -13.700  10.217  0.00  0.00     0.000 A 
ATOM     29  C   UNL d   1      28.922 -14.549   9.323  0.00  0.00     0.001 A 
ATOM     30  C   UNL d   1      29.452 -14.062   8.129  0.00  0.00     0.009 A 
ENDBRANCH  24  25
ENDBRANCH  22  24
BRANCH  22  31
ATOM     31  C   UNL d   1      28.261 -13.018   4.827  0.00  0.00     0.261 C 
BRANCH  31  32
ATOM     32  C   UNL d   1      27.548 -14.351   4.836  0.00  0.00     0.192 C 
BRANCH  32  33
ATOM     33  O   UNL d   1      28.497 -15.387   4.997  0.00  0.00    -0.399 OA
ATOM     34  H   UNL d   1      28.751 -15.727   4.119  0.00  0.00     0.209 HD
ENDBRANCH  32  33
ENDBRANCH  31  32
ENDBRANCH  22  31
ENDBRANCH  21  22
ENDBRANCH  20  21
BRANCH  20  35
ATOM     35  O   UNL d   1      30.797 -15.009   4.035  0.00  0.00    -0.392 OA
ATOM     36  H   UNL d   1      30.131 -15.572   3.592  0.00  0.00     0.210 HD
ENDBRANCH  20  35
ENDBRANCH  19  20
ENDBRANCH   1  19
TORSDOF 14
ENDMDL
MODEL 2
REMARK VINA RESULT:    -6.415      4.730      8.318
REMARK INTER + INTRA:         -17.885
REMARK INTER:                 -10.591
REMARK INTRA:                  -7.294
REMARK CONF_INDEPENDENT:        4.176
REMARK UNBOUND:                -7.294
REMARK  14 active torsions:
REMARK  status: ('A' for Active; 'I' for Inactive)
REMARK    1  A    between atoms: N_2  and  C_4 
REMARK    2  A    between atoms: C_6  and  S_7 
REMARK    3  A    between atoms: S_7  and  N_10 
REMARK    4  A    between atoms: C_17  and  O_18 
REMARK    5  A    between atoms: O_18  and  C_19 
REMARK    6  A    between atoms: C_20  and  C_19 
REMARK    7  A    between atoms: C_20  and  C_22 
REMARK    8  A    between atoms: C_20  and  O_21 
REMARK    9  A    between atoms: N_23  and  C_22 
REMARK   10  A    between atoms: N_23  and  C_27 
REMARK   11  A    between atoms: N_23  and  C_24 
REMARK   12  A    between atoms: C_24  and  C_25 
REMARK   13  A    between atoms: C_25  and  O_26 
REMARK   14  A    between atoms: C_27  and  C_28 
ROOT
ATOM      1  O   UNL d   1      27.580 -13.952  -1.858  0.00  0.00    -0.346 OA
ENDROOT
BRANCH   1   2
ATOM      2  C   UNL d   1      26.999 -13.239  -2.869  0.00  0.00     0.102 C 
ATOM      3  C   UNL d   1      27.194 -11.861  -2.718  0.00  0.00     0.041 C 
ATOM      4  C   UNL d   1      26.775 -10.975  -3.709  0.00  0.00     0.028 C 
ATOM      5  C   UNL d   1      26.217 -11.429  -4.889  0.00  0.00     0.082 C 
ATOM      6  C   UNL d   1      25.898 -12.780  -5.012  0.00  0.00     0.064 C 
ATOM      7  C   UNL d   1      26.310 -13.679  -4.016  0.00  0.00     0.137 C 
BRANCH   5   8
ATOM      8  S   UNL d   1      26.075 -10.377  -6.328  0.00  0.00     0.260 S 
ATOM      9  O   UNL d   1      27.457 -10.089  -6.696  0.00  0.00    -0.200 OA
ATOM     10  O   UNL d   1      25.182 -11.068  -7.214  0.00  0.00    -0.200 OA
BRANCH   8  11
ATOM     11  N   UNL d   1      25.358  -8.929  -5.860  0.00  0.00    -0.307 N 
ATOM     12  C   UNL d   1      24.523  -8.709  -4.670  0.00  0.00     0.135 C 
ATOM     13  C   UNL d   1      23.280  -8.019  -5.234  0.00  0.00     0.022 C 
ATOM     14  C   UNL d   1      23.838  -7.160  -6.358  0.00  0.00     0.022 C 
ATOM     15  C   UNL d   1      25.109  -7.864  -6.839  0.00  0.00     0.135 C 
ENDBRANCH   8  11
ENDBRANCH   5   8
BRANCH   7  16
ATOM     16  N   UNL d   1      26.106 -15.080  -4.350  0.00  0.00    -0.113 N 
ATOM     17  O   UNL d   1      25.176 -15.679  -3.793  0.00  0.00    -0.532 OA
ATOM     18  O   UNL d   1      26.883 -15.575  -5.170  0.00  0.00    -0.532 OA
ENDBRANCH   7  16
ENDBRANCH   1   2
BRANCH   1  19
ATOM     19  C   UNL d   1      28.879 -14.473  -2.101  0.00  0.00     0.209 C 
BRANCH  19  20
ATOM     20  C   UNL d   1      28.915 -15.980  -2.038  0.00  0.00     0.168 C 
BRANCH  20  21
ATOM     21  C   UNL d   1      28.984 -16.333  -0.563  0.00  0.00     0.269 C 
BRANCH  21  22
ATOM     22  N   UNL d   1      27.664 -16.124   0.107  0.00  0.00    -0.063 N 
ATOM     23  H   UNL d   1      27.042 -15.565  -0.499  0.00  0.00     0.280 HD
BRANCH  22  24
ATOM     24  C   UNL d   1      26.960 -17.436   0.303  0.00  0.00     0.273 C 
BRANCH  24  25
ATOM     25  C   UNL d   1      25.499 -17.483  -0.069  0.00  0.00    -0.033 A 
ATOM     26  C   UNL d   1      24.609 -18.540   0.204  0.00  0.00     0.009 A 
ATOM     27  C   UNL d   1      23.289 -18.529  -0.202  0.00  0.00     0.001 A 
ATOM     28  C   UNL d   1      22.811 -17.441  -0.895  0.00  0.00     0.000 A 
ATOM     29  C   UNL d   1      23.664 -16.379  -1.194  0.00  0.00     0.001 A 
ATOM     30  C   UNL d   1      24.994 -16.388  -0.776  0.00  0.00     0.009 A 
ENDBRANCH  24  25
ENDBRANCH  22  24
BRANCH  22  31
ATOM     31  C   UNL d   1      27.923 -15.313   1.354  0.00  0.00     0.261 C 
BRANCH  31  32
ATOM     32  C   UNL d   1      27.206 -13.983   1.413  0.00  0.00     0.192 C 
BRANCH  32  33
ATOM     33  O   UNL d   1      26.282 -13.903   0.345  0.00  0.00    -0.399 OA
ATOM     34  H   UNL d   1      26.595 -13.241  -0.299  0.00  0.00     0.209 HD
ENDBRANCH  32  33
ENDBRANCH  31  32
ENDBRANCH  22  31
ENDBRANCH  21  22
ENDBRANCH  20  21
BRANCH  20  35
ATOM     35  O   UNL d   1      27.719 -16.522  -2.603  0.00  0.00    -0.392 OA
ATOM     36  H   UNL d   1      27.192 -15.797  -2.995  0.00  0.00     0.210 HD
ENDBRANCH  20  35
ENDBRANCH  19  20
ENDBRANCH   1  19
TORSDOF 14
ENDMDL
MODEL 3
REMARK VINA RESULT:    -6.025      4.816      8.321
REMARK INTER + INTRA:         -17.686
REMARK INTER:                 -10.201
REMARK INTRA:                  -7.485
REMARK CONF_INDEPENDENT:        4.176
REMARK UNBOUND:                -7.485
REMARK  14 active torsions:
REMARK  status: ('A' for Active; 'I' for Inactive)
REMARK    1  A    between atoms: N_2  and  C_4 
REMARK    2  A    between atoms: C_6  and  S_7 
REMARK    3  A    between atoms: S_7  and  N_10 
REMARK    4  A    between atoms: C_17  and  O_18 
REMARK    5  A    between atoms: O_18  and  C_19 
REMARK    6  A    between atoms: C_20  and  C_19 
REMARK    7  A    between atoms: C_20  and  C_22 
REMARK    8  A    between atoms: C_20  and  O_21 
REMARK    9  A    between atoms: N_23  and  C_22 
REMARK   10  A    between atoms: N_23  and  C_27 
REMARK   11  A    between atoms: N_23  and  C_24 
REMARK   12  A    between atoms: C_24  and  C_25 
REMARK   13  A    between atoms: C_25  and  O_26 
REMARK   14  A    between atoms: C_27  and  C_28 
ROOT
ATOM      1  O   UNL d   1      28.098 -13.998  -2.036  0.00  0.00    -0.346 OA
ENDROOT
BRANCH   1   2
ATOM      2  C   UNL d   1      27.386 -13.325  -2.991  0.00  0.00     0.102 C 
ATOM      3  C   UNL d   1      27.524 -11.937  -2.866  0.00  0.00     0.041 C 
ATOM      4  C   UNL d   1      26.967 -11.084  -3.816  0.00  0.00     0.028 C 
ATOM      5  C   UNL d   1      26.322 -11.577  -4.935  0.00  0.00     0.082 C 
ATOM      6  C   UNL d   1      26.064 -12.944  -5.019  0.00  0.00     0.064 C 
ATOM      7  C   UNL d   1      26.615 -13.811  -4.063  0.00  0.00     0.137 C 
BRANCH   5   8
ATOM      8  S   UNL d   1      25.989 -10.548  -6.359  0.00  0.00     0.260 S 
ATOM      9  O   UNL d   1      24.740 -11.075  -6.895  0.00  0.00    -0.200 OA
ATOM     10  O   UNL d   1      26.102  -9.199  -5.882  0.00  0.00    -0.200 OA
BRANCH   8  11
ATOM     11  N   UNL d   1      27.192 -10.819  -7.503  0.00  0.00    -0.307 N 
ATOM     12  C   UNL d   1      27.122 -10.508  -8.939  0.00  0.00     0.135 C 
ATOM     13  C   UNL d   1      27.546 -11.819  -9.604  0.00  0.00     0.022 C 
ATOM     14  C   UNL d   1      28.593 -12.372  -8.649  0.00  0.00     0.022 C 
ATOM     15  C   UNL d   1      28.240 -11.819  -7.267  0.00  0.00     0.135 C 
ENDBRANCH   8  11
ENDBRANCH   5   8
BRANCH   7  16
ATOM     16  N   UNL d   1      26.452 -15.224  -4.370  0.00  0.00    -0.113 N 
ATOM     17  O   UNL d   1      25.524 -15.832  -3.821  0.00  0.00    -0.532 OA
ATOM     18  O   UNL d   1      27.260 -15.718  -5.159  0.00  0.00    -0.532 OA
ENDBRANCH   7  16
ENDBRANCH   1   2
BRANCH   1  19
ATOM     19  C   UNL d   1      29.309 -14.613  -2.450  0.00  0.00     0.209 C 
BRANCH  19  20
ATOM     20  C   UNL d   1      29.321 -16.098  -2.184  0.00  0.00     0.168 C 
BRANCH  20  21
ATOM     21  C   UNL d   1      29.349 -16.249  -0.673  0.00  0.00     0.269 C 
BRANCH  21  22
ATOM     22  N   UNL d   1      27.984 -16.089  -0.086  0.00  0.00    -0.063 N 
ATOM     23  H   UNL d   1      27.372 -15.578  -0.743  0.00  0.00     0.280 HD
BRANCH  22  24
ATOM     24  C   UNL d   1      27.334 -17.429   0.107  0.00  0.00     0.273 C 
BRANCH  24  25
ATOM     25  C   UNL d   1      25.855 -17.512  -0.179  0.00  0.00    -0.033 A 
ATOM     26  C   UNL d   1      24.995 -18.556   0.211  0.00  0.00     0.009 A 
ATOM     27  C   UNL d   1      23.654 -18.583  -0.121  0.00  0.00     0.001 A 
ATOM     28  C   UNL d   1      23.126 -17.546  -0.854  0.00  0.00     0.000 A 
ATOM     29  C   UNL d   1      23.948 -16.499  -1.269  0.00  0.00     0.001 A 
ATOM     30  C   UNL d   1      25.299 -16.470  -0.926  0.00  0.00     0.009 A 
ENDBRANCH  24  25
ENDBRANCH  22  24
BRANCH  22  31
ATOM     31  C   UNL d   1      28.130 -15.234   1.150  0.00  0.00     0.261 C 
BRANCH  31  32
ATOM     32  C   UNL d   1      27.404 -13.908   1.100  0.00  0.00     0.192 C 
BRANCH  32  33
ATOM     33  O   UNL d   1      26.416 -13.955   0.090  0.00  0.00    -0.399 OA
ATOM     34  H   UNL d   1      26.775 -13.562  -0.727  0.00  0.00     0.209 HD
ENDBRANCH  32  33
ENDBRANCH  31  32
ENDBRANCH  22  31
ENDBRANCH  21  22
ENDBRANCH  20  21
BRANCH  20  35
ATOM     35  O   UNL d   1      28.130 -16.697  -2.701  0.00  0.00    -0.392 OA
ATOM     36  H   UNL d   1      27.528 -15.993  -3.015  0.00  0.00     0.210 HD
ENDBRANCH  20  35
ENDBRANCH  19  20
ENDBRANCH   1  19
TORSDOF 14
ENDMDL
MODEL 4
REMARK VINA RESULT:    -5.934      1.177      1.918
REMARK INTER + INTRA:         -17.841
REMARK INTER:                 -10.111
REMARK INTRA:                  -7.730
REMARK CONF_INDEPENDENT:        4.176
REMARK UNBOUND:                -7.730
REMARK  14 active torsions:
REMARK  status: ('A' for Active; 'I' for Inactive)
REMARK    1  A    between atoms: N_2  and  C_4 
REMARK    2  A    between atoms: C_6  and  S_7 
REMARK    3  A    between atoms: S_7  and  N_10 
REMARK    4  A    between atoms: C_17  and  O_18 
REMARK    5  A    between atoms: O_18  and  C_19 
REMARK    6  A    between atoms: C_20  and  C_19 
REMARK    7  A    between atoms: C_20  and  C_22 
REMARK    8  A    between atoms: C_20  and  O_21 
REMARK    9  A    between atoms: N_23  and  C_22 
REMARK   10  A    between atoms: N_23  and  C_27 
REMARK   11  A    between atoms: N_23  and  C_24 
REMARK   12  A    between atoms: C_24  and  C_25 
REMARK   13  A    between atoms: C_25  and  O_26 
REMARK   14  A    between atoms: C_27  and  C_28 
ROOT
ATOM      1  O   UNL d   1      28.496 -13.992   3.082  0.00  0.00    -0.346 OA
ENDROOT
BRANCH   1   2
ATOM      2  C   UNL d   1      27.902 -14.230   1.873  0.00  0.00     0.102 C 
ATOM      3  C   UNL d   1      28.000 -15.575   1.497  0.00  0.00     0.041 C 
ATOM      4  C   UNL d   1      27.355 -16.037   0.350  0.00  0.00     0.028 C 
ATOM      5  C   UNL d   1      26.555 -15.203  -0.408  0.00  0.00     0.082 C 
ATOM      6  C   UNL d   1      26.541 -13.838  -0.128  0.00  0.00     0.064 C 
ATOM      7  C   UNL d   1      27.193 -13.363   1.020  0.00  0.00     0.137 C 
BRANCH   5   8
ATOM      8  S   UNL d   1      25.392 -15.849  -1.603  0.00  0.00     0.260 S 
ATOM      9  O   UNL d   1      24.704 -14.666  -2.107  0.00  0.00    -0.200 OA
ATOM     10  O   UNL d   1      26.166 -16.700  -2.461  0.00  0.00    -0.200 OA
BRANCH   8  11
ATOM     11  N   UNL d   1      24.260 -16.790  -0.788  0.00  0.00    -0.307 N 
ATOM     12  C   UNL d   1      24.449 -18.167  -0.307  0.00  0.00     0.135 C 
ATOM     13  C   UNL d   1      23.226 -18.903  -0.859  0.00  0.00     0.022 C 
ATOM     14  C   UNL d   1      22.126 -17.855  -0.787  0.00  0.00     0.022 C 
ATOM     15  C   UNL d   1      22.825 -16.499  -0.895  0.00  0.00     0.135 C 
ENDBRANCH   8  11
ENDBRANCH   5   8
BRANCH   7  16
ATOM     16  N   UNL d   1      26.936 -11.963   1.320  0.00  0.00    -0.113 N 
ATOM     17  O   UNL d   1      26.641 -11.665   2.485  0.00  0.00    -0.532 OA
ATOM     18  O   UNL d   1      27.030 -11.167   0.383  0.00  0.00    -0.532 OA
ENDBRANCH   7  16
ENDBRANCH   1   2
BRANCH   1  19
ATOM     19  C   UNL d   1      28.155 -14.864   4.150  0.00  0.00     0.209 C 
BRANCH  19  20
ATOM     20  C   UNL d   1      27.907 -14.124   5.441  0.00  0.00     0.168 C 
BRANCH  20  21
ATOM     21  C   UNL d   1      29.258 -14.015   6.124  0.00  0.00     0.269 C 
BRANCH  21  22
ATOM     22  N   UNL d   1      29.755 -12.605   6.124  0.00  0.00    -0.063 N 
ATOM     23  H   UNL d   1      28.987 -11.958   5.883  0.00  0.00     0.280 HD
BRANCH  22  24
ATOM     24  C   UNL d   1      30.199 -12.205   7.501  0.00  0.00     0.273 C 
BRANCH  24  25
ATOM     25  C   UNL d   1      29.680 -13.035   8.649  0.00  0.00    -0.033 A 
ATOM     26  C   UNL d   1      28.484 -12.810   9.357  0.00  0.00     0.009 A 
ATOM     27  C   UNL d   1      28.090 -13.592  10.425  0.00  0.00     0.001 A 
ATOM     28  C   UNL d   1      28.887 -14.643  10.814  0.00  0.00     0.000 A 
ATOM     29  C   UNL d   1      30.085 -14.892  10.145  0.00  0.00     0.001 A 
ATOM     30  C   UNL d   1      30.477 -14.106   9.062  0.00  0.00     0.009 A 
ENDBRANCH  24  25
ENDBRANCH  22  24
BRANCH  22  31
ATOM     31  C   UNL d   1      30.791 -12.500   5.031  0.00  0.00     0.261 C 
BRANCH  31  32
ATOM     32  C   UNL d   1      30.399 -11.628   3.858  0.00  0.00     0.192 C 
BRANCH  32  33
ATOM     33  O   UNL d   1      29.046 -11.240   3.998  0.00  0.00    -0.399 OA
ATOM     34  H   UNL d   1      28.480 -11.879   3.525  0.00  0.00     0.209 HD
ENDBRANCH  32  33
ENDBRANCH  31  32
ENDBRANCH  22  31
ENDBRANCH  21  22
ENDBRANCH  20  21
BRANCH  20  35
ATOM     35  O   UNL d   1      27.406 -12.814   5.164  0.00  0.00    -0.392 OA
ATOM     36  H   UNL d   1      27.421 -12.662   4.198  0.00  0.00     0.210 HD
ENDBRANCH  20  35
ENDBRANCH  19  20
ENDBRANCH   1  19
TORSDOF 14
ENDMDL
MODEL 5
REMARK VINA RESULT:    -5.285      3.096      8.928
REMARK INTER + INTRA:         -17.373
REMARK INTER:                  -9.461
REMARK INTRA:                  -7.912
REMARK CONF_INDEPENDENT:        4.176
REMARK UNBOUND:                -7.912
REMARK  14 active torsions:
REMARK  status: ('A' for Active; 'I' for Inactive)
REMARK    1  A    between atoms: N_2  and  C_4 
REMARK    2  A    between atoms: C_6  and  S_7 
REMARK    3  A    between atoms: S_7  and  N_10 
REMARK    4  A    between atoms: C_17  and  O_18 
REMARK    5  A    between atoms: O_18  and  C_19 
REMARK    6  A    between atoms: C_20  and  C_19 
REMARK    7  A    between atoms: C_20  and  C_22 
REMARK    8  A    between atoms: C_20  and  O_21 
REMARK    9  A    between atoms: N_23  and  C_22 
REMARK   10  A    between atoms: N_23  and  C_27 
REMARK   11  A    between atoms: N_23  and  C_24 
REMARK   12  A    between atoms: C_24  and  C_25 
REMARK   13  A    between atoms: C_25  and  O_26 
REMARK   14  A    between atoms: C_27  and  C_28 
ROOT
ATOM      1  O   UNL d   1      28.838 -14.478   3.471  0.00  0.00    -0.346 OA
ENDROOT
BRANCH   1   2
ATOM      2  C   UNL d   1      28.653 -13.828   4.660  0.00  0.00     0.102 C 
ATOM      3  C   UNL d   1      28.872 -14.671   5.757  0.00  0.00     0.041 C 
ATOM      4  C   UNL d   1      28.845 -14.163   7.055  0.00  0.00     0.028 C 
ATOM      5  C   UNL d   1      28.665 -12.814   7.294  0.00  0.00     0.082 C 
ATOM      6  C   UNL d   1      28.322 -11.977   6.233  0.00  0.00     0.064 C 
ATOM      7  C   UNL d   1      28.340 -12.481   4.924  0.00  0.00     0.137 C 
BRANCH   5   8
ATOM      8  S   UNL d   1      29.053 -12.081   8.878  0.00  0.00     0.260 S 
ATOM      9  O   UNL d   1      29.980 -11.003   8.555  0.00  0.00    -0.200 OA
ATOM     10  O   UNL d   1      27.783 -11.830   9.498  0.00  0.00    -0.200 OA
BRANCH   8  11
ATOM     11  N   UNL d   1      29.888 -13.214   9.798  0.00  0.00    -0.307 N 
ATOM     12  C   UNL d   1      31.270 -13.671   9.584  0.00  0.00     0.135 C 
ATOM     13  C   UNL d   1      31.142 -15.196   9.590  0.00  0.00     0.022 C 
ATOM     14  C   UNL d   1      30.046 -15.451  10.614  0.00  0.00     0.022 C 
ATOM     15  C   UNL d   1      29.165 -14.200  10.613  0.00  0.00     0.135 C 
ENDBRANCH   8  11
ENDBRANCH   5   8
BRANCH   7  16
ATOM     16  N   UNL d   1      28.170 -11.472   3.890  0.00  0.00    -0.113 N 
ATOM     17  O   UNL d   1      29.169 -11.134   3.241  0.00  0.00    -0.532 OA
ATOM     18  O   UNL d   1      27.033 -11.020   3.735  0.00  0.00    -0.532 OA
ENDBRANCH   7  16
ENDBRANCH   1   2
BRANCH   1  19
ATOM     19  C   UNL d   1      30.145 -14.446   2.916  0.00  0.00     0.209 C 
BRANCH  19  20
ATOM     20  C   UNL d   1      30.142 -14.057   1.458  0.00  0.00     0.168 C 
BRANCH  20  21
ATOM     21  C   UNL d   1      29.273 -15.085   0.756  0.00  0.00     0.269 C 
BRANCH  21  22
ATOM     22  N   UNL d   1      28.030 -14.461   0.206  0.00  0.00    -0.063 N 
ATOM     23  H   UNL d   1      28.233 -13.508  -0.136  0.00  0.00     0.280 HD
BRANCH  22  24
ATOM     24  C   UNL d   1      27.547 -15.222  -0.995  0.00  0.00     0.273 C 
BRANCH  24  25
ATOM     25  C   UNL d   1      26.389 -16.165  -0.778  0.00  0.00    -0.033 A 
ATOM     26  C   UNL d   1      26.426 -17.365  -0.043  0.00  0.00     0.009 A 
ATOM     27  C   UNL d   1      25.333 -18.199   0.082  0.00  0.00     0.001 A 
ATOM     28  C   UNL d   1      24.150 -17.847  -0.526  0.00  0.00     0.000 A 
ATOM     29  C   UNL d   1      24.076 -16.671  -1.272  0.00  0.00     0.001 A 
ATOM     30  C   UNL d   1      25.179 -15.826  -1.390  0.00  0.00     0.009 A 
ENDBRANCH  24  25
ENDBRANCH  22  24
BRANCH  22  31
ATOM     31  C   UNL d   1      27.055 -14.330   1.351  0.00  0.00     0.261 C 
BRANCH  31  32
ATOM     32  C   UNL d   1      26.366 -12.988   1.455  0.00  0.00     0.192 C 
BRANCH  32  33
ATOM     33  O   UNL d   1      27.258 -11.972   1.038  0.00  0.00    -0.399 OA
ATOM     34  H   UNL d   1      27.778 -11.669   1.805  0.00  0.00     0.209 HD
ENDBRANCH  32  33
ENDBRANCH  31  32
ENDBRANCH  22  31
ENDBRANCH  21  22
ENDBRANCH  20  21
BRANCH  20  35
ATOM     35  O   UNL d   1      29.566 -12.758   1.300  0.00  0.00    -0.392 OA
ATOM     36  H   UNL d   1      29.094 -12.514   2.121  0.00  0.00     0.210 HD
ENDBRANCH  20  35
ENDBRANCH  19  20
ENDBRANCH   1  19
TORSDOF 14
ENDMDL
MODEL 6
REMARK VINA RESULT:    -5.265      6.676     10.020
REMARK INTER + INTRA:         -18.586
REMARK INTER:                  -9.441
REMARK INTRA:                  -9.145
REMARK CONF_INDEPENDENT:        4.176
REMARK UNBOUND:                -9.145
REMARK  14 active torsions:
REMARK  status: ('A' for Active; 'I' for Inactive)
REMARK    1  A    between atoms: N_2  and  C_4 
REMARK    2  A    between atoms: C_6  and  S_7 
REMARK    3  A    between atoms: S_7  and  N_10 
REMARK    4  A    between atoms: C_17  and  O_18 
REMARK    5  A    between atoms: O_18  and  C_19 
REMARK    6  A    between atoms: C_20  and  C_19 
REMARK    7  A    between atoms: C_20  and  C_22 
REMARK    8  A    between atoms: C_20  and  O_21 
REMARK    9  A    between atoms: N_23  and  C_22 
REMARK   10  A    between atoms: N_23  and  C_27 
REMARK   11  A    between atoms: N_23  and  C_24 
REMARK   12  A    between atoms: C_24  and  C_25 
REMARK   13  A    between atoms: C_25  and  O_26 
REMARK   14  A    between atoms: C_27  and  C_28 
ROOT
ATOM      1  O   UNL d   1      27.516 -15.036  -6.112  0.00  0.00    -0.346 OA
ENDROOT
BRANCH   1   2
ATOM      2  C   UNL d   1      27.255 -15.200  -4.780  0.00  0.00     0.102 C 
ATOM      3  C   UNL d   1      25.902 -15.002  -4.483  0.00  0.00     0.041 C 
ATOM      4  C   UNL d   1      25.418 -15.237  -3.196  0.00  0.00     0.028 C 
ATOM      5  C   UNL d   1      26.240 -15.729  -2.200  0.00  0.00     0.082 C 
ATOM      6  C   UNL d   1      27.611 -15.817  -2.434  0.00  0.00     0.064 C 
ATOM      7  C   UNL d   1      28.107 -15.575  -3.724  0.00  0.00     0.137 C 
BRANCH   5   8
ATOM      8  S   UNL d   1      25.575 -16.441  -0.700  0.00  0.00     0.260 S 
ATOM      9  O   UNL d   1      26.417 -17.605  -0.453  0.00  0.00    -0.200 OA
ATOM     10  O   UNL d   1      25.494 -15.351   0.230  0.00  0.00    -0.200 OA
BRANCH   8  11
ATOM     11  N   UNL d   1      24.019 -16.994  -1.019  0.00  0.00    -0.307 N 
ATOM     12  C   UNL d   1      22.806 -16.700  -0.239  0.00  0.00     0.135 C 
ATOM     13  C   UNL d   1      22.203 -18.084   0.008  0.00  0.00     0.022 C 
ATOM     14  C   UNL d   1      22.531 -18.842  -1.269  0.00  0.00     0.022 C 
ATOM     15  C   UNL d   1      23.802 -18.200  -1.828  0.00  0.00     0.135 C 
ENDBRANCH   8  11
ENDBRANCH   5   8
BRANCH   7  16
ATOM     16  N   UNL d   1      29.516 -15.898  -3.895  0.00  0.00    -0.113 N 
ATOM     17  O   UNL d   1      30.340 -14.986  -3.745  0.00  0.00    -0.532 OA
ATOM     18  O   UNL d   1      29.788 -17.065  -4.182  0.00  0.00    -0.532 OA
ENDBRANCH   7  16
ENDBRANCH   1   2
BRANCH   1  19
ATOM     19  C   UNL d   1      28.658 -14.265  -6.455  0.00  0.00     0.209 C 
BRANCH  19  20
ATOM     20  C   UNL d   1      29.747 -15.097  -7.087  0.00  0.00     0.168 C 
BRANCH  20  21
ATOM     21  C   UNL d   1      31.057 -14.516  -6.588  0.00  0.00     0.269 C 
BRANCH  21  22
ATOM     22  N   UNL d   1      31.887 -15.554  -5.905  0.00  0.00    -0.063 N 
ATOM     23  H   UNL d   1      31.294 -16.137  -5.293  0.00  0.00     0.280 HD
BRANCH  22  24
ATOM     24  C   UNL d   1      32.479 -16.499  -6.910  0.00  0.00     0.273 C 
BRANCH  24  25
ATOM     25  C   UNL d   1      31.868 -17.877  -6.986  0.00  0.00    -0.033 A 
ATOM     26  C   UNL d   1      31.611 -18.729  -5.895  0.00  0.00     0.009 A 
ATOM     27  C   UNL d   1      31.082 -19.996  -6.046  0.00  0.00     0.001 A 
ATOM     28  C   UNL d   1      30.782 -20.450  -7.309  0.00  0.00     0.000 A 
ATOM     29  C   UNL d   1      31.032 -19.640  -8.416  0.00  0.00     0.001 A 
ATOM     30  C   UNL d   1      31.558 -18.358  -8.262  0.00  0.00     0.009 A 
ENDBRANCH  24  25
ENDBRANCH  22  24
BRANCH  22  31
ATOM     31  C   UNL d   1      32.867 -14.825  -5.017  0.00  0.00     0.261 C 
BRANCH  31  32
ATOM     32  C   UNL d   1      33.369 -15.618  -3.831  0.00  0.00     0.192 C 
BRANCH  32  33
ATOM     33  O   UNL d   1      32.467 -16.672  -3.559  0.00  0.00    -0.399 OA
ATOM     34  H   UNL d   1      31.568 -16.307  -3.463  0.00  0.00     0.209 HD
ENDBRANCH  32  33
ENDBRANCH  31  32
ENDBRANCH  22  31
ENDBRANCH  21  22
ENDBRANCH  20  21
BRANCH  20  35
ATOM     35  O   UNL d   1      29.634 -16.456  -6.657  0.00  0.00    -0.392 OA
ATOM     36  H   UNL d   1      29.120 -16.488  -5.825  0.00  0.00     0.210 HD
ENDBRANCH  20  35
ENDBRANCH  19  20
ENDBRANCH   1  19
TORSDOF 14
ENDMDL
MODEL 7
REMARK VINA RESULT:    -5.175      1.574      2.344
REMARK INTER + INTRA:         -17.430
REMARK INTER:                  -9.351
REMARK INTRA:                  -8.078
REMARK CONF_INDEPENDENT:        4.176
REMARK UNBOUND:                -8.078
REMARK  14 active torsions:
REMARK  status: ('A' for Active; 'I' for Inactive)
REMARK    1  A    between atoms: N_2  and  C_4 
REMARK    2  A    between atoms: C_6  and  S_7 
REMARK    3  A    between atoms: S_7  and  N_10 
REMARK    4  A    between atoms: C_17  and  O_18 
REMARK    5  A    between atoms: O_18  and  C_19 
REMARK    6  A    between atoms: C_20  and  C_19 
REMARK    7  A    between atoms: C_20  and  C_22 
REMARK    8  A    between atoms: C_20  and  O_21 
REMARK    9  A    between atoms: N_23  and  C_22 
REMARK   10  A    between atoms: N_23  and  C_27 
REMARK   11  A    between atoms: N_23  and  C_24 
REMARK   12  A    between atoms: C_24  and  C_25 
REMARK   13  A    between atoms: C_25  and  O_26 
REMARK   14  A    between atoms: C_27  and  C_28 
ROOT
ATOM      1  O   UNL d   1      29.743 -13.340   3.114  0.00  0.00    -0.346 OA
ENDROOT
BRANCH   1   2
ATOM      2  C   UNL d   1      29.011 -13.987   2.157  0.00  0.00     0.102 C 
ATOM      3  C   UNL d   1      29.806 -14.825   1.366  0.00  0.00     0.041 C 
ATOM      4  C   UNL d   1      29.225 -15.657   0.411  0.00  0.00     0.028 C 
ATOM      5  C   UNL d   1      27.852 -15.727   0.260  0.00  0.00     0.082 C 
ATOM      6  C   UNL d   1      27.048 -14.817   0.944  0.00  0.00     0.064 C 
ATOM      7  C   UNL d   1      27.626 -13.971   1.903  0.00  0.00     0.137 C 
BRANCH   5   8
ATOM      8  S   UNL d   1      27.072 -17.070  -0.627  0.00  0.00     0.260 S 
ATOM      9  O   UNL d   1      27.147 -16.665  -2.025  0.00  0.00    -0.200 OA
ATOM     10  O   UNL d   1      27.712 -18.261  -0.145  0.00  0.00    -0.200 OA
BRANCH   8  11
ATOM     11  N   UNL d   1      25.447 -17.118  -0.195  0.00  0.00    -0.307 N 
ATOM     12  C   UNL d   1      24.763 -18.201   0.527  0.00  0.00     0.135 C 
ATOM     13  C   UNL d   1      23.539 -18.488  -0.345  0.00  0.00     0.022 C 
ATOM     14  C   UNL d   1      23.162 -17.115  -0.879  0.00  0.00     0.022 C 
ATOM     15  C   UNL d   1      24.456 -16.300  -0.907  0.00  0.00     0.135 C 
ENDBRANCH   8  11
ENDBRANCH   5   8
BRANCH   7  16
ATOM     16  N   UNL d   1      26.666 -13.218   2.695  0.00  0.00    -0.113 N 
ATOM     17  O   UNL d   1      26.302 -13.701   3.776  0.00  0.00    -0.532 OA
ATOM     18  O   UNL d   1      26.279 -12.144   2.227  0.00  0.00    -0.532 OA
ENDBRANCH   7  16
ENDBRANCH   1   2
BRANCH   1  19
ATOM     19  C   UNL d   1      30.431 -14.150   4.056  0.00  0.00     0.209 C 
BRANCH  19  20
ATOM     20  C   UNL d   1      29.798 -14.103   5.425  0.00  0.00     0.168 C 
BRANCH  20  21
ATOM     21  C   UNL d   1      30.470 -12.953   6.154  0.00  0.00     0.269 C 
BRANCH  21  22
ATOM     22  N   UNL d   1      29.501 -11.852   6.441  0.00  0.00    -0.063 N 
ATOM     23  H   UNL d   1      28.537 -12.170   6.258  0.00  0.00     0.280 HD
BRANCH  22  24
ATOM     24  C   UNL d   1      29.534 -11.490   7.898  0.00  0.00     0.273 C 
BRANCH  24  25
ATOM     25  C   UNL d   1      29.108 -12.562   8.872  0.00  0.00    -0.033 A 
ATOM     26  C   UNL d   1      29.562 -13.894   8.886  0.00  0.00     0.009 A 
ATOM     27  C   UNL d   1      29.098 -14.832   9.787  0.00  0.00     0.001 A 
ATOM     28  C   UNL d   1      28.160 -14.456  10.721  0.00  0.00     0.000 A 
ATOM     29  C   UNL d   1      27.677 -13.148  10.732  0.00  0.00     0.001 A 
ATOM     30  C   UNL d   1      28.153 -12.200   9.827  0.00  0.00     0.009 A 
ENDBRANCH  24  25
ENDBRANCH  22  24
BRANCH  22  31
ATOM     31  C   UNL d   1      29.798 -10.735   5.470  0.00  0.00     0.261 C 
BRANCH  31  32
ATOM     32  C   UNL d   1      28.811 -10.597   4.332  0.00  0.00     0.192 C 
BRANCH  32  33
ATOM     33  O   UNL d   1      27.784 -11.556   4.487  0.00  0.00    -0.399 OA
ATOM     34  H   UNL d   1      27.903 -12.262   3.825  0.00  0.00     0.209 HD
ENDBRANCH  32  33
ENDBRANCH  31  32
ENDBRANCH  22  31
ENDBRANCH  21  22
ENDBRANCH  20  21
BRANCH  20  35
ATOM     35  O   UNL d   1      28.398 -13.840   5.308  0.00  0.00    -0.392 OA
ATOM     36  H   UNL d   1      28.211 -13.492   4.413  0.00  0.00     0.210 HD
ENDBRANCH  20  35
ENDBRANCH  19  20
ENDBRANCH   1  19
TORSDOF 14
ENDMDL
MODEL 8
REMARK VINA RESULT:    -4.323      3.140      4.743
REMARK INTER + INTRA:         -17.316
REMARK INTER:                  -8.500
REMARK INTRA:                  -8.816
REMARK CONF_INDEPENDENT:        4.176
REMARK UNBOUND:                -8.816
REMARK  14 active torsions:
REMARK  status: ('A' for Active; 'I' for Inactive)
REMARK    1  A    between atoms: N_2  and  C_4 
REMARK    2  A    between atoms: C_6  and  S_7 
REMARK    3  A    between atoms: S_7  and  N_10 
REMARK    4  A    between atoms: C_17  and  O_18 
REMARK    5  A    between atoms: O_18  and  C_19 
REMARK    6  A    between atoms: C_20  and  C_19 
REMARK    7  A    between atoms: C_20  and  C_22 
REMARK    8  A    between atoms: C_20  and  O_21 
REMARK    9  A    between atoms: N_23  and  C_22 
REMARK   10  A    between atoms: N_23  and  C_27 
REMARK   11  A    between atoms: N_23  and  C_24 
REMARK   12  A    between atoms: C_24  and  C_25 
REMARK   13  A    between atoms: C_25  and  O_26 
REMARK   14  A    between atoms: C_27  and  C_28 
ROOT
ATOM      1  O   UNL d   1      27.025 -15.573   0.974  0.00  0.00    -0.346 OA
ENDROOT
BRANCH   1   2
ATOM      2  C   UNL d   1      27.043 -15.197  -0.341  0.00  0.00     0.102 C 
ATOM      3  C   UNL d   1      26.567 -16.211  -1.181  0.00  0.00     0.041 C 
ATOM      4  C   UNL d   1      26.400 -15.977  -2.545  0.00  0.00     0.028 C 
ATOM      5  C   UNL d   1      26.636 -14.731  -3.094  0.00  0.00     0.082 C 
ATOM      6  C   UNL d   1      27.227 -13.744  -2.307  0.00  0.00     0.064 C 
ATOM      7  C   UNL d   1      27.405 -13.973  -0.934  0.00  0.00     0.137 C 
BRANCH   5   8
ATOM      8  S   UNL d   1      26.028 -14.288  -4.717  0.00  0.00     0.260 S 
ATOM      9  O   UNL d   1      26.704 -15.216  -5.616  0.00  0.00    -0.200 OA
ATOM     10  O   UNL d   1      24.599 -14.261  -4.588  0.00  0.00    -0.200 OA
BRANCH   8  11
ATOM     11  N   UNL d   1      26.567 -12.737  -5.082  0.00  0.00    -0.307 N 
ATOM     12  C   UNL d   1      25.904 -11.473  -4.729  0.00  0.00     0.135 C 
ATOM     13  C   UNL d   1      25.852 -10.719  -6.060  0.00  0.00     0.022 C 
ATOM     14  C   UNL d   1      27.149 -11.126  -6.742  0.00  0.00     0.022 C 
ATOM     15  C   UNL d   1      27.502 -12.509  -6.191  0.00  0.00     0.135 C 
ENDBRANCH   8  11
ENDBRANCH   5   8
BRANCH   7  16
ATOM     16  N   UNL d   1      27.834 -12.804  -0.182  0.00  0.00    -0.113 N 
ATOM     17  O   UNL d   1      26.984 -11.944   0.086  0.00  0.00    -0.532 OA
ATOM     18  O   UNL d   1      29.025 -12.753   0.136  0.00  0.00    -0.532 OA
ENDBRANCH   7  16
ENDBRANCH   1   2
BRANCH   1  19
ATOM     19  C   UNL d   1      28.129 -15.174   1.773  0.00  0.00     0.209 C 
BRANCH  19  20
ATOM     20  C   UNL d   1      27.743 -14.164   2.826  0.00  0.00     0.168 C 
BRANCH  20  21
ATOM     21  C   UNL d   1      28.976 -13.306   3.051  0.00  0.00     0.269 C 
BRANCH  21  22
ATOM     22  N   UNL d   1      28.699 -11.868   2.751  0.00  0.00    -0.063 N 
ATOM     23  H   UNL d   1      28.163 -11.785   1.872  0.00  0.00     0.280 HD
BRANCH  22  24
ATOM     24  C   UNL d   1      27.823 -11.269   3.813  0.00  0.00     0.273 C 
BRANCH  24  25
ATOM     25  C   UNL d   1      28.189 -11.574   5.245  0.00  0.00    -0.033 A 
ATOM     26  C   UNL d   1      27.888 -12.760   5.941  0.00  0.00     0.009 A 
ATOM     27  C   UNL d   1      28.224 -12.953   7.267  0.00  0.00     0.001 A 
ATOM     28  C   UNL d   1      28.889 -11.955   7.941  0.00  0.00     0.000 A 
ATOM     29  C   UNL d   1      29.196 -10.761   7.289  0.00  0.00     0.001 A 
ATOM     30  C   UNL d   1      28.863 -10.571   5.948  0.00  0.00     0.009 A 
ENDBRANCH  24  25
ENDBRANCH  22  24
BRANCH  22  31
ATOM     31  C   UNL d   1      30.033 -11.197   2.529  0.00  0.00     0.261 C 
BRANCH  31  32
ATOM     32  C   UNL d   1      30.118 -10.338   1.287  0.00  0.00     0.192 C 
BRANCH  32  33
ATOM     33  O   UNL d   1      28.812 -10.009   0.857  0.00  0.00    -0.399 OA
ATOM     34  H   UNL d   1      28.530 -10.647   0.174  0.00  0.00     0.209 HD
ENDBRANCH  32  33
ENDBRANCH  31  32
ENDBRANCH  22  31
ENDBRANCH  21  22
ENDBRANCH  20  21
BRANCH  20  35
ATOM     35  O   UNL d   1      26.674 -13.345   2.348  0.00  0.00    -0.392 OA
ATOM     36  H   UNL d   1      26.615 -13.429   1.375  0.00  0.00     0.210 HD
ENDBRANCH  20  35
ENDBRANCH  19  20
ENDBRANCH   1  19
TORSDOF 14
ENDMDL
