MODEL 1
REMARK VINA RESULT:    -8.525      0.000      0.000
REMARK INTER + INTRA:         -12.524
REMARK INTER:                 -10.911
REMARK INTRA:                  -1.613
REMARK CONF_INDEPENDENT:        2.386
REMARK UNBOUND:                -1.613
REMARK  8 active torsions:
REMARK  status: ('A' for Active; 'I' for Inactive)
REMARK    1  A    between atoms: C_2  and  C_3 
REMARK    2  A    between atoms: C_3  and  C_4 
REMARK    3  A    between atoms: C_4  and  C_5 
REMARK    4  A    between atoms: C_5  and  C_6 
REMARK       I    between atoms: C_6  and  N_8 
REMARK    5  A    between atoms: N_8  and  N_9 
REMARK       I    between atoms: N_9  and  C_10 
REMARK    6  A    between atoms: C_10  and  C_12 
REMARK    7  A    between atoms: C_15  and  N_16 
REMARK       I    between atoms: N_16  and  C_17 
REMARK    8  A    between atoms: C_17  and  C_19 
ROOT
ATOM      1  N   UNL d   1      25.651 -15.785  -2.995  0.00  0.00    -0.263 N 
ATOM      2  C   UNL d   1      25.501 -15.795  -1.615  0.00  0.00     0.270 C 
ATOM      3  O   UNL d   1      26.193 -15.104  -0.861  0.00  0.00    -0.266 OA
ATOM      4  H   UNL d   1      25.043 -16.291  -3.638  0.00  0.00     0.190 HD
ENDROOT
BRANCH   2   5
ATOM      5  C   UNL d   1      24.472 -16.718  -1.038  0.00  0.00     0.033 A 
ATOM      6  C   UNL d   1      24.774 -18.047  -0.687  0.00  0.00     0.019 A 
ATOM      7  C   UNL d   1      23.756 -18.952  -0.277  0.00  0.00     0.030 A 
ATOM      8  C   UNL d   1      22.427 -18.522  -0.164  0.00  0.00     0.034 A 
ATOM      9  C   UNL d   1      22.156 -17.203  -0.553  0.00  0.00     0.030 A 
ATOM     10  C   UNL d   1      23.149 -16.310  -0.971  0.00  0.00     0.019 A 
BRANCH   8  11
ATOM     11  N   UNL d   1      21.405 -19.385   0.353  0.00  0.00    -0.327 N 
ATOM     12  C   UNL d   1      20.357 -19.893  -0.414  0.00  0.00     0.221 C 
ATOM     13  O   UNL d   1      20.216 -19.697  -1.621  0.00  0.00    -0.273 OA
ATOM     14  H   UNL d   1      21.406 -19.567   1.351  0.00  0.00     0.169 HD
BRANCH  12  15
ATOM     15  C   UNL d   1      19.312 -20.735   0.301  0.00  0.00     0.098 C 
ATOM     16  C   UNL d   1      18.904 -20.011   1.594  0.00  0.00     0.014 C 
ENDBRANCH  12  15
ENDBRANCH   8  11
ENDBRANCH   2   5
BRANCH   1  17
ATOM     17  N   UNL d   1      26.625 -14.943  -3.600  0.00  0.00    -0.267 N 
ATOM     18  C   UNL d   1      26.798 -15.013  -4.974  0.00  0.00     0.236 C 
ATOM     19  O   UNL d   1      26.127 -15.776  -5.669  0.00  0.00    -0.272 OA
ATOM     20  H   UNL d   1      27.155 -14.335  -2.979  0.00  0.00     0.190 HD
BRANCH  18  21
ATOM     21  C   UNL d   1      27.868 -14.085  -5.556  0.00  0.00     0.104 C 
BRANCH  21  22
ATOM     22  C   UNL d   1      28.785 -14.830  -6.541  0.00  0.00     0.009 C 
BRANCH  22  23
ATOM     23  C   UNL d   1      30.018 -15.439  -5.870  0.00  0.00     0.000 C 
BRANCH  23  24
ATOM     24  C   UNL d   1      30.487 -16.696  -6.609  0.00  0.00    -0.005 C 
ATOM     25  C   UNL d   1      30.407 -17.921  -5.711  0.00  0.00     0.005 C 
ENDBRANCH  23  24
ENDBRANCH  22  23
ENDBRANCH  21  22
ENDBRANCH  18  21
ENDBRANCH   1  17
TORSDOF 8
ENDMDL
MODEL 2
REMARK VINA RESULT:    -8.298      1.406      2.565
REMARK INTER + INTRA:         -12.544
REMARK INTER:                 -10.684
REMARK INTRA:                  -1.860
REMARK CONF_INDEPENDENT:        2.386
REMARK UNBOUND:                -1.860
REMARK  8 active torsions:
REMARK  status: ('A' for Active; 'I' for Inactive)
REMARK    1  A    between atoms: C_2  and  C_3 
REMARK    2  A    between atoms: C_3  and  C_4 
REMARK    3  A    between atoms: C_4  and  C_5 
REMARK    4  A    between atoms: C_5  and  C_6 
REMARK       I    between atoms: C_6  and  N_8 
REMARK    5  A    between atoms: N_8  and  N_9 
REMARK       I    between atoms: N_9  and  C_10 
REMARK    6  A    between atoms: C_10  and  C_12 
REMARK    7  A    between atoms: C_15  and  N_16 
REMARK       I    between atoms: N_16  and  C_17 
REMARK    8  A    between atoms: C_17  and  C_19 
ROOT
ATOM      1  N   UNL d   1      25.788 -15.933  -2.944  0.00  0.00    -0.263 N 
ATOM      2  C   UNL d   1      25.509 -15.810  -1.590  0.00  0.00     0.270 C 
ATOM      3  O   UNL d   1      26.093 -15.006  -0.856  0.00  0.00    -0.266 OA
ATOM      4  H   UNL d   1      25.269 -16.537  -3.580  0.00  0.00     0.190 HD
ENDROOT
BRANCH   2   5
ATOM      5  C   UNL d   1      24.477 -16.727  -1.010  0.00  0.00     0.033 A 
ATOM      6  C   UNL d   1      24.780 -18.048  -0.630  0.00  0.00     0.019 A 
ATOM      7  C   UNL d   1      23.761 -18.950  -0.218  0.00  0.00     0.030 A 
ATOM      8  C   UNL d   1      22.428 -18.525  -0.130  0.00  0.00     0.034 A 
ATOM      9  C   UNL d   1      22.157 -17.214  -0.547  0.00  0.00     0.030 A 
ATOM     10  C   UNL d   1      23.151 -16.324  -0.968  0.00  0.00     0.019 A 
BRANCH   8  11
ATOM     11  N   UNL d   1      21.403 -19.383   0.388  0.00  0.00    -0.327 N 
ATOM     12  C   UNL d   1      20.356 -19.891  -0.378  0.00  0.00     0.221 C 
ATOM     13  O   UNL d   1      20.217 -19.700  -1.586  0.00  0.00    -0.273 OA
ATOM     14  H   UNL d   1      21.402 -19.560   1.388  0.00  0.00     0.169 HD
BRANCH  12  15
ATOM     15  C   UNL d   1      19.307 -20.728   0.339  0.00  0.00     0.098 C 
ATOM     16  C   UNL d   1      18.938 -20.024   1.654  0.00  0.00     0.014 C 
ENDBRANCH  12  15
ENDBRANCH   8  11
ENDBRANCH   2   5
BRANCH   1  17
ATOM     17  N   UNL d   1      26.772 -15.103  -3.548  0.00  0.00    -0.267 N 
ATOM     18  C   UNL d   1      26.832 -15.047  -4.932  0.00  0.00     0.236 C 
ATOM     19  O   UNL d   1      26.053 -15.689  -5.636  0.00  0.00    -0.272 OA
ATOM     20  H   UNL d   1      27.394 -14.596  -2.920  0.00  0.00     0.190 HD
BRANCH  18  21
ATOM     21  C   UNL d   1      27.920 -14.139  -5.513  0.00  0.00     0.104 C 
BRANCH  21  22
ATOM     22  C   UNL d   1      27.646 -12.658  -5.199  0.00  0.00     0.009 C 
BRANCH  22  23
ATOM     23  C   UNL d   1      26.163 -12.291  -5.282  0.00  0.00     0.000 C 
BRANCH  23  24
ATOM     24  C   UNL d   1      25.530 -12.226  -3.888  0.00  0.00    -0.005 C 
ATOM     25  C   UNL d   1      26.565 -11.866  -2.833  0.00  0.00     0.005 C 
ENDBRANCH  23  24
ENDBRANCH  22  23
ENDBRANCH  21  22
ENDBRANCH  18  21
ENDBRANCH   1  17
TORSDOF 8
ENDMDL
MODEL 3
REMARK VINA RESULT:    -8.249      1.711      9.432
REMARK INTER + INTRA:         -12.024
REMARK INTER:                 -10.635
REMARK INTRA:                  -1.389
REMARK CONF_INDEPENDENT:        2.386
REMARK UNBOUND:                -1.389
REMARK  8 active torsions:
REMARK  status: ('A' for Active; 'I' for Inactive)
REMARK    1  A    between atoms: C_2  and  C_3 
REMARK    2  A    between atoms: C_3  and  C_4 
REMARK    3  A    between atoms: C_4  and  C_5 
REMARK    4  A    between atoms: C_5  and  C_6 
REMARK       I    between atoms: C_6  and  N_8 
REMARK    5  A    between atoms: N_8  and  N_9 
REMARK       I    between atoms: N_9  and  C_10 
REMARK    6  A    between atoms: C_10  and  C_12 
REMARK    7  A    between atoms: C_15  and  N_16 
REMARK       I    between atoms: N_16  and  C_17 
REMARK    8  A    between atoms: C_17  and  C_19 
ROOT
ATOM      1  N   UNL d   1      23.229 -18.087  -0.653  0.00  0.00    -0.263 N 
ATOM      2  C   UNL d   1      24.520 -17.783  -0.246  0.00  0.00     0.270 C 
ATOM      3  O   UNL d   1      25.005 -18.200   0.811  0.00  0.00    -0.266 OA
ATOM      4  H   UNL d   1      22.836 -17.814  -1.554  0.00  0.00     0.190 HD
ENDROOT
BRANCH   2   5
ATOM      5  C   UNL d   1      25.329 -16.880  -1.126  0.00  0.00     0.033 A 
ATOM      6  C   UNL d   1      24.729 -15.980  -2.027  0.00  0.00     0.019 A 
ATOM      7  C   UNL d   1      25.506 -15.236  -2.955  0.00  0.00     0.030 A 
ATOM      8  C   UNL d   1      26.904 -15.344  -2.960  0.00  0.00     0.034 A 
ATOM      9  C   UNL d   1      27.466 -16.273  -2.073  0.00  0.00     0.030 A 
ATOM     10  C   UNL d   1      26.708 -17.021  -1.166  0.00  0.00     0.019 A 
BRANCH   8  11
ATOM     11  N   UNL d   1      27.713 -14.521  -3.811  0.00  0.00    -0.327 N 
ATOM     12  C   UNL d   1      27.733 -14.627  -5.200  0.00  0.00     0.221 C 
ATOM     13  O   UNL d   1      27.032 -15.400  -5.853  0.00  0.00    -0.273 OA
ATOM     14  H   UNL d   1      28.365 -13.884  -3.364  0.00  0.00     0.169 HD
BRANCH  12  15
ATOM     15  C   UNL d   1      28.703 -13.731  -5.956  0.00  0.00     0.098 C 
ATOM     16  C   UNL d   1      29.746 -14.620  -6.651  0.00  0.00     0.014 C 
ENDBRANCH  12  15
ENDBRANCH   8  11
ENDBRANCH   2   5
BRANCH   1  17
ATOM     17  N   UNL d   1      22.406 -18.924   0.150  0.00  0.00    -0.267 N 
ATOM     18  C   UNL d   1      21.247 -19.444  -0.406  0.00  0.00     0.236 C 
ATOM     19  O   UNL d   1      20.927 -19.201  -1.571  0.00  0.00    -0.272 OA
ATOM     20  H   UNL d   1      22.715 -19.089   1.106  0.00  0.00     0.190 HD
BRANCH  18  21
ATOM     21  C   UNL d   1      20.407 -20.330   0.517  0.00  0.00     0.104 C 
BRANCH  21  22
ATOM     22  C   UNL d   1      19.431 -19.495   1.364  0.00  0.00     0.009 C 
BRANCH  22  23
ATOM     23  C   UNL d   1      18.396 -20.347   2.103  0.00  0.00     0.000 C 
BRANCH  23  24
ATOM     24  C   UNL d   1      18.008 -21.582   1.283  0.00  0.00    -0.005 C 
ATOM     25  C   UNL d   1      17.649 -21.200  -0.145  0.00  0.00     0.005 C 
ENDBRANCH  23  24
ENDBRANCH  22  23
ENDBRANCH  21  22
ENDBRANCH  18  21
ENDBRANCH   1  17
TORSDOF 8
ENDMDL
MODEL 4
REMARK VINA RESULT:    -8.239      1.158      2.016
REMARK INTER + INTRA:         -12.169
REMARK INTER:                 -10.626
REMARK INTRA:                  -1.544
REMARK CONF_INDEPENDENT:        2.386
REMARK UNBOUND:                -1.544
REMARK  8 active torsions:
REMARK  status: ('A' for Active; 'I' for Inactive)
REMARK    1  A    between atoms: C_2  and  C_3 
REMARK    2  A    between atoms: C_3  and  C_4 
REMARK    3  A    between atoms: C_4  and  C_5 
REMARK    4  A    between atoms: C_5  and  C_6 
REMARK       I    between atoms: C_6  and  N_8 
REMARK    5  A    between atoms: N_8  and  N_9 
REMARK       I    between atoms: N_9  and  C_10 
REMARK    6  A    between atoms: C_10  and  C_12 
REMARK    7  A    between atoms: C_15  and  N_16 
REMARK       I    between atoms: N_16  and  C_17 
REMARK    8  A    between atoms: C_17  and  C_19 
ROOT
ATOM      1  N   UNL d   1      25.801 -15.843  -2.834  0.00  0.00    -0.263 N 
ATOM      2  C   UNL d   1      25.518 -15.770  -1.477  0.00  0.00     0.270 C 
ATOM      3  O   UNL d   1      26.101 -14.997  -0.711  0.00  0.00    -0.266 OA
ATOM      4  H   UNL d   1      25.282 -16.420  -3.494  0.00  0.00     0.190 HD
ENDROOT
BRANCH   2   5
ATOM      5  C   UNL d   1      24.480 -16.706  -0.936  0.00  0.00     0.033 A 
ATOM      6  C   UNL d   1      24.783 -18.035  -0.585  0.00  0.00     0.019 A 
ATOM      7  C   UNL d   1      23.761 -18.950  -0.210  0.00  0.00     0.030 A 
ATOM      8  C   UNL d   1      22.425 -18.532  -0.133  0.00  0.00     0.034 A 
ATOM      9  C   UNL d   1      22.156 -17.213  -0.522  0.00  0.00     0.030 A 
ATOM     10  C   UNL d   1      23.152 -16.309  -0.905  0.00  0.00     0.019 A 
BRANCH   8  11
ATOM     11  N   UNL d   1      21.397 -19.407   0.347  0.00  0.00    -0.327 N 
ATOM     12  C   UNL d   1      20.371 -19.911  -0.451  0.00  0.00     0.221 C 
ATOM     13  O   UNL d   1      20.257 -19.701  -1.658  0.00  0.00    -0.273 OA
ATOM     14  H   UNL d   1      21.374 -19.601   1.344  0.00  0.00     0.169 HD
BRANCH  12  15
ATOM     15  C   UNL d   1      19.313 -20.767   0.228  0.00  0.00     0.098 C 
ATOM     16  C   UNL d   1      19.076 -20.218   1.644  0.00  0.00     0.014 C 
ENDBRANCH  12  15
ENDBRANCH   8  11
ENDBRANCH   2   5
BRANCH   1  17
ATOM     17  N   UNL d   1      26.790 -14.993  -3.402  0.00  0.00    -0.267 N 
ATOM     18  C   UNL d   1      26.959 -15.002  -4.778  0.00  0.00     0.236 C 
ATOM     19  O   UNL d   1      26.270 -15.717  -5.506  0.00  0.00    -0.272 OA
ATOM     20  H   UNL d   1      27.334 -14.426  -2.754  0.00  0.00     0.190 HD
BRANCH  18  21
ATOM     21  C   UNL d   1      28.045 -14.069  -5.319  0.00  0.00     0.104 C 
BRANCH  21  22
ATOM     22  C   UNL d   1      28.561 -14.540  -6.690  0.00  0.00     0.009 C 
BRANCH  22  23
ATOM     23  C   UNL d   1      29.196 -13.416  -7.512  0.00  0.00     0.000 C 
BRANCH  23  24
ATOM     24  C   UNL d   1      28.155 -12.366  -7.911  0.00  0.00    -0.005 C 
ATOM     25  C   UNL d   1      28.648 -11.522  -9.076  0.00  0.00     0.005 C 
ENDBRANCH  23  24
ENDBRANCH  22  23
ENDBRANCH  21  22
ENDBRANCH  18  21
ENDBRANCH   1  17
TORSDOF 8
ENDMDL
MODEL 5
REMARK VINA RESULT:    -8.140      3.206      9.104
REMARK INTER + INTRA:         -11.495
REMARK INTER:                 -10.526
REMARK INTRA:                  -0.968
REMARK CONF_INDEPENDENT:        2.386
REMARK UNBOUND:                -0.968
REMARK  8 active torsions:
REMARK  status: ('A' for Active; 'I' for Inactive)
REMARK    1  A    between atoms: C_2  and  C_3 
REMARK    2  A    between atoms: C_3  and  C_4 
REMARK    3  A    between atoms: C_4  and  C_5 
REMARK    4  A    between atoms: C_5  and  C_6 
REMARK       I    between atoms: C_6  and  N_8 
REMARK    5  A    between atoms: N_8  and  N_9 
REMARK       I    between atoms: N_9  and  C_10 
REMARK    6  A    between atoms: C_10  and  C_12 
REMARK    7  A    between atoms: C_15  and  N_16 
REMARK       I    between atoms: N_16  and  C_17 
REMARK    8  A    between atoms: C_17  and  C_19 
ROOT
ATOM      1  N   UNL d   1      22.816 -18.617   0.239  0.00  0.00    -0.263 N 
ATOM      2  C   UNL d   1      23.450 -17.580  -0.430  0.00  0.00     0.270 C 
ATOM      3  O   UNL d   1      22.834 -16.665  -0.986  0.00  0.00    -0.266 OA
ATOM      4  H   UNL d   1      23.306 -19.340   0.765  0.00  0.00     0.190 HD
ENDROOT
BRANCH   2   5
ATOM      5  C   UNL d   1      24.947 -17.612  -0.496  0.00  0.00     0.033 A 
ATOM      6  C   UNL d   1      25.713 -18.456   0.328  0.00  0.00     0.019 A 
ATOM      7  C   UNL d   1      27.133 -18.371   0.356  0.00  0.00     0.030 A 
ATOM      8  C   UNL d   1      27.807 -17.473  -0.483  0.00  0.00     0.034 A 
ATOM      9  C   UNL d   1      27.012 -16.625  -1.266  0.00  0.00     0.030 A 
ATOM     10  C   UNL d   1      25.615 -16.691  -1.289  0.00  0.00     0.019 A 
BRANCH   8  11
ATOM     11  N   UNL d   1      29.239 -17.449  -0.552  0.00  0.00    -0.327 N 
ATOM     12  C   UNL d   1      29.955 -17.046  -1.677  0.00  0.00     0.221 C 
ATOM     13  O   UNL d   1      29.446 -16.626  -2.716  0.00  0.00    -0.273 OA
ATOM     14  H   UNL d   1      29.752 -17.825   0.240  0.00  0.00     0.169 HD
BRANCH  12  15
ATOM     15  C   UNL d   1      31.471 -17.149  -1.616  0.00  0.00     0.098 C 
ATOM     16  C   UNL d   1      31.930 -16.745  -0.206  0.00  0.00     0.014 C 
ENDBRANCH  12  15
ENDBRANCH   8  11
ENDBRANCH   2   5
BRANCH   1  17
ATOM     17  N   UNL d   1      21.396 -18.651   0.320  0.00  0.00    -0.267 N 
ATOM     18  C   UNL d   1      20.678 -19.022  -0.807  0.00  0.00     0.236 C 
ATOM     19  O   UNL d   1      21.242 -19.325  -1.859  0.00  0.00    -0.272 OA
ATOM     20  H   UNL d   1      20.981 -18.387   1.211  0.00  0.00     0.190 HD
BRANCH  18  21
ATOM     21  C   UNL d   1      19.155 -19.029  -0.650  0.00  0.00     0.104 C 
BRANCH  21  22
ATOM     22  C   UNL d   1      18.626 -20.443  -0.355  0.00  0.00     0.009 C 
BRANCH  22  23
ATOM     23  C   UNL d   1      19.170 -21.028   0.950  0.00  0.00     0.000 C 
BRANCH  23  24
ATOM     24  C   UNL d   1      19.060 -20.019   2.098  0.00  0.00    -0.005 C 
ATOM     25  C   UNL d   1      19.905 -20.450   3.288  0.00  0.00     0.005 C 
ENDBRANCH  23  24
ENDBRANCH  22  23
ENDBRANCH  21  22
ENDBRANCH  18  21
ENDBRANCH   1  17
TORSDOF 8
ENDMDL
MODEL 6
REMARK VINA RESULT:    -7.888      3.725      9.219
REMARK INTER + INTRA:         -11.192
REMARK INTER:                 -10.274
REMARK INTRA:                  -0.917
REMARK CONF_INDEPENDENT:        2.386
REMARK UNBOUND:                -0.917
REMARK  8 active torsions:
REMARK  status: ('A' for Active; 'I' for Inactive)
REMARK    1  A    between atoms: C_2  and  C_3 
REMARK    2  A    between atoms: C_3  and  C_4 
REMARK    3  A    between atoms: C_4  and  C_5 
REMARK    4  A    between atoms: C_5  and  C_6 
REMARK       I    between atoms: C_6  and  N_8 
REMARK    5  A    between atoms: N_8  and  N_9 
REMARK       I    between atoms: N_9  and  C_10 
REMARK    6  A    between atoms: C_10  and  C_12 
REMARK    7  A    between atoms: C_15  and  N_16 
REMARK       I    between atoms: N_16  and  C_17 
REMARK    8  A    between atoms: C_17  and  C_19 
ROOT
ATOM      1  N   UNL d   1      22.537 -18.892   0.278  0.00  0.00    -0.263 N 
ATOM      2  C   UNL d   1      23.264 -18.591  -0.865  0.00  0.00     0.270 C 
ATOM      3  O   UNL d   1      22.920 -18.955  -1.994  0.00  0.00    -0.266 OA
ATOM      4  H   UNL d   1      22.765 -18.540   1.207  0.00  0.00     0.190 HD
ENDROOT
BRANCH   2   5
ATOM      5  C   UNL d   1      24.537 -17.819  -0.693  0.00  0.00     0.033 A 
ATOM      6  C   UNL d   1      25.578 -18.271   0.140  0.00  0.00     0.019 A 
ATOM      7  C   UNL d   1      26.716 -17.461   0.406  0.00  0.00     0.030 A 
ATOM      8  C   UNL d   1      26.851 -16.205  -0.201  0.00  0.00     0.034 A 
ATOM      9  C   UNL d   1      25.781 -15.772  -0.997  0.00  0.00     0.030 A 
ATOM     10  C   UNL d   1      24.651 -16.556  -1.252  0.00  0.00     0.019 A 
BRANCH   8  11
ATOM     11  N   UNL d   1      28.039 -15.420  -0.034  0.00  0.00    -0.327 N 
ATOM     12  C   UNL d   1      28.042 -14.107   0.436  0.00  0.00     0.221 C 
ATOM     13  O   UNL d   1      27.040 -13.493   0.801  0.00  0.00    -0.273 OA
ATOM     14  H   UNL d   1      28.914 -15.821  -0.356  0.00  0.00     0.169 HD
BRANCH  12  15
ATOM     15  C   UNL d   1      29.380 -13.385   0.483  0.00  0.00     0.098 C 
ATOM     16  C   UNL d   1      30.496 -14.410   0.229  0.00  0.00     0.014 C 
ENDBRANCH  12  15
ENDBRANCH   8  11
ENDBRANCH   2   5
BRANCH   1  17
ATOM     17  N   UNL d   1      21.331 -19.638   0.180  0.00  0.00    -0.267 N 
ATOM     18  C   UNL d   1      20.243 -19.058  -0.454  0.00  0.00     0.236 C 
ATOM     19  O   UNL d   1      20.307 -17.926  -0.934  0.00  0.00    -0.272 OA
ATOM     20  H   UNL d   1      21.331 -20.567   0.597  0.00  0.00     0.190 HD
BRANCH  18  21
ATOM     21  C   UNL d   1      18.976 -19.915  -0.516  0.00  0.00     0.104 C 
BRANCH  21  22
ATOM     22  C   UNL d   1      18.981 -21.009   0.566  0.00  0.00     0.009 C 
BRANCH  22  23
ATOM     23  C   UNL d   1      18.641 -20.477   1.960  0.00  0.00     0.000 C 
BRANCH  23  24
ATOM     24  C   UNL d   1      19.909 -20.219   2.779  0.00  0.00    -0.005 C 
ATOM     25  C   UNL d   1      19.795 -20.827   4.169  0.00  0.00     0.005 C 
ENDBRANCH  23  24
ENDBRANCH  22  23
ENDBRANCH  21  22
ENDBRANCH  18  21
ENDBRANCH   1  17
TORSDOF 8
ENDMDL
MODEL 7
REMARK VINA RESULT:    -7.332      2.361      9.161
REMARK INTER + INTRA:         -11.424
REMARK INTER:                  -9.719
REMARK INTRA:                  -1.706
REMARK CONF_INDEPENDENT:        2.386
REMARK UNBOUND:                -1.706
REMARK  8 active torsions:
REMARK  status: ('A' for Active; 'I' for Inactive)
REMARK    1  A    between atoms: C_2  and  C_3 
REMARK    2  A    between atoms: C_3  and  C_4 
REMARK    3  A    between atoms: C_4  and  C_5 
REMARK    4  A    between atoms: C_5  and  C_6 
REMARK       I    between atoms: C_6  and  N_8 
REMARK    5  A    between atoms: N_8  and  N_9 
REMARK       I    between atoms: N_9  and  C_10 
REMARK    6  A    between atoms: C_10  and  C_12 
REMARK    7  A    between atoms: C_15  and  N_16 
REMARK       I    between atoms: N_16  and  C_17 
REMARK    8  A    between atoms: C_17  and  C_19 
ROOT
ATOM      1  N   UNL d   1      22.266 -18.783  -0.751  0.00  0.00    -0.263 N 
ATOM      2  C   UNL d   1      23.420 -18.281  -0.166  0.00  0.00     0.270 C 
ATOM      3  O   UNL d   1      23.774 -18.576   0.980  0.00  0.00    -0.266 OA
ATOM      4  H   UNL d   1      21.996 -18.610  -1.719  0.00  0.00     0.190 HD
ENDROOT
BRANCH   2   5
ATOM      5  C   UNL d   1      24.237 -17.313  -0.967  0.00  0.00     0.033 A 
ATOM      6  C   UNL d   1      25.632 -17.443  -1.099  0.00  0.00     0.019 A 
ATOM      7  C   UNL d   1      26.410 -16.440  -1.739  0.00  0.00     0.030 A 
ATOM      8  C   UNL d   1      25.793 -15.314  -2.303  0.00  0.00     0.034 A 
ATOM      9  C   UNL d   1      24.408 -15.200  -2.124  0.00  0.00     0.030 A 
ATOM     10  C   UNL d   1      23.636 -16.175  -1.482  0.00  0.00     0.019 A 
BRANCH   8  11
ATOM     11  N   UNL d   1      26.544 -14.347  -3.048  0.00  0.00    -0.327 N 
ATOM     12  C   UNL d   1      26.213 -13.934  -4.337  0.00  0.00     0.221 C 
ATOM     13  O   UNL d   1      25.223 -14.314  -4.961  0.00  0.00    -0.273 OA
ATOM     14  H   UNL d   1      27.409 -14.009  -2.638  0.00  0.00     0.169 HD
BRANCH  12  15
ATOM     15  C   UNL d   1      27.156 -12.955  -5.021  0.00  0.00     0.098 C 
ATOM     16  C   UNL d   1      26.313 -11.891  -5.743  0.00  0.00     0.014 C 
ENDBRANCH  12  15
ENDBRANCH   8  11
ENDBRANCH   2   5
BRANCH   1  17
ATOM     17  N   UNL d   1      21.440 -19.691  -0.033  0.00  0.00    -0.267 N 
ATOM     18  C   UNL d   1      20.247 -20.099  -0.610  0.00  0.00     0.236 C 
ATOM     19  O   UNL d   1      19.901 -19.700  -1.723  0.00  0.00    -0.272 OA
ATOM     20  H   UNL d   1      21.771 -19.986   0.884  0.00  0.00     0.190 HD
BRANCH  18  21
ATOM     21  C   UNL d   1      19.405 -21.070   0.221  0.00  0.00     0.104 C 
BRANCH  21  22
ATOM     22  C   UNL d   1      18.481 -20.321   1.197  0.00  0.00     0.009 C 
BRANCH  22  23
ATOM     23  C   UNL d   1      19.231 -19.345   2.105  0.00  0.00     0.000 C 
BRANCH  23  24
ATOM     24  C   UNL d   1      20.280 -20.070   2.954  0.00  0.00    -0.005 C 
ATOM     25  C   UNL d   1      19.628 -20.825   4.102  0.00  0.00     0.005 C 
ENDBRANCH  23  24
ENDBRANCH  22  23
ENDBRANCH  21  22
ENDBRANCH  18  21
ENDBRANCH   1  17
TORSDOF 8
ENDMDL
MODEL 8
REMARK VINA RESULT:    -7.132      1.465      2.100
REMARK INTER + INTRA:         -11.341
REMARK INTER:                  -9.518
REMARK INTRA:                  -1.823
REMARK CONF_INDEPENDENT:        2.386
REMARK UNBOUND:                -1.823
REMARK  8 active torsions:
REMARK  status: ('A' for Active; 'I' for Inactive)
REMARK    1  A    between atoms: C_2  and  C_3 
REMARK    2  A    between atoms: C_3  and  C_4 
REMARK    3  A    between atoms: C_4  and  C_5 
REMARK    4  A    between atoms: C_5  and  C_6 
REMARK       I    between atoms: C_6  and  N_8 
REMARK    5  A    between atoms: N_8  and  N_9 
REMARK       I    between atoms: N_9  and  C_10 
REMARK    6  A    between atoms: C_10  and  C_12 
REMARK    7  A    between atoms: C_15  and  N_16 
REMARK       I    between atoms: N_16  and  C_17 
REMARK    8  A    between atoms: C_17  and  C_19 
ROOT
ATOM      1  N   UNL d   1      26.737 -16.177  -1.951  0.00  0.00    -0.263 N 
ATOM      2  C   UNL d   1      25.459 -15.680  -1.741  0.00  0.00     0.270 C 
ATOM      3  O   UNL d   1      25.141 -14.516  -2.004  0.00  0.00    -0.266 OA
ATOM      4  H   UNL d   1      26.999 -17.152  -1.809  0.00  0.00     0.190 HD
ENDROOT
BRANCH   2   5
ATOM      5  C   UNL d   1      24.447 -16.604  -1.135  0.00  0.00     0.033 A 
ATOM      6  C   UNL d   1      24.741 -17.950  -0.849  0.00  0.00     0.019 A 
ATOM      7  C   UNL d   1      23.732 -18.850  -0.410  0.00  0.00     0.030 A 
ATOM      8  C   UNL d   1      22.421 -18.399  -0.201  0.00  0.00     0.034 A 
ATOM      9  C   UNL d   1      22.155 -17.062  -0.527  0.00  0.00     0.030 A 
ATOM     10  C   UNL d   1      23.139 -16.174  -0.974  0.00  0.00     0.019 A 
BRANCH   8  11
ATOM     11  N   UNL d   1      21.414 -19.261   0.346  0.00  0.00    -0.327 N 
ATOM     12  C   UNL d   1      20.391 -19.834  -0.407  0.00  0.00     0.221 C 
ATOM     13  O   UNL d   1      20.261 -19.704  -1.623  0.00  0.00    -0.273 OA
ATOM     14  H   UNL d   1      21.406 -19.391   1.353  0.00  0.00     0.169 HD
BRANCH  12  15
ATOM     15  C   UNL d   1      19.357 -20.666   0.338  0.00  0.00     0.098 C 
ATOM     16  C   UNL d   1      19.256 -20.141   1.778  0.00  0.00     0.014 C 
ENDBRANCH  12  15
ENDBRANCH   8  11
ENDBRANCH   2   5
BRANCH   1  17
ATOM     17  N   UNL d   1      27.745 -15.342  -2.506  0.00  0.00    -0.267 N 
ATOM     18  C   UNL d   1      28.962 -15.912  -2.850  0.00  0.00     0.236 C 
ATOM     19  O   UNL d   1      29.177 -17.114  -2.692  0.00  0.00    -0.272 OA
ATOM     20  H   UNL d   1      27.517 -14.355  -2.611  0.00  0.00     0.190 HD
BRANCH  18  21
ATOM     21  C   UNL d   1      30.002 -14.952  -3.434  0.00  0.00     0.104 C 
BRANCH  21  22
ATOM     22  C   UNL d   1      29.775 -14.723  -4.938  0.00  0.00     0.009 C 
BRANCH  22  23
ATOM     23  C   UNL d   1      28.502 -13.930  -5.240  0.00  0.00     0.000 C 
BRANCH  23  24
ATOM     24  C   UNL d   1      27.426 -14.825  -5.863  0.00  0.00    -0.005 C 
ATOM     25  C   UNL d   1      26.209 -14.930  -4.957  0.00  0.00     0.005 C 
ENDBRANCH  23  24
ENDBRANCH  22  23
ENDBRANCH  21  22
ENDBRANCH  18  21
ENDBRANCH   1  17
TORSDOF 8
ENDMDL
MODEL 9
REMARK VINA RESULT:    -7.099      1.404      1.742
REMARK INTER + INTRA:         -11.017
REMARK INTER:                  -9.485
REMARK INTRA:                  -1.532
REMARK CONF_INDEPENDENT:        2.386
REMARK UNBOUND:                -1.532
REMARK  8 active torsions:
REMARK  status: ('A' for Active; 'I' for Inactive)
REMARK    1  A    between atoms: C_2  and  C_3 
REMARK    2  A    between atoms: C_3  and  C_4 
REMARK    3  A    between atoms: C_4  and  C_5 
REMARK    4  A    between atoms: C_5  and  C_6 
REMARK       I    between atoms: C_6  and  N_8 
REMARK    5  A    between atoms: N_8  and  N_9 
REMARK       I    between atoms: N_9  and  C_10 
REMARK    6  A    between atoms: C_10  and  C_12 
REMARK    7  A    between atoms: C_15  and  N_16 
REMARK       I    between atoms: N_16  and  C_17 
REMARK    8  A    between atoms: C_17  and  C_19 
ROOT
ATOM      1  N   UNL d   1      26.873 -15.765  -3.091  0.00  0.00    -0.263 N 
ATOM      2  C   UNL d   1      26.822 -15.853  -1.707  0.00  0.00     0.270 C 
ATOM      3  O   UNL d   1      27.697 -15.383  -0.973  0.00  0.00    -0.266 OA
ATOM      4  H   UNL d   1      26.126 -16.082  -3.709  0.00  0.00     0.190 HD
ENDROOT
BRANCH   2   5
ATOM      5  C   UNL d   1      25.663 -16.584  -1.101  0.00  0.00     0.033 A 
ATOM      6  C   UNL d   1      25.837 -17.731  -0.305  0.00  0.00     0.019 A 
ATOM      7  C   UNL d   1      24.724 -18.496   0.141  0.00  0.00     0.030 A 
ATOM      8  C   UNL d   1      23.417 -18.092  -0.161  0.00  0.00     0.034 A 
ATOM      9  C   UNL d   1      23.281 -16.965  -0.983  0.00  0.00     0.030 A 
ATOM     10  C   UNL d   1      24.370 -16.215  -1.440  0.00  0.00     0.019 A 
BRANCH   8  11
ATOM     11  N   UNL d   1      22.280 -18.785   0.370  0.00  0.00    -0.327 N 
ATOM     12  C   UNL d   1      21.251 -19.304  -0.414  0.00  0.00     0.221 C 
ATOM     13  O   UNL d   1      21.223 -19.267  -1.643  0.00  0.00    -0.273 OA
ATOM     14  H   UNL d   1      22.186 -18.824   1.380  0.00  0.00     0.169 HD
BRANCH  12  15
ATOM     15  C   UNL d   1      20.077 -19.946   0.309  0.00  0.00     0.098 C 
ATOM     16  C   UNL d   1      18.820 -19.781  -0.560  0.00  0.00     0.014 C 
ENDBRANCH  12  15
ENDBRANCH   8  11
ENDBRANCH   2   5
BRANCH   1  17
ATOM     17  N   UNL d   1      27.958 -15.100  -3.724  0.00  0.00    -0.267 N 
ATOM     18  C   UNL d   1      27.922 -14.936  -5.100  0.00  0.00     0.236 C 
ATOM     19  O   UNL d   1      26.974 -15.345  -5.773  0.00  0.00    -0.272 OA
ATOM     20  H   UNL d   1      28.717 -14.786  -3.123  0.00  0.00     0.190 HD
BRANCH  18  21
ATOM     21  C   UNL d   1      29.126 -14.218  -5.716  0.00  0.00     0.104 C 
BRANCH  21  22
ATOM     22  C   UNL d   1      29.725 -15.020  -6.884  0.00  0.00     0.009 C 
BRANCH  22  23
ATOM     23  C   UNL d   1      31.199 -15.374  -6.677  0.00  0.00     0.000 C 
BRANCH  23  24
ATOM     24  C   UNL d   1      32.050 -14.921  -7.867  0.00  0.00    -0.005 C 
ATOM     25  C   UNL d   1      31.532 -13.611  -8.443  0.00  0.00     0.005 C 
ENDBRANCH  23  24
ENDBRANCH  22  23
ENDBRANCH  21  22
ENDBRANCH  18  21
ENDBRANCH   1  17
TORSDOF 8
ENDMDL
