MODEL 1
REMARK VINA RESULT:    -8.554      0.000      0.000
REMARK INTER + INTRA:         -10.132
REMARK INTER:                  -9.449
REMARK INTRA:                  -0.683
REMARK CONF_INDEPENDENT:        0.895
REMARK UNBOUND:                -0.683
REMARK  3 active torsions:
REMARK  status: ('A' for Active; 'I' for Inactive)
REMARK       I    between atoms: C_2  and  N_3 
REMARK    1  A    between atoms: C_2  and  C_14 
REMARK    2  A    between atoms: N_3  and  N_4 
REMARK       I    between atoms: N_4  and  C_5 
REMARK    3  A    between atoms: C_5  and  C_7 
ROOT
ATOM      1  O   UNL d   1      24.612 -18.301   0.587  0.00  0.00    -0.266 OA
ATOM      2  C   UNL d   1      24.245 -17.541  -0.310  0.00  0.00     0.270 C 
ATOM      3  N   UNL d   1      22.910 -17.348  -0.640  0.00  0.00    -0.263 N 
ATOM      4  H   UNL d   1      22.592 -16.814  -1.447  0.00  0.00     0.190 HD
ENDROOT
BRANCH   3   5
ATOM      5  N   UNL d   1      21.902 -18.058   0.074  0.00  0.00    -0.263 N 
ATOM      6  C   UNL d   1      21.139 -19.016  -0.580  0.00  0.00     0.273 C 
ATOM      7  O   UNL d   1      21.326 -19.325  -1.759  0.00  0.00    -0.266 OA
ATOM      8  H   UNL d   1      21.784 -17.814   1.058  0.00  0.00     0.190 HD
BRANCH   6   9
ATOM      9  C   UNL d   1      20.078 -19.716   0.202  0.00  0.00     0.072 A 
ATOM     10  C   UNL d   1      19.019 -20.359  -0.463  0.00  0.00     0.020 A 
ATOM     11  C   UNL d   1      18.009 -21.011   0.264  0.00  0.00     0.001 A 
ATOM     12  C   UNL d   1      18.031 -20.999   1.658  0.00  0.00     0.003 A 
ATOM     13  C   UNL d   1      19.058 -20.331   2.324  0.00  0.00     0.043 A 
ATOM     14  C   UNL d   1      20.073 -19.699   1.596  0.00  0.00     0.132 A 
ATOM     15  F   UNL d   1      21.030 -19.052   2.275  0.00  0.00    -0.205 F 
ENDBRANCH   6   9
ENDBRANCH   3   5
BRANCH   2  16
ATOM     16  C   UNL d   1      25.270 -16.798  -1.112  0.00  0.00     0.035 A 
ATOM     17  C   UNL d   1      26.630 -16.907  -0.768  0.00  0.00     0.017 A 
ATOM     18  C   UNL d   1      27.612 -16.208  -1.485  0.00  0.00     0.003 A 
ATOM     19  C   UNL d   1      27.240 -15.365  -2.530  0.00  0.00     0.024 A 
ATOM     20  C   UNL d   1      25.889 -15.226  -2.849  0.00  0.00     0.035 A 
ATOM     21 CL   UNL d   1      25.433 -14.146  -4.112  0.00  0.00    -0.084 Cl
ATOM     22  C   UNL d   1      24.903 -15.940  -2.155  0.00  0.00     0.041 A 
ENDBRANCH   2  16
TORSDOF 3
ENDMDL
MODEL 2
REMARK VINA RESULT:    -8.062      1.093      1.529
REMARK INTER + INTRA:          -9.682
REMARK INTER:                  -8.957
REMARK INTRA:                  -0.725
REMARK CONF_INDEPENDENT:        0.895
REMARK UNBOUND:                -0.725
REMARK  3 active torsions:
REMARK  status: ('A' for Active; 'I' for Inactive)
REMARK       I    between atoms: C_2  and  N_3 
REMARK    1  A    between atoms: C_2  and  C_14 
REMARK    2  A    between atoms: N_3  and  N_4 
REMARK       I    between atoms: N_4  and  C_5 
REMARK    3  A    between atoms: C_5  and  C_7 
ROOT
ATOM      1  O   UNL d   1      24.767 -18.291   0.923  0.00  0.00    -0.266 OA
ATOM      2  C   UNL d   1      24.453 -17.616  -0.058  0.00  0.00     0.270 C 
ATOM      3  N   UNL d   1      23.140 -17.473  -0.489  0.00  0.00    -0.263 N 
ATOM      4  H   UNL d   1      22.872 -17.014  -1.359  0.00  0.00     0.190 HD
ENDROOT
BRANCH   3   5
ATOM      5  N   UNL d   1      22.094 -18.134   0.216  0.00  0.00    -0.263 N 
ATOM      6  C   UNL d   1      21.250 -19.005  -0.461  0.00  0.00     0.273 C 
ATOM      7  O   UNL d   1      21.392 -19.278  -1.655  0.00  0.00    -0.266 OA
ATOM      8  H   UNL d   1      22.013 -17.923   1.211  0.00  0.00     0.190 HD
BRANCH   6   9
ATOM      9  C   UNL d   1      20.153 -19.655   0.315  0.00  0.00     0.072 A 
ATOM     10  C   UNL d   1      20.278 -19.825   1.706  0.00  0.00     0.020 A 
ATOM     11  C   UNL d   1      19.257 -20.445   2.445  0.00  0.00     0.001 A 
ATOM     12  C   UNL d   1      18.120 -20.929   1.798  0.00  0.00     0.003 A 
ATOM     13  C   UNL d   1      18.008 -20.798   0.414  0.00  0.00     0.043 A 
ATOM     14  C   UNL d   1      19.019 -20.162  -0.316  0.00  0.00     0.132 A 
ATOM     15  F   UNL d   1      18.880 -20.075  -1.645  0.00  0.00    -0.205 F 
ENDBRANCH   6   9
ENDBRANCH   3   5
BRANCH   2  16
ATOM     16  C   UNL d   1      25.521 -16.928  -0.853  0.00  0.00     0.035 A 
ATOM     17  C   UNL d   1      26.868 -17.279  -0.650  0.00  0.00     0.017 A 
ATOM     18  C   UNL d   1      27.893 -16.640  -1.362  0.00  0.00     0.003 A 
ATOM     19  C   UNL d   1      27.584 -15.619  -2.258  0.00  0.00     0.024 A 
ATOM     20  C   UNL d   1      26.252 -15.244  -2.434  0.00  0.00     0.035 A 
ATOM     21 CL   UNL d   1      25.881 -13.949  -3.509  0.00  0.00    -0.084 Cl
ATOM     22  C   UNL d   1      25.218 -15.893  -1.746  0.00  0.00     0.041 A 
ENDBRANCH   2  16
TORSDOF 3
ENDMDL
MODEL 3
REMARK VINA RESULT:    -6.655      5.969      9.749
REMARK INTER + INTRA:          -8.737
REMARK INTER:                  -7.550
REMARK INTRA:                  -1.187
REMARK CONF_INDEPENDENT:        0.895
REMARK UNBOUND:                -1.187
REMARK  3 active torsions:
REMARK  status: ('A' for Active; 'I' for Inactive)
REMARK       I    between atoms: C_2  and  N_3 
REMARK    1  A    between atoms: C_2  and  C_14 
REMARK    2  A    between atoms: N_3  and  N_4 
REMARK       I    between atoms: N_4  and  C_5 
REMARK    3  A    between atoms: C_5  and  C_7 
ROOT
ATOM      1  O   UNL d   1      24.780 -14.825  -4.298  0.00  0.00    -0.266 OA
ATOM      2  C   UNL d   1      25.150 -14.498  -3.169  0.00  0.00     0.270 C 
ATOM      3  N   UNL d   1      25.417 -13.182  -2.812  0.00  0.00    -0.263 N 
ATOM      4  H   UNL d   1      25.829 -12.905  -1.923  0.00  0.00     0.190 HD
ENDROOT
BRANCH   3   5
ATOM      5  N   UNL d   1      25.270 -12.149  -3.782  0.00  0.00    -0.263 N 
ATOM      6  C   UNL d   1      25.779 -10.883  -3.522  0.00  0.00     0.273 C 
ATOM      7  O   UNL d   1      26.407 -10.615  -2.496  0.00  0.00    -0.266 OA
ATOM      8  H   UNL d   1      24.778 -12.398  -4.640  0.00  0.00     0.190 HD
BRANCH   6   9
ATOM      9  C   UNL d   1      25.579  -9.827  -4.557  0.00  0.00     0.072 A 
ATOM     10  C   UNL d   1      24.783  -8.702  -4.273  0.00  0.00     0.020 A 
ATOM     11  C   UNL d   1      24.579  -7.707  -5.243  0.00  0.00     0.001 A 
ATOM     12  C   UNL d   1      25.140  -7.841  -6.513  0.00  0.00     0.003 A 
ATOM     13  C   UNL d   1      25.899  -8.972  -6.813  0.00  0.00     0.043 A 
ATOM     14  C   UNL d   1      26.116  -9.952  -5.838  0.00  0.00     0.132 A 
ATOM     15  F   UNL d   1      26.834 -11.032  -6.174  0.00  0.00    -0.205 F 
ENDBRANCH   6   9
ENDBRANCH   3   5
BRANCH   2  16
ATOM     16  C   UNL d   1      25.351 -15.553  -2.124  0.00  0.00     0.035 A 
ATOM     17  C   UNL d   1      26.650 -15.825  -1.657  0.00  0.00     0.017 A 
ATOM     18  C   UNL d   1      26.874 -16.820  -0.694  0.00  0.00     0.003 A 
ATOM     19  C   UNL d   1      25.806 -17.577  -0.216  0.00  0.00     0.024 A 
ATOM     20  C   UNL d   1      24.522 -17.333  -0.705  0.00  0.00     0.035 A 
ATOM     21 CL   UNL d   1      23.214 -18.304  -0.144  0.00  0.00    -0.084 Cl
ATOM     22  C   UNL d   1      24.284 -16.325  -1.648  0.00  0.00     0.041 A 
ENDBRANCH   2  16
TORSDOF 3
ENDMDL
MODEL 4
REMARK VINA RESULT:    -6.567      5.922      9.704
REMARK INTER + INTRA:          -8.601
REMARK INTER:                  -7.462
REMARK INTRA:                  -1.139
REMARK CONF_INDEPENDENT:        0.895
REMARK UNBOUND:                -1.139
REMARK  3 active torsions:
REMARK  status: ('A' for Active; 'I' for Inactive)
REMARK       I    between atoms: C_2  and  N_3 
REMARK    1  A    between atoms: C_2  and  C_14 
REMARK    2  A    between atoms: N_3  and  N_4 
REMARK       I    between atoms: N_4  and  C_5 
REMARK    3  A    between atoms: C_5  and  C_7 
ROOT
ATOM      1  O   UNL d   1      24.783 -14.725  -4.249  0.00  0.00    -0.266 OA
ATOM      2  C   UNL d   1      25.192 -14.478  -3.113  0.00  0.00     0.270 C 
ATOM      3  N   UNL d   1      25.490 -13.192  -2.679  0.00  0.00    -0.263 N 
ATOM      4  H   UNL d   1      25.934 -12.980  -1.787  0.00  0.00     0.190 HD
ENDROOT
BRANCH   3   5
ATOM      5  N   UNL d   1      25.331 -12.095  -3.574  0.00  0.00    -0.263 N 
ATOM      6  C   UNL d   1      25.906 -10.868  -3.270  0.00  0.00     0.273 C 
ATOM      7  O   UNL d   1      26.602 -10.689  -2.268  0.00  0.00    -0.266 OA
ATOM      8  H   UNL d   1      24.780 -12.271  -4.414  0.00  0.00     0.190 HD
BRANCH   6   9
ATOM      9  C   UNL d   1      25.690  -9.742  -4.225  0.00  0.00     0.072 A 
ATOM     10  C   UNL d   1      25.724  -9.977  -5.611  0.00  0.00     0.020 A 
ATOM     11  C   UNL d   1      25.533  -8.923  -6.520  0.00  0.00     0.001 A 
ATOM     12  C   UNL d   1      25.339  -7.623  -6.054  0.00  0.00     0.003 A 
ATOM     13  C   UNL d   1      25.342  -7.378  -4.681  0.00  0.00     0.043 A 
ATOM     14  C   UNL d   1      25.514  -8.434  -3.778  0.00  0.00     0.132 A 
ATOM     15  F   UNL d   1      25.530  -8.151  -2.469  0.00  0.00    -0.205 F 
ENDBRANCH   6   9
ENDBRANCH   3   5
BRANCH   2  16
ATOM     16  C   UNL d   1      25.408 -15.602  -2.146  0.00  0.00     0.035 A 
ATOM     17  C   UNL d   1      26.720 -15.960  -1.783  0.00  0.00     0.017 A 
ATOM     18  C   UNL d   1      26.956 -17.020  -0.896  0.00  0.00     0.003 A 
ATOM     19  C   UNL d   1      25.886 -17.756  -0.392  0.00  0.00     0.024 A 
ATOM     20  C   UNL d   1      24.587 -17.427  -0.780  0.00  0.00     0.035 A 
ATOM     21 CL   UNL d   1      23.272 -18.370  -0.189  0.00  0.00    -0.084 Cl
ATOM     22  C   UNL d   1      24.338 -16.353  -1.645  0.00  0.00     0.041 A 
ENDBRANCH   2  16
TORSDOF 3
ENDMDL
MODEL 5
REMARK VINA RESULT:    -6.529      5.389      9.610
REMARK INTER + INTRA:          -8.505
REMARK INTER:                  -7.424
REMARK INTRA:                  -1.081
REMARK CONF_INDEPENDENT:        0.895
REMARK UNBOUND:                -1.081
REMARK  3 active torsions:
REMARK  status: ('A' for Active; 'I' for Inactive)
REMARK       I    between atoms: C_2  and  N_3 
REMARK    1  A    between atoms: C_2  and  C_14 
REMARK    2  A    between atoms: N_3  and  N_4 
REMARK       I    between atoms: N_4  and  C_5 
REMARK    3  A    between atoms: C_5  and  C_7 
ROOT
ATOM      1  O   UNL d   1      24.259 -14.479  -2.766  0.00  0.00    -0.266 OA
ATOM      2  C   UNL d   1      25.136 -15.328  -2.595  0.00  0.00     0.270 C 
ATOM      3  N   UNL d   1      26.331 -15.334  -3.302  0.00  0.00    -0.263 N 
ATOM      4  H   UNL d   1      27.017 -16.086  -3.257  0.00  0.00     0.190 HD
ENDROOT
BRANCH   3   5
ATOM      5  N   UNL d   1      26.573 -14.327  -4.280  0.00  0.00    -0.263 N 
ATOM      6  C   UNL d   1      27.546 -14.528  -5.250  0.00  0.00     0.273 C 
ATOM      7  O   UNL d   1      28.191 -15.575  -5.340  0.00  0.00    -0.266 OA
ATOM      8  H   UNL d   1      26.006 -13.481  -4.211  0.00  0.00     0.190 HD
BRANCH   6   9
ATOM      9  C   UNL d   1      27.781 -13.434  -6.238  0.00  0.00     0.072 A 
ATOM     10  C   UNL d   1      27.057 -12.231  -6.144  0.00  0.00     0.020 A 
ATOM     11  C   UNL d   1      27.262 -11.199  -7.075  0.00  0.00     0.001 A 
ATOM     12  C   UNL d   1      28.165 -11.371  -8.123  0.00  0.00     0.003 A 
ATOM     13  C   UNL d   1      28.858 -12.575  -8.243  0.00  0.00     0.043 A 
ATOM     14  C   UNL d   1      28.665 -13.594  -7.303  0.00  0.00     0.132 A 
ATOM     15  F   UNL d   1      29.337 -14.742  -7.467  0.00  0.00    -0.205 F 
ENDBRANCH   6   9
ENDBRANCH   3   5
BRANCH   2  16
ATOM     16  C   UNL d   1      24.914 -16.427  -1.601  0.00  0.00     0.035 A 
ATOM     17  C   UNL d   1      26.006 -16.931  -0.872  0.00  0.00     0.017 A 
ATOM     18  C   UNL d   1      25.835 -17.973   0.052  0.00  0.00     0.003 A 
ATOM     19  C   UNL d   1      24.578 -18.545   0.228  0.00  0.00     0.024 A 
ATOM     20  C   UNL d   1      23.500 -18.072  -0.521  0.00  0.00     0.035 A 
ATOM     21 CL   UNL d   1      21.957 -18.815  -0.332  0.00  0.00    -0.084 Cl
ATOM     22  C   UNL d   1      23.655 -17.014  -1.427  0.00  0.00     0.041 A 
ENDBRANCH   2  16
TORSDOF 3
ENDMDL
MODEL 6
REMARK VINA RESULT:    -6.458      5.188      9.499
REMARK INTER + INTRA:          -8.520
REMARK INTER:                  -7.353
REMARK INTRA:                  -1.167
REMARK CONF_INDEPENDENT:        0.895
REMARK UNBOUND:                -1.167
REMARK  3 active torsions:
REMARK  status: ('A' for Active; 'I' for Inactive)
REMARK       I    between atoms: C_2  and  N_3 
REMARK    1  A    between atoms: C_2  and  C_14 
REMARK    2  A    between atoms: N_3  and  N_4 
REMARK       I    between atoms: N_4  and  C_5 
REMARK    3  A    between atoms: C_5  and  C_7 
ROOT
ATOM      1  O   UNL d   1      24.287 -14.457  -2.782  0.00  0.00    -0.266 OA
ATOM      2  C   UNL d   1      25.124 -15.354  -2.670  0.00  0.00     0.270 C 
ATOM      3  N   UNL d   1      26.277 -15.413  -3.443  0.00  0.00    -0.263 N 
ATOM      4  H   UNL d   1      26.922 -16.202  -3.445  0.00  0.00     0.190 HD
ENDROOT
BRANCH   3   5
ATOM      5  N   UNL d   1      26.519 -14.405  -4.420  0.00  0.00    -0.263 N 
ATOM      6  C   UNL d   1      27.552 -14.566  -5.334  0.00  0.00     0.273 C 
ATOM      7  O   UNL d   1      28.254 -15.579  -5.375  0.00  0.00    -0.266 OA
ATOM      8  H   UNL d   1      25.907 -13.590  -4.392  0.00  0.00     0.190 HD
BRANCH   6   9
ATOM      9  C   UNL d   1      27.784 -13.471  -6.322  0.00  0.00     0.072 A 
ATOM     10  C   UNL d   1      28.643 -13.679  -7.416  0.00  0.00     0.020 A 
ATOM     11  C   UNL d   1      28.876 -12.653  -8.347  0.00  0.00     0.001 A 
ATOM     12  C   UNL d   1      28.282 -11.404  -8.175  0.00  0.00     0.003 A 
ATOM     13  C   UNL d   1      27.460 -11.179  -7.071  0.00  0.00     0.043 A 
ATOM     14  C   UNL d   1      27.214 -12.210  -6.156  0.00  0.00     0.132 A 
ATOM     15  F   UNL d   1      26.434 -11.947  -5.100  0.00  0.00    -0.205 F 
ENDBRANCH   6   9
ENDBRANCH   3   5
BRANCH   2  16
ATOM     16  C   UNL d   1      24.897 -16.455  -1.680  0.00  0.00     0.035 A 
ATOM     17  C   UNL d   1      25.973 -16.915  -0.898  0.00  0.00     0.017 A 
ATOM     18  C   UNL d   1      25.799 -17.957   0.024  0.00  0.00     0.003 A 
ATOM     19  C   UNL d   1      24.556 -18.574   0.147  0.00  0.00     0.024 A 
ATOM     20  C   UNL d   1      23.497 -18.145  -0.653  0.00  0.00     0.035 A 
ATOM     21 CL   UNL d   1      21.975 -18.944  -0.529  0.00  0.00    -0.084 Cl
ATOM     22  C   UNL d   1      23.654 -17.088  -1.559  0.00  0.00     0.041 A 
ENDBRANCH   2  16
TORSDOF 3
ENDMDL
MODEL 7
REMARK VINA RESULT:    -6.123      3.621      8.174
REMARK INTER + INTRA:          -8.179
REMARK INTER:                  -7.018
REMARK INTRA:                  -1.161
REMARK CONF_INDEPENDENT:        0.895
REMARK UNBOUND:                -1.161
REMARK  3 active torsions:
REMARK  status: ('A' for Active; 'I' for Inactive)
REMARK       I    between atoms: C_2  and  N_3 
REMARK    1  A    between atoms: C_2  and  C_14 
REMARK    2  A    between atoms: N_3  and  N_4 
REMARK       I    between atoms: N_4  and  C_5 
REMARK    3  A    between atoms: C_5  and  C_7 
ROOT
ATOM      1  O   UNL d   1      23.735 -18.572   0.968  0.00  0.00    -0.266 OA
ATOM      2  C   UNL d   1      22.967 -18.249   0.060  0.00  0.00     0.270 C 
ATOM      3  N   UNL d   1      23.309 -17.339  -0.932  0.00  0.00    -0.263 N 
ATOM      4  H   UNL d   1      22.655 -16.975  -1.623  0.00  0.00     0.190 HD
ENDROOT
BRANCH   3   5
ATOM      5  N   UNL d   1      24.598 -16.732  -0.913  0.00  0.00    -0.263 N 
ATOM      6  C   UNL d   1      24.854 -15.633  -1.722  0.00  0.00     0.273 C 
ATOM      7  O   UNL d   1      23.991 -15.113  -2.433  0.00  0.00    -0.266 OA
ATOM      8  H   UNL d   1      25.289 -17.154  -0.293  0.00  0.00     0.190 HD
BRANCH   6   9
ATOM      9  C   UNL d   1      26.226 -15.047  -1.687  0.00  0.00     0.072 A 
ATOM     10  C   UNL d   1      26.789 -14.641  -0.463  0.00  0.00     0.020 A 
ATOM     11  C   UNL d   1      28.076 -14.079  -0.420  0.00  0.00     0.001 A 
ATOM     12  C   UNL d   1      28.796 -13.888  -1.598  0.00  0.00     0.003 A 
ATOM     13  C   UNL d   1      28.228 -14.252  -2.818  0.00  0.00     0.043 A 
ATOM     14  C   UNL d   1      26.954 -14.830  -2.856  0.00  0.00     0.132 A 
ATOM     15  F   UNL d   1      26.438 -15.148  -4.050  0.00  0.00    -0.205 F 
ENDBRANCH   6   9
ENDBRANCH   3   5
BRANCH   2  16
ATOM     16  C   UNL d   1      21.589 -18.834   0.016  0.00  0.00     0.035 A 
ATOM     17  C   UNL d   1      20.866 -18.814  -1.191  0.00  0.00     0.017 A 
ATOM     18  C   UNL d   1      19.566 -19.336  -1.260  0.00  0.00     0.003 A 
ATOM     19  C   UNL d   1      18.963 -19.850  -0.115  0.00  0.00     0.024 A 
ATOM     20  C   UNL d   1      19.663 -19.837   1.092  0.00  0.00     0.035 A 
ATOM     21 CL   UNL d   1      18.893 -20.432   2.514  0.00  0.00    -0.084 Cl
ATOM     22  C   UNL d   1      20.971 -19.342   1.166  0.00  0.00     0.041 A 
ENDBRANCH   2  16
TORSDOF 3
ENDMDL
MODEL 8
REMARK VINA RESULT:    -5.931      5.800      8.012
REMARK INTER + INTRA:          -8.008
REMARK INTER:                  -6.826
REMARK INTRA:                  -1.183
REMARK CONF_INDEPENDENT:        0.895
REMARK UNBOUND:                -1.183
REMARK  3 active torsions:
REMARK  status: ('A' for Active; 'I' for Inactive)
REMARK       I    between atoms: C_2  and  N_3 
REMARK    1  A    between atoms: C_2  and  C_14 
REMARK    2  A    between atoms: N_3  and  N_4 
REMARK       I    between atoms: N_4  and  C_5 
REMARK    3  A    between atoms: C_5  and  C_7 
ROOT
ATOM      1  O   UNL d   1      26.540 -10.477  -2.726  0.00  0.00    -0.266 OA
ATOM      2  C   UNL d   1      25.830 -10.767  -3.690  0.00  0.00     0.270 C 
ATOM      3  N   UNL d   1      25.273 -12.027  -3.867  0.00  0.00    -0.263 N 
ATOM      4  H   UNL d   1      24.779 -12.319  -4.709  0.00  0.00     0.190 HD
ENDROOT
BRANCH   3   5
ATOM      5  N   UNL d   1      25.527 -13.047  -2.906  0.00  0.00    -0.263 N 
ATOM      6  C   UNL d   1      25.223 -14.369  -3.207  0.00  0.00     0.273 C 
ATOM      7  O   UNL d   1      24.780 -14.717  -4.304  0.00  0.00    -0.266 OA
ATOM      8  H   UNL d   1      25.926 -12.745  -2.017  0.00  0.00     0.190 HD
BRANCH   6   9
ATOM      9  C   UNL d   1      25.483 -15.399  -2.160  0.00  0.00     0.072 A 
ATOM     10  C   UNL d   1      24.453 -16.266  -1.751  0.00  0.00     0.020 A 
ATOM     11  C   UNL d   1      24.684 -17.232  -0.758  0.00  0.00     0.001 A 
ATOM     12  C   UNL d   1      25.932 -17.320  -0.143  0.00  0.00     0.003 A 
ATOM     13  C   UNL d   1      26.946 -16.438  -0.517  0.00  0.00     0.043 A 
ATOM     14  C   UNL d   1      26.718 -15.490  -1.520  0.00  0.00     0.132 A 
ATOM     15  F   UNL d   1      27.713 -14.650  -1.835  0.00  0.00    -0.205 F 
ENDBRANCH   6   9
ENDBRANCH   3   5
BRANCH   2  16
ATOM     16  C   UNL d   1      25.562  -9.737  -4.745  0.00  0.00     0.035 A 
ATOM     17  C   UNL d   1      26.428  -9.635  -5.849  0.00  0.00     0.017 A 
ATOM     18  C   UNL d   1      26.216  -8.668  -6.843  0.00  0.00     0.003 A 
ATOM     19  C   UNL d   1      25.157  -7.772  -6.724  0.00  0.00     0.024 A 
ATOM     20  C   UNL d   1      24.317  -7.847  -5.612  0.00  0.00     0.035 A 
ATOM     21 CL   UNL d   1      23.037  -6.705  -5.448  0.00  0.00    -0.084 Cl
ATOM     22  C   UNL d   1      24.506  -8.825  -4.626  0.00  0.00     0.041 A 
ENDBRANCH   2  16
TORSDOF 3
ENDMDL
MODEL 9
REMARK VINA RESULT:    -5.864      4.615      6.503
REMARK INTER + INTRA:          -7.864
REMARK INTER:                  -6.758
REMARK INTRA:                  -1.105
REMARK CONF_INDEPENDENT:        0.895
REMARK UNBOUND:                -1.105
REMARK  3 active torsions:
REMARK  status: ('A' for Active; 'I' for Inactive)
REMARK       I    between atoms: C_2  and  N_3 
REMARK    1  A    between atoms: C_2  and  C_14 
REMARK    2  A    between atoms: N_3  and  N_4 
REMARK       I    between atoms: N_4  and  C_5 
REMARK    3  A    between atoms: C_5  and  C_7 
ROOT
ATOM      1  O   UNL d   1      28.025 -15.684  -5.405  0.00  0.00    -0.266 OA
ATOM      2  C   UNL d   1      27.484 -14.590  -5.236  0.00  0.00     0.270 C 
ATOM      3  N   UNL d   1      26.591 -14.340  -4.202  0.00  0.00    -0.263 N 
ATOM      4  H   UNL d   1      26.050 -13.482  -4.111  0.00  0.00     0.190 HD
ENDROOT
BRANCH   3   5
ATOM      5  N   UNL d   1      26.266 -15.384  -3.288  0.00  0.00    -0.263 N 
ATOM      6  C   UNL d   1      25.064 -15.342  -2.594  0.00  0.00     0.273 C 
ATOM      7  O   UNL d   1      24.225 -14.455  -2.767  0.00  0.00    -0.266 OA
ATOM      8  H   UNL d   1      26.957 -16.127  -3.183  0.00  0.00     0.190 HD
BRANCH   6   9
ATOM      9  C   UNL d   1      24.778 -16.444  -1.629  0.00  0.00     0.072 A 
ATOM     10  C   UNL d   1      23.452 -16.737  -1.265  0.00  0.00     0.020 A 
ATOM     11  C   UNL d   1      23.172 -17.765  -0.350  0.00  0.00     0.001 A 
ATOM     12  C   UNL d   1      24.213 -18.486   0.233  0.00  0.00     0.003 A 
ATOM     13  C   UNL d   1      25.532 -18.175  -0.095  0.00  0.00     0.043 A 
ATOM     14  C   UNL d   1      25.806 -17.163  -1.022  0.00  0.00     0.132 A 
ATOM     15  F   UNL d   1      27.088 -16.883  -1.294  0.00  0.00    -0.205 F 
ENDBRANCH   6   9
ENDBRANCH   3   5
BRANCH   2  16
ATOM     16  C   UNL d   1      27.769 -13.471  -6.190  0.00  0.00     0.035 A 
ATOM     17  C   UNL d   1      28.805 -13.611  -7.132  0.00  0.00     0.017 A 
ATOM     18  C   UNL d   1      29.110 -12.574  -8.026  0.00  0.00     0.003 A 
ATOM     19  C   UNL d   1      28.406 -11.374  -7.963  0.00  0.00     0.024 A 
ATOM     20  C   UNL d   1      27.403 -11.218  -7.006  0.00  0.00     0.035 A 
ATOM     21 CL   UNL d   1      26.568  -9.715  -6.903  0.00  0.00    -0.084 Cl
ATOM     22  C   UNL d   1      27.073 -12.257  -6.125  0.00  0.00     0.041 A 
ENDBRANCH   2  16
TORSDOF 3
ENDMDL
