MODEL 1
REMARK VINA RESULT:    -8.475      0.000      0.000
REMARK INTER + INTRA:         -12.900
REMARK INTER:                 -11.160
REMARK INTRA:                  -1.740
REMARK CONF_INDEPENDENT:        2.685
REMARK UNBOUND:                -1.740
REMARK  9 active torsions:
REMARK  status: ('A' for Active; 'I' for Inactive)
REMARK    1  A    between atoms: C_2  and  C_3 
REMARK    2  A    between atoms: C_3  and  C_4 
REMARK    3  A    between atoms: C_4  and  N_5 
REMARK       I    between atoms: N_5  and  C_6 
REMARK       I    between atoms: C_6  and  N_8 
REMARK    4  A    between atoms: N_8  and  N_9 
REMARK       I    between atoms: N_9  and  C_10 
REMARK    5  A    between atoms: C_12  and  C_10 
REMARK    6  A    between atoms: C_12  and  O_14 
REMARK    7  A    between atoms: O_14  and  C_15 
REMARK    8  A    between atoms: C_18  and  O_19 
REMARK    9  A    between atoms: O_19  and  C_20 
ROOT
ATOM      1  N   UNL d   1      23.911 -17.585  -0.236  0.00  0.00    -0.264 N 
ATOM      2  C   UNL d   1      25.262 -17.677   0.096  0.00  0.00     0.265 C 
ATOM      3  O   UNL d   1      25.673 -18.580   0.832  0.00  0.00    -0.269 OA
ATOM      4  H   UNL d   1      23.581 -16.926  -0.943  0.00  0.00     0.190 HD
ENDROOT
BRANCH   2   5
ATOM      5  C   UNL d   1      26.270 -16.621  -0.528  0.00  0.00     0.218 C 
ATOM      6  C   UNL d   1      27.240 -16.236   0.606  0.00  0.00     0.050 C 
BRANCH   5   7
ATOM      7  O   UNL d   1      25.876 -15.419  -1.187  0.00  0.00    -0.337 OA
BRANCH   7   8
ATOM      8  C   UNL d   1      26.382 -15.168  -2.435  0.00  0.00     0.070 C 
ATOM      9  C   UNL d   1      25.494 -14.843  -3.458  0.00  0.00     0.039 C 
ATOM     10  C   UNL d   1      25.933 -14.836  -4.797  0.00  0.00     0.039 C 
ATOM     11  C   UNL d   1      27.243 -15.205  -5.121  0.00  0.00     0.068 C 
ATOM     12  C   UNL d   1      28.104 -15.530  -4.092  0.00  0.00     0.039 C 
ATOM     13  C   UNL d   1      27.713 -15.345  -2.778  0.00  0.00     0.039 C 
BRANCH  11  14
ATOM     14  O   UNL d   1      27.631 -15.151  -6.433  0.00  0.00    -0.352 OA
BRANCH  14  15
ATOM     15  C   UNL d   1      28.536 -14.083  -6.757  0.00  0.00     0.171 C 
ATOM     16  C   UNL d   1      29.939 -14.637  -6.861  0.00  0.00     0.034 C 
ENDBRANCH  14  15
ENDBRANCH  11  14
ENDBRANCH   7   8
ENDBRANCH   5   7
ENDBRANCH   2   5
BRANCH   1  17
ATOM     17  N   UNL d   1      23.084 -18.751  -0.093  0.00  0.00    -0.249 N 
ATOM     18  C   UNL d   1      21.744 -18.687  -0.465  0.00  0.00     0.334 C 
ATOM     19  N   UNL d   1      20.987 -19.745   0.006  0.00  0.00    -0.342 N 
ATOM     20  O   UNL d   1      21.272 -17.770  -1.111  0.00  0.00    -0.246 OA
ATOM     21  H   UNL d   1      21.416 -20.420   0.620  0.00  0.00     0.164 HD
ATOM     22  H   UNL d   1      23.510 -19.550   0.359  0.00  0.00     0.192 HD
BRANCH  19  23
ATOM     23  C   UNL d   1      19.533 -19.772  -0.163  0.00  0.00     0.124 C 
BRANCH  23  24
ATOM     24  C   UNL d   1      18.859 -20.910   0.612  0.00  0.00     0.019 C 
BRANCH  24  25
ATOM     25  C   UNL d   1      18.651 -20.564   2.092  0.00  0.00    -0.003 C 
ATOM     26  C   UNL d   1      19.944 -20.076   2.736  0.00  0.00     0.005 C 
ENDBRANCH  24  25
ENDBRANCH  23  24
ENDBRANCH  19  23
ENDBRANCH   1  17
TORSDOF 9
ENDMDL
MODEL 2
REMARK VINA RESULT:    -8.109      0.448      1.177
REMARK INTER + INTRA:         -12.650
REMARK INTER:                 -10.794
REMARK INTRA:                  -1.856
REMARK CONF_INDEPENDENT:        2.685
REMARK UNBOUND:                -1.856
REMARK  9 active torsions:
REMARK  status: ('A' for Active; 'I' for Inactive)
REMARK    1  A    between atoms: C_2  and  C_3 
REMARK    2  A    between atoms: C_3  and  C_4 
REMARK    3  A    between atoms: C_4  and  N_5 
REMARK       I    between atoms: N_5  and  C_6 
REMARK       I    between atoms: C_6  and  N_8 
REMARK    4  A    between atoms: N_8  and  N_9 
REMARK       I    between atoms: N_9  and  C_10 
REMARK    5  A    between atoms: C_12  and  C_10 
REMARK    6  A    between atoms: C_12  and  O_14 
REMARK    7  A    between atoms: O_14  and  C_15 
REMARK    8  A    between atoms: C_18  and  O_19 
REMARK    9  A    between atoms: O_19  and  C_20 
ROOT
ATOM      1  N   UNL d   1      24.154 -17.477  -0.041  0.00  0.00    -0.264 N 
ATOM      2  C   UNL d   1      25.498 -17.643   0.286  0.00  0.00     0.265 C 
ATOM      3  O   UNL d   1      25.865 -18.575   1.009  0.00  0.00    -0.269 OA
ATOM      4  H   UNL d   1      23.856 -16.794  -0.738  0.00  0.00     0.190 HD
ENDROOT
BRANCH   2   5
ATOM      5  C   UNL d   1      26.558 -16.631  -0.328  0.00  0.00     0.218 C 
ATOM      6  C   UNL d   1      27.377 -16.098   0.864  0.00  0.00     0.050 C 
BRANCH   5   7
ATOM      7  O   UNL d   1      26.227 -15.519  -1.157  0.00  0.00    -0.337 OA
BRANCH   7   8
ATOM      8  C   UNL d   1      26.510 -15.603  -2.495  0.00  0.00     0.070 C 
ATOM      9  C   UNL d   1      27.844 -15.689  -2.887  0.00  0.00     0.039 C 
ATOM     10  C   UNL d   1      28.194 -15.514  -4.241  0.00  0.00     0.039 C 
ATOM     11  C   UNL d   1      27.220 -15.200  -5.195  0.00  0.00     0.068 C 
ATOM     12  C   UNL d   1      25.906 -15.113  -4.784  0.00  0.00     0.039 C 
ATOM     13  C   UNL d   1      25.559 -15.477  -3.495  0.00  0.00     0.039 C 
BRANCH  11  14
ATOM     14  O   UNL d   1      27.605 -15.071  -6.502  0.00  0.00    -0.352 OA
BRANCH  14  15
ATOM     15  C   UNL d   1      28.687 -14.152  -6.731  0.00  0.00     0.171 C 
ATOM     16  C   UNL d   1      28.175 -12.737  -6.574  0.00  0.00     0.034 C 
ENDBRANCH  14  15
ENDBRANCH  11  14
ENDBRANCH   7   8
ENDBRANCH   5   7
ENDBRANCH   2   5
BRANCH   1  17
ATOM     17  N   UNL d   1      23.268 -18.602   0.089  0.00  0.00    -0.249 N 
ATOM     18  C   UNL d   1      21.961 -18.500  -0.380  0.00  0.00     0.334 C 
ATOM     19  N   UNL d   1      21.128 -19.505   0.078  0.00  0.00    -0.342 N 
ATOM     20  O   UNL d   1      21.576 -17.592  -1.094  0.00  0.00    -0.246 OA
ATOM     21  H   UNL d   1      21.484 -20.169   0.748  0.00  0.00     0.164 HD
ATOM     22  H   UNL d   1      23.627 -19.398   0.602  0.00  0.00     0.192 HD
BRANCH  19  23
ATOM     23  C   UNL d   1      19.689 -19.480  -0.193  0.00  0.00     0.124 C 
BRANCH  23  24
ATOM     24  C   UNL d   1      18.965 -20.739   0.296  0.00  0.00     0.019 C 
BRANCH  24  25
ATOM     25  C   UNL d   1      18.433 -20.586   1.727  0.00  0.00    -0.003 C 
ATOM     26  C   UNL d   1      19.571 -20.449   2.731  0.00  0.00     0.005 C 
ENDBRANCH  24  25
ENDBRANCH  23  24
ENDBRANCH  19  23
ENDBRANCH   1  17
TORSDOF 9
ENDMDL
MODEL 3
REMARK VINA RESULT:    -7.930      1.630      1.876
REMARK INTER + INTRA:         -12.326
REMARK INTER:                 -10.614
REMARK INTRA:                  -1.711
REMARK CONF_INDEPENDENT:        2.685
REMARK UNBOUND:                -1.711
REMARK  9 active torsions:
REMARK  status: ('A' for Active; 'I' for Inactive)
REMARK    1  A    between atoms: C_2  and  C_3 
REMARK    2  A    between atoms: C_3  and  C_4 
REMARK    3  A    between atoms: C_4  and  N_5 
REMARK       I    between atoms: N_5  and  C_6 
REMARK       I    between atoms: C_6  and  N_8 
REMARK    4  A    between atoms: N_8  and  N_9 
REMARK       I    between atoms: N_9  and  C_10 
REMARK    5  A    between atoms: C_12  and  C_10 
REMARK    6  A    between atoms: C_12  and  O_14 
REMARK    7  A    between atoms: O_14  and  C_15 
REMARK    8  A    between atoms: C_18  and  O_19 
REMARK    9  A    between atoms: O_19  and  C_20 
ROOT
ATOM      1  N   UNL d   1      23.289 -17.644  -0.533  0.00  0.00    -0.264 N 
ATOM      2  C   UNL d   1      24.679 -17.652  -0.630  0.00  0.00     0.265 C 
ATOM      3  O   UNL d   1      25.343 -18.571  -0.138  0.00  0.00    -0.269 OA
ATOM      4  H   UNL d   1      22.724 -16.963  -1.044  0.00  0.00     0.190 HD
ENDROOT
BRANCH   2   5
ATOM      5  C   UNL d   1      25.392 -16.476  -1.424  0.00  0.00     0.218 C 
ATOM      6  C   UNL d   1      26.145 -15.644  -0.368  0.00  0.00     0.050 C 
BRANCH   5   7
ATOM      7  O   UNL d   1      24.721 -15.566  -2.294  0.00  0.00    -0.337 OA
BRANCH   7   8
ATOM      8  C   UNL d   1      25.482 -14.755  -3.094  0.00  0.00     0.070 C 
ATOM      9  C   UNL d   1      25.155 -13.403  -3.171  0.00  0.00     0.039 C 
ATOM     10  C   UNL d   1      25.734 -12.594  -4.169  0.00  0.00     0.039 C 
ATOM     11  C   UNL d   1      26.598 -13.144  -5.121  0.00  0.00     0.068 C 
ATOM     12  C   UNL d   1      26.904 -14.486  -5.029  0.00  0.00     0.039 C 
ATOM     13  C   UNL d   1      26.481 -15.219  -3.935  0.00  0.00     0.039 C 
BRANCH  11  14
ATOM     14  O   UNL d   1      27.161 -12.310  -6.050  0.00  0.00    -0.352 OA
BRANCH  14  15
ATOM     15  C   UNL d   1      26.440 -11.089  -6.289  0.00  0.00     0.171 C 
ATOM     16  C   UNL d   1      26.595 -10.699  -7.742  0.00  0.00     0.034 C 
ENDBRANCH  14  15
ENDBRANCH  11  14
ENDBRANCH   7   8
ENDBRANCH   5   7
ENDBRANCH   2   5
BRANCH   1  17
ATOM     17  N   UNL d   1      22.608 -18.880  -0.261  0.00  0.00    -0.249 N 
ATOM     18  C   UNL d   1      21.256 -18.999  -0.574  0.00  0.00     0.334 C 
ATOM     19  N   UNL d   1      20.645 -20.092   0.014  0.00  0.00    -0.342 N 
ATOM     20  O   UNL d   1      20.658 -18.197  -1.268  0.00  0.00    -0.246 OA
ATOM     21  H   UNL d   1      21.172 -20.660   0.658  0.00  0.00     0.164 HD
ATOM     22  H   UNL d   1      23.140 -19.586   0.233  0.00  0.00     0.192 HD
BRANCH  19  23
ATOM     23  C   UNL d   1      19.199 -20.296  -0.086  0.00  0.00     0.124 C 
BRANCH  23  24
ATOM     24  C   UNL d   1      18.636 -21.161   1.047  0.00  0.00     0.019 C 
BRANCH  24  25
ATOM     25  C   UNL d   1      18.625 -20.424   2.393  0.00  0.00    -0.003 C 
ATOM     26  C   UNL d   1      20.037 -20.076   2.847  0.00  0.00     0.005 C 
ENDBRANCH  24  25
ENDBRANCH  23  24
ENDBRANCH  19  23
ENDBRANCH   1  17
TORSDOF 9
ENDMDL
MODEL 4
REMARK VINA RESULT:    -7.785      4.418      9.323
REMARK INTER + INTRA:         -12.064
REMARK INTER:                 -10.469
REMARK INTRA:                  -1.594
REMARK CONF_INDEPENDENT:        2.685
REMARK UNBOUND:                -1.594
REMARK  9 active torsions:
REMARK  status: ('A' for Active; 'I' for Inactive)
REMARK    1  A    between atoms: C_2  and  C_3 
REMARK    2  A    between atoms: C_3  and  C_4 
REMARK    3  A    between atoms: C_4  and  N_5 
REMARK       I    between atoms: N_5  and  C_6 
REMARK       I    between atoms: C_6  and  N_8 
REMARK    4  A    between atoms: N_8  and  N_9 
REMARK       I    between atoms: N_9  and  C_10 
REMARK    5  A    between atoms: C_12  and  C_10 
REMARK    6  A    between atoms: C_12  and  O_14 
REMARK    7  A    between atoms: O_14  and  C_15 
REMARK    8  A    between atoms: C_18  and  O_19 
REMARK    9  A    between atoms: O_19  and  C_20 
ROOT
ATOM      1  N   UNL d   1      25.450 -12.860  -2.702  0.00  0.00    -0.264 N 
ATOM      2  C   UNL d   1      25.330 -14.247  -2.763  0.00  0.00     0.265 C 
ATOM      3  O   UNL d   1      24.780 -14.794  -3.725  0.00  0.00    -0.269 OA
ATOM      4  H   UNL d   1      26.014 -12.406  -1.982  0.00  0.00     0.190 HD
ENDROOT
BRANCH   2   5
ATOM      5  C   UNL d   1      25.955 -15.114  -1.589  0.00  0.00     0.218 C 
ATOM      6  C   UNL d   1      26.684 -16.290  -2.269  0.00  0.00     0.050 C 
BRANCH   5   7
ATOM      7  O   UNL d   1      25.212 -15.642  -0.491  0.00  0.00    -0.337 OA
BRANCH   7   8
ATOM      8  C   UNL d   1      24.320 -16.652  -0.740  0.00  0.00     0.070 C 
ATOM      9  C   UNL d   1      22.975 -16.325  -0.899  0.00  0.00     0.039 C 
ATOM     10  C   UNL d   1      21.998 -17.340  -0.894  0.00  0.00     0.039 C 
ATOM     11  C   UNL d   1      22.355 -18.674  -0.676  0.00  0.00     0.068 C 
ATOM     12  C   UNL d   1      23.692 -18.975  -0.514  0.00  0.00     0.039 C 
ATOM     13  C   UNL d   1      24.650 -17.997  -0.714  0.00  0.00     0.039 C 
BRANCH  11  14
ATOM     14  O   UNL d   1      21.373 -19.627  -0.711  0.00  0.00    -0.352 OA
BRANCH  14  15
ATOM     15  C   UNL d   1      20.030 -19.120  -0.648  0.00  0.00     0.171 C 
ATOM     16  C   UNL d   1      19.323 -19.737   0.538  0.00  0.00     0.034 C 
ENDBRANCH  14  15
ENDBRANCH  11  14
ENDBRANCH   7   8
ENDBRANCH   5   7
ENDBRANCH   2   5
BRANCH   1  17
ATOM     17  N   UNL d   1      25.339 -12.103  -3.919  0.00  0.00    -0.249 N 
ATOM     18  C   UNL d   1      25.971 -10.867  -4.015  0.00  0.00     0.334 C 
ATOM     19  N   UNL d   1      25.538 -10.104  -5.085  0.00  0.00    -0.342 N 
ATOM     20  O   UNL d   1      26.800 -10.476  -3.213  0.00  0.00    -0.246 OA
ATOM     21  H   UNL d   1      24.778 -10.443  -5.653  0.00  0.00     0.164 HD
ATOM     22  H   UNL d   1      24.721 -12.481  -4.627  0.00  0.00     0.192 HD
BRANCH  19  23
ATOM     23  C   UNL d   1      25.987  -8.721  -5.261  0.00  0.00     0.124 C 
BRANCH  23  24
ATOM     24  C   UNL d   1      24.916  -7.819  -5.885  0.00  0.00     0.019 C 
BRANCH  24  25
ATOM     25  C   UNL d   1      23.493  -8.283  -5.547  0.00  0.00    -0.003 C 
ATOM     26  C   UNL d   1      22.545  -7.100  -5.393  0.00  0.00     0.005 C 
ENDBRANCH  24  25
ENDBRANCH  23  24
ENDBRANCH  19  23
ENDBRANCH   1  17
TORSDOF 9
ENDMDL
MODEL 5
REMARK VINA RESULT:    -7.507      3.716      8.341
REMARK INTER + INTRA:         -12.005
REMARK INTER:                 -10.192
REMARK INTRA:                  -1.813
REMARK CONF_INDEPENDENT:        2.685
REMARK UNBOUND:                -1.813
REMARK  9 active torsions:
REMARK  status: ('A' for Active; 'I' for Inactive)
REMARK    1  A    between atoms: C_2  and  C_3 
REMARK    2  A    between atoms: C_3  and  C_4 
REMARK    3  A    between atoms: C_4  and  N_5 
REMARK       I    between atoms: N_5  and  C_6 
REMARK       I    between atoms: C_6  and  N_8 
REMARK    4  A    between atoms: N_8  and  N_9 
REMARK       I    between atoms: N_9  and  C_10 
REMARK    5  A    between atoms: C_12  and  C_10 
REMARK    6  A    between atoms: C_12  and  O_14 
REMARK    7  A    between atoms: O_14  and  C_15 
REMARK    8  A    between atoms: C_18  and  O_19 
REMARK    9  A    between atoms: O_19  and  C_20 
ROOT
ATOM      1  N   UNL d   1      27.552 -15.116   0.322  0.00  0.00    -0.264 N 
ATOM      2  C   UNL d   1      27.365 -16.160  -0.582  0.00  0.00     0.265 C 
ATOM      3  O   UNL d   1      28.002 -17.213  -0.473  0.00  0.00    -0.269 OA
ATOM      4  H   UNL d   1      26.942 -14.296   0.321  0.00  0.00     0.190 HD
ENDROOT
BRANCH   2   5
ATOM      5  C   UNL d   1      26.284 -15.985  -1.732  0.00  0.00     0.218 C 
ATOM      6  C   UNL d   1      26.898 -15.000  -2.746  0.00  0.00     0.050 C 
BRANCH   5   7
ATOM      7  O   UNL d   1      24.930 -15.594  -1.515  0.00  0.00    -0.337 OA
BRANCH   7   8
ATOM      8  C   UNL d   1      24.051 -16.537  -1.051  0.00  0.00     0.070 C 
ATOM      9  C   UNL d   1      24.517 -17.834  -0.846  0.00  0.00     0.039 C 
ATOM     10  C   UNL d   1      23.603 -18.884  -0.626  0.00  0.00     0.039 C 
ATOM     11  C   UNL d   1      22.224 -18.651  -0.663  0.00  0.00     0.068 C 
ATOM     12  C   UNL d   1      21.785 -17.360  -0.873  0.00  0.00     0.039 C 
ATOM     13  C   UNL d   1      22.692 -16.315  -0.894  0.00  0.00     0.039 C 
BRANCH  11  14
ATOM     14  O   UNL d   1      21.378 -19.698  -0.411  0.00  0.00    -0.352 OA
BRANCH  14  15
ATOM     15  C   UNL d   1      20.037 -19.527  -0.897  0.00  0.00     0.171 C 
ATOM     16  C   UNL d   1      19.068 -20.102   0.111  0.00  0.00     0.034 C 
ENDBRANCH  14  15
ENDBRANCH  11  14
ENDBRANCH   7   8
ENDBRANCH   5   7
ENDBRANCH   2   5
BRANCH   1  17
ATOM     17  N   UNL d   1      28.136 -15.407   1.603  0.00  0.00    -0.249 N 
ATOM     18  C   UNL d   1      28.080 -14.450   2.612  0.00  0.00     0.334 C 
ATOM     19  N   UNL d   1      28.936 -14.707   3.668  0.00  0.00    -0.342 N 
ATOM     20  O   UNL d   1      27.374 -13.459   2.556  0.00  0.00    -0.246 OA
ATOM     21  H   UNL d   1      29.567 -15.491   3.607  0.00  0.00     0.164 HD
ATOM     22  H   UNL d   1      28.642 -16.280   1.676  0.00  0.00     0.192 HD
BRANCH  19  23
ATOM     23  C   UNL d   1      29.118 -13.738   4.751  0.00  0.00     0.124 C 
BRANCH  23  24
ATOM     24  C   UNL d   1      27.962 -13.741   5.758  0.00  0.00     0.019 C 
BRANCH  24  25
ATOM     25  C   UNL d   1      27.788 -12.381   6.448  0.00  0.00    -0.003 C 
ATOM     26  C   UNL d   1      28.142 -11.233   5.510  0.00  0.00     0.005 C 
ENDBRANCH  24  25
ENDBRANCH  23  24
ENDBRANCH  19  23
ENDBRANCH   1  17
TORSDOF 9
ENDMDL
MODEL 6
REMARK VINA RESULT:    -7.487      2.634      5.291
REMARK INTER + INTRA:         -11.837
REMARK INTER:                 -10.172
REMARK INTRA:                  -1.665
REMARK CONF_INDEPENDENT:        2.685
REMARK UNBOUND:                -1.665
REMARK  9 active torsions:
REMARK  status: ('A' for Active; 'I' for Inactive)
REMARK    1  A    between atoms: C_2  and  C_3 
REMARK    2  A    between atoms: C_3  and  C_4 
REMARK    3  A    between atoms: C_4  and  N_5 
REMARK       I    between atoms: N_5  and  C_6 
REMARK       I    between atoms: C_6  and  N_8 
REMARK    4  A    between atoms: N_8  and  N_9 
REMARK       I    between atoms: N_9  and  C_10 
REMARK    5  A    between atoms: C_12  and  C_10 
REMARK    6  A    between atoms: C_12  and  O_14 
REMARK    7  A    between atoms: O_14  and  C_15 
REMARK    8  A    between atoms: C_18  and  O_19 
REMARK    9  A    between atoms: O_19  and  C_20 
ROOT
ATOM      1  N   UNL d   1      23.391 -17.363  -0.329  0.00  0.00    -0.264 N 
ATOM      2  C   UNL d   1      24.781 -17.294  -0.252  0.00  0.00     0.265 C 
ATOM      3  O   UNL d   1      25.429 -18.182   0.311  0.00  0.00    -0.269 OA
ATOM      4  H   UNL d   1      22.856 -16.707  -0.901  0.00  0.00     0.190 HD
ENDROOT
BRANCH   2   5
ATOM      5  C   UNL d   1      25.518 -16.069  -0.943  0.00  0.00     0.218 C 
ATOM      6  C   UNL d   1      25.307 -16.244  -2.460  0.00  0.00     0.050 C 
BRANCH   5   7
ATOM      7  O   UNL d   1      26.888 -15.728  -0.734  0.00  0.00    -0.337 OA
BRANCH   7   8
ATOM      8  C   UNL d   1      27.194 -14.885   0.303  0.00  0.00     0.070 C 
ATOM      9  C   UNL d   1      27.991 -15.369   1.337  0.00  0.00     0.039 C 
ATOM     10  C   UNL d   1      28.113 -14.636   2.534  0.00  0.00     0.039 C 
ATOM     11  C   UNL d   1      27.398 -13.448   2.721  0.00  0.00     0.068 C 
ATOM     12  C   UNL d   1      26.610 -12.991   1.685  0.00  0.00     0.039 C 
ATOM     13  C   UNL d   1      26.653 -13.618   0.453  0.00  0.00     0.039 C 
BRANCH  11  14
ATOM     14  O   UNL d   1      27.575 -12.756   3.889  0.00  0.00    -0.352 OA
BRANCH  14  15
ATOM     15  C   UNL d   1      28.682 -13.194   4.694  0.00  0.00     0.171 C 
ATOM     16  C   UNL d   1      28.162 -14.047   5.829  0.00  0.00     0.034 C 
ENDBRANCH  14  15
ENDBRANCH  11  14
ENDBRANCH   7   8
ENDBRANCH   5   7
ENDBRANCH   2   5
BRANCH   1  17
ATOM     17  N   UNL d   1      22.752 -18.638  -0.153  0.00  0.00    -0.249 N 
ATOM     18  C   UNL d   1      21.421 -18.793  -0.530  0.00  0.00     0.334 C 
ATOM     19  N   UNL d   1      20.833 -19.940  -0.028  0.00  0.00    -0.342 N 
ATOM     20  O   UNL d   1      20.818 -17.979  -1.205  0.00  0.00    -0.246 OA
ATOM     21  H   UNL d   1      21.356 -20.521   0.608  0.00  0.00     0.164 HD
ATOM     22  H   UNL d   1      23.293 -19.348   0.325  0.00  0.00     0.192 HD
BRANCH  19  23
ATOM     23  C   UNL d   1      19.401 -20.196  -0.201  0.00  0.00     0.124 C 
BRANCH  23  24
ATOM     24  C   UNL d   1      18.828 -21.140   0.863  0.00  0.00     0.019 C 
BRANCH  24  25
ATOM     25  C   UNL d   1      18.703 -20.464   2.235  0.00  0.00    -0.003 C 
ATOM     26  C   UNL d   1      20.068 -20.077   2.790  0.00  0.00     0.005 C 
ENDBRANCH  24  25
ENDBRANCH  23  24
ENDBRANCH  19  23
ENDBRANCH   1  17
TORSDOF 9
ENDMDL
MODEL 7
REMARK VINA RESULT:    -7.401      4.681      9.476
REMARK INTER + INTRA:         -11.712
REMARK INTER:                 -10.086
REMARK INTRA:                  -1.626
REMARK CONF_INDEPENDENT:        2.685
REMARK UNBOUND:                -1.626
REMARK  9 active torsions:
REMARK  status: ('A' for Active; 'I' for Inactive)
REMARK    1  A    between atoms: C_2  and  C_3 
REMARK    2  A    between atoms: C_3  and  C_4 
REMARK    3  A    between atoms: C_4  and  N_5 
REMARK       I    between atoms: N_5  and  C_6 
REMARK       I    between atoms: C_6  and  N_8 
REMARK    4  A    between atoms: N_8  and  N_9 
REMARK       I    between atoms: N_9  and  C_10 
REMARK    5  A    between atoms: C_12  and  C_10 
REMARK    6  A    between atoms: C_12  and  O_14 
REMARK    7  A    between atoms: O_14  and  C_15 
REMARK    8  A    between atoms: C_18  and  O_19 
REMARK    9  A    between atoms: O_19  and  C_20 
ROOT
ATOM      1  N   UNL d   1      25.848 -12.741  -2.981  0.00  0.00    -0.264 N 
ATOM      2  C   UNL d   1      25.617 -14.109  -3.115  0.00  0.00     0.265 C 
ATOM      3  O   UNL d   1      24.780 -14.535  -3.916  0.00  0.00    -0.269 OA
ATOM      4  H   UNL d   1      26.624 -12.384  -2.421  0.00  0.00     0.190 HD
ENDROOT
BRANCH   2   5
ATOM      5  C   UNL d   1      26.486 -15.113  -2.243  0.00  0.00     0.218 C 
ATOM      6  C   UNL d   1      27.932 -14.985  -2.761  0.00  0.00     0.050 C 
BRANCH   5   7
ATOM      7  O   UNL d   1      26.202 -16.502  -2.089  0.00  0.00    -0.337 OA
BRANCH   7   8
ATOM      8  C   UNL d   1      25.136 -16.862  -1.307  0.00  0.00     0.070 C 
ATOM      9  C   UNL d   1      25.243 -18.015  -0.531  0.00  0.00     0.039 C 
ATOM     10  C   UNL d   1      24.096 -18.562   0.077  0.00  0.00     0.039 C 
ATOM     11  C   UNL d   1      22.836 -17.992  -0.131  0.00  0.00     0.068 C 
ATOM     12  C   UNL d   1      22.753 -16.854  -0.907  0.00  0.00     0.039 C 
ATOM     13  C   UNL d   1      23.908 -16.224  -1.335  0.00  0.00     0.039 C 
BRANCH  11  14
ATOM     14  O   UNL d   1      21.757 -18.542   0.508  0.00  0.00    -0.352 OA
BRANCH  14  15
ATOM     15  C   UNL d   1      20.687 -18.962  -0.355  0.00  0.00     0.171 C 
ATOM     16  C   UNL d   1      19.884 -20.039   0.340  0.00  0.00     0.034 C 
ENDBRANCH  14  15
ENDBRANCH  11  14
ENDBRANCH   7   8
ENDBRANCH   5   7
ENDBRANCH   2   5
BRANCH   1  17
ATOM     17  N   UNL d   1      25.450 -11.866  -4.050  0.00  0.00    -0.249 N 
ATOM     18  C   UNL d   1      25.951 -10.568  -4.093  0.00  0.00     0.334 C 
ATOM     19  N   UNL d   1      25.266  -9.737  -4.961  0.00  0.00    -0.342 N 
ATOM     20  O   UNL d   1      26.880 -10.187  -3.404  0.00  0.00    -0.246 OA
ATOM     21  H   UNL d   1      24.443 -10.087  -5.426  0.00  0.00     0.164 HD
ATOM     22  H   UNL d   1      24.745 -12.223  -4.682  0.00  0.00     0.192 HD
BRANCH  19  23
ATOM     23  C   UNL d   1      25.559  -8.304  -5.030  0.00  0.00     0.124 C 
BRANCH  23  24
ATOM     24  C   UNL d   1      24.600  -7.540  -5.950  0.00  0.00     0.019 C 
BRANCH  24  25
ATOM     25  C   UNL d   1      23.197  -7.403  -5.345  0.00  0.00    -0.003 C 
ATOM     26  C   UNL d   1      22.331  -6.450  -6.160  0.00  0.00     0.005 C 
ENDBRANCH  24  25
ENDBRANCH  23  24
ENDBRANCH  19  23
ENDBRANCH   1  17
TORSDOF 9
ENDMDL
MODEL 8
REMARK VINA RESULT:    -7.310      1.720      2.337
REMARK INTER + INTRA:         -11.695
REMARK INTER:                  -9.995
REMARK INTRA:                  -1.700
REMARK CONF_INDEPENDENT:        2.685
REMARK UNBOUND:                -1.700
REMARK  9 active torsions:
REMARK  status: ('A' for Active; 'I' for Inactive)
REMARK    1  A    between atoms: C_2  and  C_3 
REMARK    2  A    between atoms: C_3  and  C_4 
REMARK    3  A    between atoms: C_4  and  N_5 
REMARK       I    between atoms: N_5  and  C_6 
REMARK       I    between atoms: C_6  and  N_8 
REMARK    4  A    between atoms: N_8  and  N_9 
REMARK       I    between atoms: N_9  and  C_10 
REMARK    5  A    between atoms: C_12  and  C_10 
REMARK    6  A    between atoms: C_12  and  O_14 
REMARK    7  A    between atoms: O_14  and  C_15 
REMARK    8  A    between atoms: C_18  and  O_19 
REMARK    9  A    between atoms: O_19  and  C_20 
ROOT
ATOM      1  N   UNL d   1      25.124 -17.476   0.290  0.00  0.00    -0.264 N 
ATOM      2  C   UNL d   1      26.434 -17.855   0.578  0.00  0.00     0.265 C 
ATOM      3  O   UNL d   1      26.674 -18.928   1.143  0.00  0.00    -0.269 OA
ATOM      4  H   UNL d   1      24.922 -16.659  -0.288  0.00  0.00     0.190 HD
ENDROOT
BRANCH   2   5
ATOM      5  C   UNL d   1      27.617 -16.897   0.128  0.00  0.00     0.218 C 
ATOM      6  C   UNL d   1      27.190 -15.473   0.532  0.00  0.00     0.050 C 
BRANCH   5   7
ATOM      7  O   UNL d   1      28.144 -16.831  -1.197  0.00  0.00    -0.337 OA
BRANCH   7   8
ATOM      8  C   UNL d   1      27.361 -16.281  -2.178  0.00  0.00     0.070 C 
ATOM      9  C   UNL d   1      27.974 -15.507  -3.160  0.00  0.00     0.039 C 
ATOM     10  C   UNL d   1      27.192 -14.715  -4.024  0.00  0.00     0.039 C 
ATOM     11  C   UNL d   1      25.802 -14.655  -3.875  0.00  0.00     0.068 C 
ATOM     12  C   UNL d   1      25.216 -15.426  -2.892  0.00  0.00     0.039 C 
ATOM     13  C   UNL d   1      25.976 -16.339  -2.183  0.00  0.00     0.039 C 
BRANCH  11  14
ATOM     14  O   UNL d   1      25.083 -13.897  -4.760  0.00  0.00    -0.352 OA
BRANCH  14  15
ATOM     15  C   UNL d   1      25.568 -12.557  -4.948  0.00  0.00     0.171 C 
ATOM     16  C   UNL d   1      25.543 -11.831  -3.622  0.00  0.00     0.034 C 
ENDBRANCH  14  15
ENDBRANCH  11  14
ENDBRANCH   7   8
ENDBRANCH   5   7
ENDBRANCH   2   5
BRANCH   1  17
ATOM     17  N   UNL d   1      24.106 -18.490   0.244  0.00  0.00    -0.249 N 
ATOM     18  C   UNL d   1      22.928 -18.244  -0.455  0.00  0.00     0.334 C 
ATOM     19  N   UNL d   1      21.915 -19.141  -0.167  0.00  0.00    -0.342 N 
ATOM     20  O   UNL d   1      22.788 -17.307  -1.220  0.00  0.00    -0.246 OA
ATOM     21  H   UNL d   1      22.063 -19.833   0.550  0.00  0.00     0.164 HD
ATOM     22  H   UNL d   1      24.270 -19.316   0.808  0.00  0.00     0.192 HD
BRANCH  19  23
ATOM     23  C   UNL d   1      20.563 -18.954  -0.699  0.00  0.00     0.124 C 
BRANCH  23  24
ATOM     24  C   UNL d   1      19.622 -20.117  -0.365  0.00  0.00     0.019 C 
BRANCH  24  25
ATOM     25  C   UNL d   1      19.056 -20.019   1.058  0.00  0.00    -0.003 C 
ATOM     26  C   UNL d   1      18.104 -21.171   1.358  0.00  0.00     0.005 C 
ENDBRANCH  24  25
ENDBRANCH  23  24
ENDBRANCH  19  23
ENDBRANCH   1  17
TORSDOF 9
ENDMDL
MODEL 9
REMARK VINA RESULT:    -7.217      4.123      8.663
REMARK INTER + INTRA:         -11.683
REMARK INTER:                  -9.902
REMARK INTRA:                  -1.781
REMARK CONF_INDEPENDENT:        2.685
REMARK UNBOUND:                -1.781
REMARK  9 active torsions:
REMARK  status: ('A' for Active; 'I' for Inactive)
REMARK    1  A    between atoms: C_2  and  C_3 
REMARK    2  A    between atoms: C_3  and  C_4 
REMARK    3  A    between atoms: C_4  and  N_5 
REMARK       I    between atoms: N_5  and  C_6 
REMARK       I    between atoms: C_6  and  N_8 
REMARK    4  A    between atoms: N_8  and  N_9 
REMARK       I    between atoms: N_9  and  C_10 
REMARK    5  A    between atoms: C_12  and  C_10 
REMARK    6  A    between atoms: C_12  and  O_14 
REMARK    7  A    between atoms: O_14  and  C_15 
REMARK    8  A    between atoms: C_18  and  O_19 
REMARK    9  A    between atoms: O_19  and  C_20 
ROOT
ATOM      1  N   UNL d   1      27.425 -15.009   1.187  0.00  0.00    -0.264 N 
ATOM      2  C   UNL d   1      27.510 -15.798   0.042  0.00  0.00     0.265 C 
ATOM      3  O   UNL d   1      28.600 -16.227  -0.353  0.00  0.00    -0.269 OA
ATOM      4  H   UNL d   1      26.523 -14.758   1.595  0.00  0.00     0.190 HD
ENDROOT
BRANCH   2   5
ATOM      5  C   UNL d   1      26.170 -16.173  -0.723  0.00  0.00     0.218 C 
ATOM      6  C   UNL d   1      26.159 -15.319  -2.006  0.00  0.00     0.050 C 
BRANCH   5   7
ATOM      7  O   UNL d   1      24.866 -16.106  -0.148  0.00  0.00    -0.337 OA
BRANCH   7   8
ATOM      8  C   UNL d   1      23.914 -16.982  -0.598  0.00  0.00     0.070 C 
ATOM      9  C   UNL d   1      22.596 -16.541  -0.688  0.00  0.00     0.039 C 
ATOM     10  C   UNL d   1      21.555 -17.469  -0.891  0.00  0.00     0.039 C 
ATOM     11  C   UNL d   1      21.822 -18.841  -0.951  0.00  0.00     0.068 C 
ATOM     12  C   UNL d   1      23.135 -19.256  -0.854  0.00  0.00     0.039 C 
ATOM     13  C   UNL d   1      24.156 -18.323  -0.849  0.00  0.00     0.039 C 
BRANCH  11  14
ATOM     14  O   UNL d   1      20.781 -19.699  -1.182  0.00  0.00    -0.352 OA
BRANCH  14  15
ATOM     15  C   UNL d   1      19.535 -19.324  -0.570  0.00  0.00     0.171 C 
ATOM     16  C   UNL d   1      19.034 -20.473   0.275  0.00  0.00     0.034 C 
ENDBRANCH  14  15
ENDBRANCH  11  14
ENDBRANCH   7   8
ENDBRANCH   5   7
ENDBRANCH   2   5
BRANCH   1  17
ATOM     17  N   UNL d   1      28.503 -15.051   2.137  0.00  0.00    -0.249 N 
ATOM     18  C   UNL d   1      28.356 -14.415   3.366  0.00  0.00     0.334 C 
ATOM     19  N   UNL d   1      29.546 -14.251   4.052  0.00  0.00    -0.342 N 
ATOM     20  O   UNL d   1      27.287 -14.006   3.784  0.00  0.00    -0.246 OA
ATOM     21  H   UNL d   1      30.409 -14.521   3.607  0.00  0.00     0.164 HD
ATOM     22  H   UNL d   1      29.363 -15.481   1.819  0.00  0.00     0.192 HD
BRANCH  19  23
ATOM     23  C   UNL d   1      29.606 -13.477   5.294  0.00  0.00     0.124 C 
BRANCH  23  24
ATOM     24  C   UNL d   1      29.281 -14.313   6.537  0.00  0.00     0.019 C 
BRANCH  24  25
ATOM     25  C   UNL d   1      28.941 -13.440   7.753  0.00  0.00    -0.003 C 
ATOM     26  C   UNL d   1      28.151 -12.202   7.345  0.00  0.00     0.005 C 
ENDBRANCH  24  25
ENDBRANCH  23  24
ENDBRANCH  19  23
ENDBRANCH   1  17
TORSDOF 9
ENDMDL
