MODEL 1
REMARK VINA RESULT:   -27.913      0.000      0.000
REMARK INTER + INTRA:         -31.061
REMARK INTER:                 -30.001
REMARK INTRA:                  -1.060
REMARK CONF_INDEPENDENT:        2.088
REMARK UNBOUND:                -1.060
REMARK  7 active torsions:
REMARK  status: ('A' for Active; 'I' for Inactive)
REMARK       I    between atoms: C_2  and  N_3 
REMARK    1  A    between atoms: C_2  and  C_15 
REMARK    2  A    between atoms: N_3  and  N_4 
REMARK    3  A    between atoms: N_4  and  C_5 
REMARK    4  A    between atoms: C_17  and  C_18 
REMARK    5  A    between atoms: C_21  and  O_22 
REMARK    6  A    between atoms: O_22  and  C_23 
REMARK    7  A    between atoms: C_23  and  C_24 
ROOT
ATOM      1  C   UNL d   1      26.971 -16.684  -0.084  0.00  0.00     0.121 A 
ATOM      2  C   UNL d   1      27.398 -15.522   0.538  0.00  0.00     0.071 A 
ATOM      3  C   UNL d   1      28.807 -15.448   0.355  0.00  0.00     0.089 A 
ATOM      4  N   UNL d   1      29.228 -16.484  -0.388  0.00  0.00    -0.174 NA
ATOM      5  N   UNL d   1      28.111 -17.199  -0.637  0.00  0.00    -0.272 N 
ATOM      6  H   UNL d   1      28.196 -18.012  -1.237  0.00  0.00     0.189 HD
ENDROOT
BRANCH   1   7
ATOM      7  C   UNL d   1      25.635 -17.205  -0.247  0.00  0.00     0.288 C 
ATOM      8  O   UNL d   1      24.953 -16.975  -1.259  0.00  0.00    -0.264 OA
ATOM      9  N   UNL d   1      25.118 -17.968   0.809  0.00  0.00    -0.265 N 
ATOM     10  H   UNL d   1      25.538 -17.973   1.731  0.00  0.00     0.190 HD
BRANCH   9  11
ATOM     11  N   UNL d   1      23.765 -18.314   0.720  0.00  0.00    -0.308 N 
ATOM     12  H   UNL d   1      23.349 -18.455   1.638  0.00  0.00     0.186 HD
BRANCH  11  13
ATOM     13  C   UNL d   1      22.935 -18.388  -0.380  0.00  0.00     0.121 C 
ATOM     14  C   UNL d   1      21.653 -18.799  -0.406  0.00  0.00     0.011 A 
ATOM     15  C   UNL d   1      20.732 -18.910  -1.581  0.00  0.00     0.131 A 
ATOM     16  C   UNL d   1      20.808 -19.226   0.705  0.00  0.00     0.006 A 
ATOM     17  N   UNL d   1      19.530 -19.325  -1.269  0.00  0.00    -0.259 NA
ATOM     18  C   UNL d   1      19.558 -19.521   0.136  0.00  0.00     0.067 A 
ATOM     19  C   UNL d   1      18.512 -19.946   0.943  0.00  0.00     0.032 A 
ATOM     20  C   UNL d   1      18.734 -20.073   2.322  0.00  0.00     0.002 A 
ATOM     21  C   UNL d   1      19.983 -19.779   2.875  0.00  0.00     0.001 A 
ATOM     22  C   UNL d   1      21.024 -19.353   2.064  0.00  0.00     0.014 A 
ENDBRANCH  11  13
ENDBRANCH   9  11
ENDBRANCH   1   7
BRANCH   3  23
ATOM     23  C   UNL d   1      29.705 -14.391   0.835  0.00  0.00    -0.005 A 
ATOM     24  C   UNL d   1      30.850 -14.703   1.580  0.00  0.00     0.016 A 
ATOM     25  C   UNL d   1      31.590 -13.688   2.209  0.00  0.00     0.037 A 
ATOM     26  C   UNL d   1      31.253 -12.344   2.028  0.00  0.00     0.069 A 
ATOM     27  C   UNL d   1      30.194 -12.026   1.179  0.00  0.00     0.037 A 
ATOM     28  C   UNL d   1      29.398 -13.040   0.626  0.00  0.00     0.016 A 
BRANCH  26  29
ATOM     29  O   UNL d   1      32.008 -11.442   2.726  0.00  0.00    -0.347 OA
BRANCH  29  30
ATOM     30  C   UNL d   1      31.910 -11.479   4.160  0.00  0.00     0.216 C 
BRANCH  30  31
ATOM     31  C   UNL d   1      30.471 -11.279   4.582  0.00  0.00    -0.012 A 
ATOM     32  C   UNL d   1      29.929 -12.123   5.568  0.00  0.00     0.011 A 
ATOM     33  C   UNL d   1      28.582 -12.050   5.915  0.00  0.00     0.001 A 
ATOM     34  C   UNL d   1      27.782 -11.045   5.381  0.00  0.00     0.002 A 
ATOM     35  C   UNL d   1      28.335 -10.113   4.505  0.00  0.00     0.024 A 
ATOM     36  C   UNL d   1      29.657 -10.255   4.068  0.00  0.00     0.042 A 
ATOM     37 CL   UNL d   1      30.215  -9.148   2.865  0.00  0.00    -0.084 Cl
ENDBRANCH  30  31
ENDBRANCH  29  30
ENDBRANCH  26  29
ENDBRANCH   3  23
TORSDOF 7
ENDMDL
MODEL 2
REMARK VINA RESULT:   -27.325      1.658      2.105
REMARK INTER + INTRA:         -30.380
REMARK INTER:                 -29.413
REMARK INTRA:                  -0.967
REMARK CONF_INDEPENDENT:        2.088
REMARK UNBOUND:                -0.967
REMARK  7 active torsions:
REMARK  status: ('A' for Active; 'I' for Inactive)
REMARK       I    between atoms: C_2  and  N_3 
REMARK    1  A    between atoms: C_2  and  C_15 
REMARK    2  A    between atoms: N_3  and  N_4 
REMARK    3  A    between atoms: N_4  and  C_5 
REMARK    4  A    between atoms: C_17  and  C_18 
REMARK    5  A    between atoms: C_21  and  O_22 
REMARK    6  A    between atoms: O_22  and  C_23 
REMARK    7  A    between atoms: C_23  and  C_24 
ROOT
ATOM      1  C   UNL d   1      26.795 -16.196   0.101  0.00  0.00     0.121 A 
ATOM      2  C   UNL d   1      27.238 -15.270   1.032  0.00  0.00     0.071 A 
ATOM      3  C   UNL d   1      28.609 -15.021   0.747  0.00  0.00     0.089 A 
ATOM      4  N   UNL d   1      28.986 -15.716  -0.337  0.00  0.00    -0.174 NA
ATOM      5  N   UNL d   1      27.884 -16.404  -0.700  0.00  0.00    -0.272 N 
ATOM      6  H   UNL d   1      27.935 -16.965  -1.543  0.00  0.00     0.189 HD
ENDROOT
BRANCH   1   7
ATOM      7  C   UNL d   1      25.476 -16.748  -0.095  0.00  0.00     0.288 C 
ATOM      8  O   UNL d   1      24.718 -16.346  -0.994  0.00  0.00    -0.264 OA
ATOM      9  N   UNL d   1      25.065 -17.746   0.798  0.00  0.00    -0.265 N 
ATOM     10  H   UNL d   1      25.545 -17.923   1.672  0.00  0.00     0.190 HD
BRANCH   9  11
ATOM     11  N   UNL d   1      23.725 -18.143   0.712  0.00  0.00    -0.308 N 
ATOM     12  H   UNL d   1      23.316 -18.295   1.631  0.00  0.00     0.186 HD
BRANCH  11  13
ATOM     13  C   UNL d   1      22.898 -18.252  -0.387  0.00  0.00     0.121 C 
ATOM     14  C   UNL d   1      21.633 -18.713  -0.410  0.00  0.00     0.011 A 
ATOM     15  C   UNL d   1      20.716 -18.863  -1.584  0.00  0.00     0.131 A 
ATOM     16  C   UNL d   1      20.807 -19.171   0.703  0.00  0.00     0.006 A 
ATOM     17  N   UNL d   1      19.531 -19.325  -1.270  0.00  0.00    -0.259 NA
ATOM     18  C   UNL d   1      19.569 -19.516   0.135  0.00  0.00     0.067 A 
ATOM     19  C   UNL d   1      18.541 -19.981   0.945  0.00  0.00     0.032 A 
ATOM     20  C   UNL d   1      18.770 -20.097   2.324  0.00  0.00     0.002 A 
ATOM     21  C   UNL d   1      20.007 -19.753   2.875  0.00  0.00     0.001 A 
ATOM     22  C   UNL d   1      21.030 -19.287   2.062  0.00  0.00     0.014 A 
ENDBRANCH  11  13
ENDBRANCH   9  11
ENDBRANCH   1   7
BRANCH   3  23
ATOM     23  C   UNL d   1      29.507 -14.106   1.464  0.00  0.00    -0.005 A 
ATOM     24  C   UNL d   1      29.884 -14.360   2.789  0.00  0.00     0.016 A 
ATOM     25  C   UNL d   1      30.571 -13.387   3.534  0.00  0.00     0.037 A 
ATOM     26  C   UNL d   1      30.971 -12.187   2.941  0.00  0.00     0.069 A 
ATOM     27  C   UNL d   1      30.712 -11.989   1.586  0.00  0.00     0.037 A 
ATOM     28  C   UNL d   1      29.946 -12.919   0.866  0.00  0.00     0.016 A 
BRANCH  26  29
ATOM     29  O   UNL d   1      31.587 -11.290   3.770  0.00  0.00    -0.347 OA
BRANCH  29  30
ATOM     30  C   UNL d   1      30.758 -10.609   4.728  0.00  0.00     0.216 C 
BRANCH  30  31
ATOM     31  C   UNL d   1      31.315 -10.806   6.120  0.00  0.00    -0.012 A 
ATOM     32  C   UNL d   1      32.645 -10.429   6.379  0.00  0.00     0.011 A 
ATOM     33  C   UNL d   1      33.239 -10.686   7.613  0.00  0.00     0.001 A 
ATOM     34  C   UNL d   1      32.477 -11.204   8.654  0.00  0.00     0.002 A 
ATOM     35  C   UNL d   1      31.121 -11.458   8.458  0.00  0.00     0.024 A 
ATOM     36  C   UNL d   1      30.552 -11.308   7.188  0.00  0.00     0.042 A 
ATOM     37 CL   UNL d   1      28.904 -11.792   6.998  0.00  0.00    -0.084 Cl
ENDBRANCH  30  31
ENDBRANCH  29  30
ENDBRANCH  26  29
ENDBRANCH   3  23
TORSDOF 7
ENDMDL
MODEL 3
REMARK VINA RESULT:   -27.320      4.223      5.662
REMARK INTER + INTRA:         -30.634
REMARK INTER:                 -29.409
REMARK INTRA:                  -1.225
REMARK CONF_INDEPENDENT:        2.088
REMARK UNBOUND:                -1.225
REMARK  7 active torsions:
REMARK  status: ('A' for Active; 'I' for Inactive)
REMARK       I    between atoms: C_2  and  N_3 
REMARK    1  A    between atoms: C_2  and  C_15 
REMARK    2  A    between atoms: N_3  and  N_4 
REMARK    3  A    between atoms: N_4  and  C_5 
REMARK    4  A    between atoms: C_17  and  C_18 
REMARK    5  A    between atoms: C_21  and  O_22 
REMARK    6  A    between atoms: O_22  and  C_23 
REMARK    7  A    between atoms: C_23  and  C_24 
ROOT
ATOM      1  C   UNL d   1      27.124 -16.499  -0.638  0.00  0.00     0.121 A 
ATOM      2  C   UNL d   1      28.218 -17.242  -0.225  0.00  0.00     0.071 A 
ATOM      3  C   UNL d   1      29.351 -16.385  -0.294  0.00  0.00     0.089 A 
ATOM      4  N   UNL d   1      28.974 -15.156  -0.681  0.00  0.00    -0.174 NA
ATOM      5  N   UNL d   1      27.642 -15.255  -0.875  0.00  0.00    -0.272 N 
ATOM      6  H   UNL d   1      27.138 -14.411  -1.125  0.00  0.00     0.189 HD
ENDROOT
BRANCH   1   7
ATOM      7  C   UNL d   1      25.730 -16.867  -0.702  0.00  0.00     0.288 C 
ATOM      8  O   UNL d   1      24.989 -16.492  -1.626  0.00  0.00    -0.264 OA
ATOM      9  N   UNL d   1      25.230 -17.648   0.348  0.00  0.00    -0.265 N 
ATOM     10  H   UNL d   1      25.728 -17.765   1.222  0.00  0.00     0.190 HD
BRANCH   9  11
ATOM     11  N   UNL d   1      23.844 -17.845   0.369  0.00  0.00    -0.308 N 
ATOM     12  H   UNL d   1      23.458 -17.719   1.303  0.00  0.00     0.186 HD
BRANCH  11  13
ATOM     13  C   UNL d   1      22.962 -18.075  -0.666  0.00  0.00     0.121 C 
ATOM     14  C   UNL d   1      21.715 -18.576  -0.575  0.00  0.00     0.011 A 
ATOM     15  C   UNL d   1      20.740 -18.856  -1.676  0.00  0.00     0.131 A 
ATOM     16  C   UNL d   1      20.969 -18.961   0.619  0.00  0.00     0.006 A 
ATOM     17  N   UNL d   1      19.592 -19.325  -1.255  0.00  0.00    -0.259 NA
ATOM     18  C   UNL d   1      19.714 -19.392   0.156  0.00  0.00     0.067 A 
ATOM     19  C   UNL d   1      18.751 -19.816   1.062  0.00  0.00     0.032 A 
ATOM     20  C   UNL d   1      19.060 -19.804   2.430  0.00  0.00     0.002 A 
ATOM     21  C   UNL d   1      20.313 -19.375   2.876  0.00  0.00     0.001 A 
ATOM     22  C   UNL d   1      21.271 -18.950   1.967  0.00  0.00     0.014 A 
ENDBRANCH  11  13
ENDBRANCH   9  11
ENDBRANCH   1   7
BRANCH   3  23
ATOM     23  C   UNL d   1      30.738 -16.725   0.049  0.00  0.00    -0.005 A 
ATOM     24  C   UNL d   1      31.370 -17.834  -0.529  0.00  0.00     0.016 A 
ATOM     25  C   UNL d   1      32.614 -18.275  -0.049  0.00  0.00     0.037 A 
ATOM     26  C   UNL d   1      33.286 -17.563   0.948  0.00  0.00     0.069 A 
ATOM     27  C   UNL d   1      32.719 -16.385   1.430  0.00  0.00     0.037 A 
ATOM     28  C   UNL d   1      31.435 -15.995   1.019  0.00  0.00     0.016 A 
BRANCH  26  29
ATOM     29  O   UNL d   1      34.466 -18.109   1.376  0.00  0.00    -0.347 OA
BRANCH  29  30
ATOM     30  C   UNL d   1      34.568 -19.543   1.354  0.00  0.00     0.216 C 
BRANCH  30  31
ATOM     31  C   UNL d   1      33.475 -20.149   2.206  0.00  0.00    -0.012 A 
ATOM     32  C   UNL d   1      33.312 -19.693   3.526  0.00  0.00     0.011 A 
ATOM     33  C   UNL d   1      32.392 -20.291   4.385  0.00  0.00     0.001 A 
ATOM     34  C   UNL d   1      31.525 -21.265   3.903  0.00  0.00     0.002 A 
ATOM     35  C   UNL d   1      31.579 -21.634   2.560  0.00  0.00     0.024 A 
ATOM     36  C   UNL d   1      32.577 -21.118   1.727  0.00  0.00     0.042 A 
ATOM     37 CL   UNL d   1      32.667 -21.745   0.119  0.00  0.00    -0.084 Cl
ENDBRANCH  30  31
ENDBRANCH  29  30
ENDBRANCH  26  29
ENDBRANCH   3  23
TORSDOF 7
ENDMDL
MODEL 4
REMARK VINA RESULT:   -27.187      4.320      6.211
REMARK INTER + INTRA:         -30.639
REMARK INTER:                 -29.275
REMARK INTRA:                  -1.363
REMARK CONF_INDEPENDENT:        2.088
REMARK UNBOUND:                -1.363
REMARK  7 active torsions:
REMARK  status: ('A' for Active; 'I' for Inactive)
REMARK       I    between atoms: C_2  and  N_3 
REMARK    1  A    between atoms: C_2  and  C_15 
REMARK    2  A    between atoms: N_3  and  N_4 
REMARK    3  A    between atoms: N_4  and  C_5 
REMARK    4  A    between atoms: C_17  and  C_18 
REMARK    5  A    between atoms: C_21  and  O_22 
REMARK    6  A    between atoms: O_22  and  C_23 
REMARK    7  A    between atoms: C_23  and  C_24 
ROOT
ATOM      1  C   UNL d   1      26.962 -16.521   0.009  0.00  0.00     0.121 A 
ATOM      2  C   UNL d   1      28.096 -16.820  -0.729  0.00  0.00     0.071 A 
ATOM      3  C   UNL d   1      29.189 -16.171  -0.090  0.00  0.00     0.089 A 
ATOM      4  N   UNL d   1      28.766 -15.543   1.017  0.00  0.00    -0.174 NA
ATOM      5  N   UNL d   1      27.436 -15.772   1.051  0.00  0.00    -0.272 N 
ATOM      6  H   UNL d   1      26.918 -15.422   1.849  0.00  0.00     0.189 HD
ENDROOT
BRANCH   1   7
ATOM      7  C   UNL d   1      25.602 -16.970  -0.167  0.00  0.00     0.288 C 
ATOM      8  O   UNL d   1      24.881 -16.549  -1.087  0.00  0.00    -0.264 OA
ATOM      9  N   UNL d   1      25.109 -17.887   0.771  0.00  0.00    -0.265 N 
ATOM     10  H   UNL d   1      25.573 -18.062   1.654  0.00  0.00     0.190 HD
BRANCH   9  11
ATOM     11  N   UNL d   1      23.741 -18.175   0.697  0.00  0.00    -0.308 N 
ATOM     12  H   UNL d   1      23.316 -18.232   1.620  0.00  0.00     0.186 HD
BRANCH  11  13
ATOM     13  C   UNL d   1      22.912 -18.286  -0.401  0.00  0.00     0.121 C 
ATOM     14  C   UNL d   1      21.640 -18.729  -0.418  0.00  0.00     0.011 A 
ATOM     15  C   UNL d   1      20.721 -18.880  -1.590  0.00  0.00     0.131 A 
ATOM     16  C   UNL d   1      20.808 -19.160   0.701  0.00  0.00     0.006 A 
ATOM     17  N   UNL d   1      19.530 -19.320  -1.270  0.00  0.00    -0.259 NA
ATOM     18  C   UNL d   1      19.565 -19.494   0.138  0.00  0.00     0.067 A 
ATOM     19  C   UNL d   1      18.531 -19.933   0.953  0.00  0.00     0.032 A 
ATOM     20  C   UNL d   1      18.758 -20.035   2.334  0.00  0.00     0.002 A 
ATOM     21  C   UNL d   1      20.000 -19.702   2.880  0.00  0.00     0.001 A 
ATOM     22  C   UNL d   1      21.029 -19.262   2.061  0.00  0.00     0.014 A 
ENDBRANCH  11  13
ENDBRANCH   9  11
ENDBRANCH   1   7
BRANCH   3  23
ATOM     23  C   UNL d   1      30.597 -16.200  -0.506  0.00  0.00    -0.005 A 
ATOM     24  C   UNL d   1      31.062 -15.365  -1.531  0.00  0.00     0.016 A 
ATOM     25  C   UNL d   1      32.350 -15.539  -2.063  0.00  0.00     0.037 A 
ATOM     26  C   UNL d   1      33.224 -16.483  -1.519  0.00  0.00     0.069 A 
ATOM     27  C   UNL d   1      32.809 -17.222  -0.413  0.00  0.00     0.037 A 
ATOM     28  C   UNL d   1      31.492 -17.116   0.060  0.00  0.00     0.016 A 
BRANCH  26  29
ATOM     29  O   UNL d   1      34.435 -16.604  -2.145  0.00  0.00    -0.347 OA
BRANCH  29  30
ATOM     30  C   UNL d   1      34.664 -17.809  -2.897  0.00  0.00     0.216 C 
BRANCH  30  31
ATOM     31  C   UNL d   1      33.346 -18.361  -3.394  0.00  0.00    -0.012 A 
ATOM     32  C   UNL d   1      32.820 -19.514  -2.783  0.00  0.00     0.011 A 
ATOM     33  C   UNL d   1      31.666 -20.124  -3.271  0.00  0.00     0.001 A 
ATOM     34  C   UNL d   1      30.943 -19.520  -4.294  0.00  0.00     0.002 A 
ATOM     35  C   UNL d   1      31.375 -18.305  -4.822  0.00  0.00     0.024 A 
ATOM     36  C   UNL d   1      32.593 -17.752  -4.412  0.00  0.00     0.042 A 
ATOM     37 CL   UNL d   1      33.128 -16.325  -5.227  0.00  0.00    -0.084 Cl
ENDBRANCH  30  31
ENDBRANCH  29  30
ENDBRANCH  26  29
ENDBRANCH   3  23
TORSDOF 7
ENDMDL
MODEL 5
REMARK VINA RESULT:   -26.978      4.480      6.514
REMARK INTER + INTRA:         -30.031
REMARK INTER:                 -29.066
REMARK INTRA:                  -0.965
REMARK CONF_INDEPENDENT:        2.088
REMARK UNBOUND:                -0.965
REMARK  7 active torsions:
REMARK  status: ('A' for Active; 'I' for Inactive)
REMARK       I    between atoms: C_2  and  N_3 
REMARK    1  A    between atoms: C_2  and  C_15 
REMARK    2  A    between atoms: N_3  and  N_4 
REMARK    3  A    between atoms: N_4  and  C_5 
REMARK    4  A    between atoms: C_17  and  C_18 
REMARK    5  A    between atoms: C_21  and  O_22 
REMARK    6  A    between atoms: O_22  and  C_23 
REMARK    7  A    between atoms: C_23  and  C_24 
ROOT
ATOM      1  C   UNL d   1      27.057 -16.903  -0.366  0.00  0.00     0.121 A 
ATOM      2  C   UNL d   1      27.976 -16.644  -1.369  0.00  0.00     0.071 A 
ATOM      3  C   UNL d   1      29.177 -16.223  -0.733  0.00  0.00     0.089 A 
ATOM      4  N   UNL d   1      29.029 -16.268   0.601  0.00  0.00    -0.174 NA
ATOM      5  N   UNL d   1      27.758 -16.679   0.788  0.00  0.00    -0.272 N 
ATOM      6  H   UNL d   1      27.447 -16.833   1.741  0.00  0.00     0.189 HD
ENDROOT
BRANCH   1   7
ATOM      7  C   UNL d   1      25.709 -17.409  -0.458  0.00  0.00     0.288 C 
ATOM      8  O   UNL d   1      25.074 -17.409  -1.526  0.00  0.00    -0.264 OA
ATOM      9  N   UNL d   1      25.124 -17.879   0.726  0.00  0.00    -0.265 N 
ATOM     10  H   UNL d   1      25.509 -17.674   1.640  0.00  0.00     0.190 HD
BRANCH   9  11
ATOM     11  N   UNL d   1      23.762 -18.196   0.661  0.00  0.00    -0.308 N 
ATOM     12  H   UNL d   1      23.349 -18.282   1.587  0.00  0.00     0.186 HD
BRANCH  11  13
ATOM     13  C   UNL d   1      22.923 -18.304  -0.429  0.00  0.00     0.121 C 
ATOM     14  C   UNL d   1      21.650 -18.742  -0.436  0.00  0.00     0.011 A 
ATOM     15  C   UNL d   1      20.720 -18.889  -1.600  0.00  0.00     0.131 A 
ATOM     16  C   UNL d   1      20.825 -19.170   0.690  0.00  0.00     0.006 A 
ATOM     17  N   UNL d   1      19.530 -19.325  -1.270  0.00  0.00    -0.259 NA
ATOM     18  C   UNL d   1      19.576 -19.499   0.137  0.00  0.00     0.067 A 
ATOM     19  C   UNL d   1      18.547 -19.935   0.961  0.00  0.00     0.032 A 
ATOM     20  C   UNL d   1      18.786 -20.037   2.340  0.00  0.00     0.002 A 
ATOM     21  C   UNL d   1      20.033 -19.709   2.876  0.00  0.00     0.001 A 
ATOM     22  C   UNL d   1      21.058 -19.272   2.048  0.00  0.00     0.014 A 
ENDBRANCH  11  13
ENDBRANCH   9  11
ENDBRANCH   1   7
BRANCH   3  23
ATOM     23  C   UNL d   1      30.436 -15.842  -1.386  0.00  0.00    -0.005 A 
ATOM     24  C   UNL d   1      30.781 -14.494  -1.550  0.00  0.00     0.016 A 
ATOM     25  C   UNL d   1      31.876 -14.132  -2.352  0.00  0.00     0.037 A 
ATOM     26  C   UNL d   1      32.695 -15.109  -2.924  0.00  0.00     0.069 A 
ATOM     27  C   UNL d   1      32.430 -16.450  -2.651  0.00  0.00     0.037 A 
ATOM     28  C   UNL d   1      31.284 -16.815  -1.929  0.00  0.00     0.016 A 
BRANCH  26  29
ATOM     29  O   UNL d   1      33.702 -14.647  -3.726  0.00  0.00    -0.347 OA
BRANCH  29  30
ATOM     30  C   UNL d   1      34.232 -15.561  -4.701  0.00  0.00     0.216 C 
BRANCH  30  31
ATOM     31  C   UNL d   1      33.134 -15.994  -5.648  0.00  0.00    -0.012 A 
ATOM     32  C   UNL d   1      32.771 -17.353  -5.690  0.00  0.00     0.011 A 
ATOM     33  C   UNL d   1      31.842 -17.820  -6.617  0.00  0.00     0.001 A 
ATOM     34  C   UNL d   1      31.161 -16.921  -7.430  0.00  0.00     0.002 A 
ATOM     35  C   UNL d   1      31.409 -15.555  -7.309  0.00  0.00     0.024 A 
ATOM     36  C   UNL d   1      32.422 -15.096  -6.460  0.00  0.00     0.042 A 
ATOM     37 CL   UNL d   1      32.767 -13.402  -6.485  0.00  0.00    -0.084 Cl
ENDBRANCH  30  31
ENDBRANCH  29  30
ENDBRANCH  26  29
ENDBRANCH   3  23
TORSDOF 7
ENDMDL
