MODEL 1
REMARK VINA RESULT:    -8.234      0.000      0.000
REMARK INTER + INTRA:         -11.273
REMARK INTER:                 -10.024
REMARK INTRA:                  -1.248
REMARK CONF_INDEPENDENT:        1.790
REMARK UNBOUND:                -1.248
REMARK  6 active torsions:
REMARK  status: ('A' for Active; 'I' for Inactive)
REMARK    1  A    between atoms: O_2  and  C_3 
REMARK    2  A    between atoms: C_5  and  O_6 
REMARK    3  A    between atoms: C_9  and  C_10 
REMARK       I    between atoms: C_10  and  N_12 
REMARK       I    between atoms: N_12  and  C_13 
REMARK       I    between atoms: C_13  and  N_14 
REMARK       I    between atoms: C_13  and  N_22 
REMARK    4  A    between atoms: N_14  and  C_15 
REMARK    5  A    between atoms: C_15  and  C_16 
REMARK    6  A    between atoms: N_22  and  C_23 
ROOT
ATOM      1  C   UNL d   1      27.095 -12.714  -0.584  0.00  0.00     0.294 C 
ATOM      2  O   UNL d   1      27.254 -11.735   0.134  0.00  0.00    -0.265 OA
ATOM      3  N   UNL d   1      27.253 -14.026  -0.208  0.00  0.00    -0.023 NA
ATOM      4  C   UNL d   1      27.505 -14.301   1.033  0.00  0.00     0.704 C 
ATOM      5  N   UNL d   1      27.478 -15.600   1.447  0.00  0.00    -0.220 N 
ATOM      6  N   UNL d   1      27.685 -13.388   2.047  0.00  0.00    -0.190 N 
ATOM      7  H   UNL d   1      27.659 -15.692   2.430  0.00  0.00     0.178 HD
ATOM      8  H   UNL d   1      27.643 -12.413   1.734  0.00  0.00     0.184 HD
ENDROOT
BRANCH   5   9
ATOM      9  C   UNL d   1      27.640 -16.786   0.623  0.00  0.00     0.178 C 
BRANCH   9  10
ATOM     10  C   UNL d   1      26.363 -17.204  -0.098  0.00  0.00    -0.022 A 
ATOM     11  C   UNL d   1      25.922 -16.646  -1.306  0.00  0.00     0.012 A 
ATOM     12  C   UNL d   1      24.724 -17.044  -1.890  0.00  0.00     0.020 A 
ATOM     13  C   UNL d   1      23.994 -18.036  -1.270  0.00  0.00     0.116 A 
ATOM     14  N   UNL d   1      24.379 -18.627  -0.120  0.00  0.00    -0.273 NA
ATOM     15  C   UNL d   1      25.542 -18.200   0.439  0.00  0.00     0.124 A 
ENDBRANCH   9  10
ENDBRANCH   5   9
BRANCH   6  16
ATOM     16  C   UNL d   1      28.298 -13.508   3.313  0.00  0.00     0.055 A 
ATOM     17  C   UNL d   1      27.577 -13.034   4.429  0.00  0.00     0.031 A 
ATOM     18  C   UNL d   1      28.081 -13.147   5.728  0.00  0.00     0.009 A 
ATOM     19  C   UNL d   1      29.286 -13.809   5.950  0.00  0.00    -0.061 A 
ATOM     20  C   UNL d   1      29.776 -14.101   7.336  0.00  0.00     0.048 C 
ATOM     21  C   UNL d   1      30.030 -14.243   4.849  0.00  0.00     0.015 A 
ATOM     22  C   UNL d   1      29.573 -14.069   3.531  0.00  0.00    -0.034 A 
ATOM     23  C   UNL d   1      30.515 -14.450   2.422  0.00  0.00     0.050 C 
ENDBRANCH   6  16
BRANCH   1  24
ATOM     24  C   UNL d   1      26.663 -12.521  -1.991  0.00  0.00     0.040 A 
ATOM     25  C   UNL d   1      26.209 -13.628  -2.705  0.00  0.00     0.054 A 
ATOM     26  C   UNL d   1      25.680 -13.468  -3.981  0.00  0.00     0.071 A 
ATOM     27  C   UNL d   1      25.736 -12.206  -4.592  0.00  0.00     0.073 A 
ATOM     28  C   UNL d   1      26.236 -11.098  -3.892  0.00  0.00     0.071 A 
ATOM     29  C   UNL d   1      26.663 -11.256  -2.578  0.00  0.00     0.054 A 
BRANCH  26  30
ATOM     30  O   UNL d   1      25.064 -14.476  -4.679  0.00  0.00    -0.356 OA
ATOM     31  C   UNL d   1      25.905 -15.575  -5.048  0.00  0.00     0.210 C 
ENDBRANCH  26  30
BRANCH  28  32
ATOM     32  O   UNL d   1      26.179  -9.875  -4.508  0.00  0.00    -0.356 OA
ATOM     33  C   UNL d   1      25.530  -9.878  -5.781  0.00  0.00     0.210 C 
ENDBRANCH  28  32
ENDBRANCH   1  24
TORSDOF 6
ENDMDL
MODEL 2
REMARK VINA RESULT:    -8.174      0.578      2.285
REMARK INTER + INTRA:         -11.204
REMARK INTER:                  -9.964
REMARK INTRA:                  -1.240
REMARK CONF_INDEPENDENT:        1.790
REMARK UNBOUND:                -1.240
REMARK  6 active torsions:
REMARK  status: ('A' for Active; 'I' for Inactive)
REMARK    1  A    between atoms: O_2  and  C_3 
REMARK    2  A    between atoms: C_5  and  O_6 
REMARK    3  A    between atoms: C_9  and  C_10 
REMARK       I    between atoms: C_10  and  N_12 
REMARK       I    between atoms: N_12  and  C_13 
REMARK       I    between atoms: C_13  and  N_14 
REMARK       I    between atoms: C_13  and  N_22 
REMARK    4  A    between atoms: N_14  and  C_15 
REMARK    5  A    between atoms: C_15  and  C_16 
REMARK    6  A    between atoms: N_22  and  C_23 
ROOT
ATOM      1  C   UNL d   1      27.011 -12.930  -0.628  0.00  0.00     0.294 C 
ATOM      2  O   UNL d   1      27.242 -11.948   0.066  0.00  0.00    -0.265 OA
ATOM      3  N   UNL d   1      27.145 -14.242  -0.242  0.00  0.00    -0.023 NA
ATOM      4  C   UNL d   1      27.453 -14.510   0.987  0.00  0.00     0.704 C 
ATOM      5  N   UNL d   1      27.405 -15.802   1.421  0.00  0.00    -0.220 N 
ATOM      6  N   UNL d   1      27.719 -13.591   1.977  0.00  0.00    -0.190 N 
ATOM      7  H   UNL d   1      27.634 -15.888   2.393  0.00  0.00     0.178 HD
ATOM      8  H   UNL d   1      27.692 -12.620   1.653  0.00  0.00     0.184 HD
ENDROOT
BRANCH   5   9
ATOM      9  C   UNL d   1      27.482 -17.003   0.607  0.00  0.00     0.178 C 
BRANCH   9  10
ATOM     10  C   UNL d   1      26.162 -17.368  -0.066  0.00  0.00    -0.022 A 
ATOM     11  C   UNL d   1      25.190 -18.200   0.506  0.00  0.00     0.012 A 
ATOM     12  C   UNL d   1      24.025 -18.527  -0.181  0.00  0.00     0.020 A 
ATOM     13  C   UNL d   1      23.828 -17.978  -1.429  0.00  0.00     0.116 A 
ATOM     14  N   UNL d   1      24.715 -17.151  -2.021  0.00  0.00    -0.273 NA
ATOM     15  C   UNL d   1      25.854 -16.869  -1.335  0.00  0.00     0.124 A 
ENDBRANCH   9  10
ENDBRANCH   5   9
BRANCH   6  16
ATOM     16  C   UNL d   1      28.394 -13.717   3.211  0.00  0.00     0.055 A 
ATOM     17  C   UNL d   1      27.654 -13.456   4.383  0.00  0.00     0.031 A 
ATOM     18  C   UNL d   1      28.223 -13.595   5.653  0.00  0.00     0.009 A 
ATOM     19  C   UNL d   1      29.523 -14.074   5.783  0.00  0.00    -0.061 A 
ATOM     20  C   UNL d   1      30.109 -14.398   7.124  0.00  0.00     0.048 C 
ATOM     21  C   UNL d   1      30.281 -14.293   4.628  0.00  0.00     0.015 A 
ATOM     22  C   UNL d   1      29.748 -14.086   3.343  0.00  0.00    -0.034 A 
ATOM     23  C   UNL d   1      30.692 -14.220   2.179  0.00  0.00     0.050 C 
ENDBRANCH   6  16
BRANCH   1  24
ATOM     24  C   UNL d   1      26.511 -12.740  -2.013  0.00  0.00     0.040 A 
ATOM     25  C   UNL d   1      26.668 -11.491  -2.610  0.00  0.00     0.054 A 
ATOM     26  C   UNL d   1      26.328 -11.308  -3.946  0.00  0.00     0.071 A 
ATOM     27  C   UNL d   1      25.698 -12.351  -4.641  0.00  0.00     0.073 A 
ATOM     28  C   UNL d   1      25.496 -13.595  -4.027  0.00  0.00     0.071 A 
ATOM     29  C   UNL d   1      25.939 -13.794  -2.724  0.00  0.00     0.054 A 
BRANCH  26  30
ATOM     30  O   UNL d   1      26.606 -10.163  -4.650  0.00  0.00    -0.356 OA
ATOM     31  C   UNL d   1      25.511  -9.614  -5.393  0.00  0.00     0.210 C 
ENDBRANCH  26  30
BRANCH  28  32
ATOM     32  O   UNL d   1      24.960 -14.602  -4.787  0.00  0.00    -0.356 OA
ATOM     33  C   UNL d   1      25.905 -15.575  -5.240  0.00  0.00     0.210 C 
ENDBRANCH  28  32
ENDBRANCH   1  24
TORSDOF 6
ENDMDL
MODEL 3
REMARK VINA RESULT:    -7.785      3.329      6.280
REMARK INTER + INTRA:         -10.597
REMARK INTER:                  -9.575
REMARK INTRA:                  -1.022
REMARK CONF_INDEPENDENT:        1.790
REMARK UNBOUND:                -1.022
REMARK  6 active torsions:
REMARK  status: ('A' for Active; 'I' for Inactive)
REMARK    1  A    between atoms: O_2  and  C_3 
REMARK    2  A    between atoms: C_5  and  O_6 
REMARK    3  A    between atoms: C_9  and  C_10 
REMARK       I    between atoms: C_10  and  N_12 
REMARK       I    between atoms: N_12  and  C_13 
REMARK       I    between atoms: C_13  and  N_14 
REMARK       I    between atoms: C_13  and  N_22 
REMARK    4  A    between atoms: N_14  and  C_15 
REMARK    5  A    between atoms: C_15  and  C_16 
REMARK    6  A    between atoms: N_22  and  C_23 
ROOT
ATOM      1  C   UNL d   1      27.873 -17.091  -0.250  0.00  0.00     0.294 C 
ATOM      2  O   UNL d   1      28.392 -18.172  -0.497  0.00  0.00    -0.265 OA
ATOM      3  N   UNL d   1      28.506 -15.993   0.282  0.00  0.00    -0.023 NA
ATOM      4  C   UNL d   1      29.787 -16.032   0.469  0.00  0.00     0.704 C 
ATOM      5  N   UNL d   1      30.446 -14.891   0.818  0.00  0.00    -0.220 N 
ATOM      6  N   UNL d   1      30.611 -17.109   0.230  0.00  0.00    -0.190 N 
ATOM      7  H   UNL d   1      31.435 -15.031   0.908  0.00  0.00     0.178 HD
ATOM      8  H   UNL d   1      30.112 -17.945  -0.091  0.00  0.00     0.184 HD
ENDROOT
BRANCH   5   9
ATOM      9  C   UNL d   1      29.879 -13.709   1.446  0.00  0.00     0.178 C 
BRANCH   9  10
ATOM     10  C   UNL d   1      29.186 -14.000   2.774  0.00  0.00    -0.022 A 
ATOM     11  C   UNL d   1      29.846 -14.449   3.925  0.00  0.00     0.012 A 
ATOM     12  C   UNL d   1      29.147 -14.737   5.093  0.00  0.00     0.020 A 
ATOM     13  C   UNL d   1      27.784 -14.529   5.105  0.00  0.00     0.116 A 
ATOM     14  N   UNL d   1      27.097 -14.075   4.036  0.00  0.00    -0.273 NA
ATOM     15  C   UNL d   1      27.804 -13.826   2.903  0.00  0.00     0.124 A 
ENDBRANCH   9  10
ENDBRANCH   5   9
BRANCH   6  16
ATOM     16  C   UNL d   1      31.905 -17.418   0.703  0.00  0.00     0.055 A 
ATOM     17  C   UNL d   1      32.304 -16.833   1.922  0.00  0.00     0.031 A 
ATOM     18  C   UNL d   1      33.550 -17.110   2.493  0.00  0.00     0.009 A 
ATOM     19  C   UNL d   1      34.395 -18.043   1.897  0.00  0.00    -0.061 A 
ATOM     20  C   UNL d   1      35.659 -18.495   2.564  0.00  0.00     0.048 C 
ATOM     21  C   UNL d   1      34.029 -18.596   0.666  0.00  0.00     0.015 A 
ATOM     22  C   UNL d   1      32.813 -18.269   0.041  0.00  0.00    -0.034 A 
ATOM     23  C   UNL d   1      32.584 -18.815  -1.343  0.00  0.00     0.050 C 
ENDBRANCH   6  16
BRANCH   1  24
ATOM     24  C   UNL d   1      26.436 -16.887  -0.561  0.00  0.00     0.040 A 
ATOM     25  C   UNL d   1      26.083 -15.853  -1.425  0.00  0.00     0.054 A 
ATOM     26  C   UNL d   1      24.763 -15.708  -1.839  0.00  0.00     0.071 A 
ATOM     27  C   UNL d   1      23.774 -16.524  -1.269  0.00  0.00     0.073 A 
ATOM     28  C   UNL d   1      24.121 -17.536  -0.363  0.00  0.00     0.071 A 
ATOM     29  C   UNL d   1      25.458 -17.736  -0.041  0.00  0.00     0.054 A 
BRANCH  26  30
ATOM     30  O   UNL d   1      24.366 -14.825  -2.810  0.00  0.00    -0.356 OA
ATOM     31  C   UNL d   1      25.375 -14.448  -3.754  0.00  0.00     0.210 C 
ENDBRANCH  26  30
BRANCH  28  32
ATOM     32  O   UNL d   1      23.122 -18.360   0.087  0.00  0.00    -0.356 OA
ATOM     33  C   UNL d   1      22.111 -18.654  -0.880  0.00  0.00     0.210 C 
ENDBRANCH  28  32
ENDBRANCH   1  24
TORSDOF 6
ENDMDL
MODEL 4
REMARK VINA RESULT:    -7.688      2.655      8.030
REMARK INTER + INTRA:         -10.705
REMARK INTER:                  -9.478
REMARK INTRA:                  -1.227
REMARK CONF_INDEPENDENT:        1.790
REMARK UNBOUND:                -1.227
REMARK  6 active torsions:
REMARK  status: ('A' for Active; 'I' for Inactive)
REMARK    1  A    between atoms: O_2  and  C_3 
REMARK    2  A    between atoms: C_5  and  O_6 
REMARK    3  A    between atoms: C_9  and  C_10 
REMARK       I    between atoms: C_10  and  N_12 
REMARK       I    between atoms: N_12  and  C_13 
REMARK       I    between atoms: C_13  and  N_14 
REMARK       I    between atoms: C_13  and  N_22 
REMARK    4  A    between atoms: N_14  and  C_15 
REMARK    5  A    between atoms: C_15  and  C_16 
REMARK    6  A    between atoms: N_22  and  C_23 
ROOT
ATOM      1  C   UNL d   1      24.781 -14.751  -2.375  0.00  0.00     0.294 C 
ATOM      2  O   UNL d   1      24.036 -14.450  -3.300  0.00  0.00    -0.265 OA
ATOM      3  N   UNL d   1      25.910 -14.068  -1.992  0.00  0.00    -0.023 NA
ATOM      4  C   UNL d   1      26.198 -12.948  -2.575  0.00  0.00     0.704 C 
ATOM      5  N   UNL d   1      27.206 -12.176  -2.076  0.00  0.00    -0.220 N 
ATOM      6  N   UNL d   1      25.501 -12.367  -3.610  0.00  0.00    -0.190 N 
ATOM      7  H   UNL d   1      27.323 -11.322  -2.588  0.00  0.00     0.178 HD
ATOM      8  H   UNL d   1      24.708 -12.928  -3.936  0.00  0.00     0.184 HD
ENDROOT
BRANCH   5   9
ATOM      9  C   UNL d   1      28.313 -12.612  -1.242  0.00  0.00     0.178 C 
BRANCH   9  10
ATOM     10  C   UNL d   1      27.897 -12.968   0.182  0.00  0.00    -0.022 A 
ATOM     11  C   UNL d   1      28.234 -14.167   0.825  0.00  0.00     0.012 A 
ATOM     12  C   UNL d   1      27.785 -14.447   2.111  0.00  0.00     0.020 A 
ATOM     13  C   UNL d   1      27.030 -13.494   2.761  0.00  0.00     0.116 A 
ATOM     14  N   UNL d   1      26.695 -12.312   2.204  0.00  0.00    -0.273 NA
ATOM     15  C   UNL d   1      27.128 -12.077   0.937  0.00  0.00     0.124 A 
ENDBRANCH   9  10
ENDBRANCH   5   9
BRANCH   6  16
ATOM     16  C   UNL d   1      25.874 -11.385  -4.552  0.00  0.00     0.055 A 
ATOM     17  C   UNL d   1      26.326 -11.834  -5.810  0.00  0.00     0.031 A 
ATOM     18  C   UNL d   1      26.679 -10.938  -6.824  0.00  0.00     0.009 A 
ATOM     19  C   UNL d   1      26.512  -9.569  -6.630  0.00  0.00    -0.061 A 
ATOM     20  C   UNL d   1      26.715  -8.588  -7.745  0.00  0.00     0.048 C 
ATOM     21  C   UNL d   1      26.108  -9.111  -5.372  0.00  0.00     0.015 A 
ATOM     22  C   UNL d   1      25.823  -9.996  -4.318  0.00  0.00    -0.034 A 
ATOM     23  C   UNL d   1      25.530  -9.389  -2.972  0.00  0.00     0.050 C 
ENDBRANCH   6  16
BRANCH   1  24
ATOM     24  C   UNL d   1      24.463 -15.939  -1.544  0.00  0.00     0.040 A 
ATOM     25  C   UNL d   1      23.126 -16.221  -1.270  0.00  0.00     0.054 A 
ATOM     26  C   UNL d   1      22.781 -17.391  -0.603  0.00  0.00     0.071 A 
ATOM     27  C   UNL d   1      23.797 -18.210  -0.088  0.00  0.00     0.073 A 
ATOM     28  C   UNL d   1      25.145 -17.904  -0.322  0.00  0.00     0.071 A 
ATOM     29  C   UNL d   1      25.470 -16.786  -1.082  0.00  0.00     0.054 A 
BRANCH  26  30
ATOM     30  O   UNL d   1      21.488 -17.820  -0.442  0.00  0.00    -0.356 OA
ATOM     31  C   UNL d   1      21.291 -19.236  -0.529  0.00  0.00     0.210 C 
ENDBRANCH  26  30
BRANCH  28  32
ATOM     32  O   UNL d   1      26.089 -18.791   0.126  0.00  0.00    -0.356 OA
ATOM     33  C   UNL d   1      27.410 -18.256   0.230  0.00  0.00     0.210 C 
ENDBRANCH  28  32
ENDBRANCH   1  24
TORSDOF 6
ENDMDL
MODEL 5
REMARK VINA RESULT:    -7.683      3.287      5.989
REMARK INTER + INTRA:         -10.425
REMARK INTER:                  -9.473
REMARK INTRA:                  -0.952
REMARK CONF_INDEPENDENT:        1.790
REMARK UNBOUND:                -0.952
REMARK  6 active torsions:
REMARK  status: ('A' for Active; 'I' for Inactive)
REMARK    1  A    between atoms: O_2  and  C_3 
REMARK    2  A    between atoms: C_5  and  O_6 
REMARK    3  A    between atoms: C_9  and  C_10 
REMARK       I    between atoms: C_10  and  N_12 
REMARK       I    between atoms: N_12  and  C_13 
REMARK       I    between atoms: C_13  and  N_14 
REMARK       I    between atoms: C_13  and  N_22 
REMARK    4  A    between atoms: N_14  and  C_15 
REMARK    5  A    between atoms: C_15  and  C_16 
REMARK    6  A    between atoms: N_22  and  C_23 
ROOT
ATOM      1  C   UNL d   1      27.911 -17.134  -0.320  0.00  0.00     0.294 C 
ATOM      2  O   UNL d   1      28.479 -18.201  -0.523  0.00  0.00    -0.265 OA
ATOM      3  N   UNL d   1      28.483 -16.002   0.208  0.00  0.00    -0.023 NA
ATOM      4  C   UNL d   1      29.757 -15.989   0.442  0.00  0.00     0.704 C 
ATOM      5  N   UNL d   1      30.360 -14.816   0.788  0.00  0.00    -0.220 N 
ATOM      6  N   UNL d   1      30.628 -17.039   0.259  0.00  0.00    -0.190 N 
ATOM      7  H   UNL d   1      31.349 -14.917   0.917  0.00  0.00     0.178 HD
ATOM      8  H   UNL d   1      30.172 -17.900  -0.060  0.00  0.00     0.184 HD
ENDROOT
BRANCH   5   9
ATOM      9  C   UNL d   1      29.727 -13.643   1.366  0.00  0.00     0.178 C 
BRANCH   9  10
ATOM     10  C   UNL d   1      29.072 -13.910   2.718  0.00  0.00    -0.022 A 
ATOM     11  C   UNL d   1      29.743 -14.442   3.827  0.00  0.00     0.012 A 
ATOM     12  C   UNL d   1      29.074 -14.702   5.019  0.00  0.00     0.020 A 
ATOM     13  C   UNL d   1      27.736 -14.382   5.099  0.00  0.00     0.116 A 
ATOM     14  N   UNL d   1      27.042 -13.845   4.074  0.00  0.00    -0.273 NA
ATOM     15  C   UNL d   1      27.717 -13.626   2.915  0.00  0.00     0.124 A 
ENDBRANCH   9  10
ENDBRANCH   5   9
BRANCH   6  16
ATOM     16  C   UNL d   1      31.914 -17.289   0.786  0.00  0.00     0.055 A 
ATOM     17  C   UNL d   1      32.290 -16.571   1.940  0.00  0.00     0.031 A 
ATOM     18  C   UNL d   1      33.526 -16.779   2.560  0.00  0.00     0.009 A 
ATOM     19  C   UNL d   1      34.383 -17.768   2.085  0.00  0.00    -0.061 A 
ATOM     20  C   UNL d   1      35.636 -18.138   2.820  0.00  0.00     0.048 C 
ATOM     21  C   UNL d   1      34.041 -18.454   0.916  0.00  0.00     0.015 A 
ATOM     22  C   UNL d   1      32.835 -18.203   0.237  0.00  0.00    -0.034 A 
ATOM     23  C   UNL d   1      32.632 -18.899  -1.081  0.00  0.00     0.050 C 
ENDBRANCH   6  16
BRANCH   1  24
ATOM     24  C   UNL d   1      26.480 -16.992  -0.688  0.00  0.00     0.040 A 
ATOM     25  C   UNL d   1      25.560 -17.882  -0.138  0.00  0.00     0.054 A 
ATOM     26  C   UNL d   1      24.199 -17.705  -0.357  0.00  0.00     0.071 A 
ATOM     27  C   UNL d   1      23.773 -16.709  -1.249  0.00  0.00     0.073 A 
ATOM     28  C   UNL d   1      24.701 -15.840  -1.841  0.00  0.00     0.071 A 
ATOM     29  C   UNL d   1      26.050 -15.964  -1.527  0.00  0.00     0.054 A 
BRANCH  26  30
ATOM     30  O   UNL d   1      23.226 -18.434   0.280  0.00  0.00    -0.356 OA
ATOM     31  C   UNL d   1      21.987 -18.561  -0.427  0.00  0.00     0.210 C 
ENDBRANCH  26  30
BRANCH  28  32
ATOM     32  O   UNL d   1      24.217 -14.829  -2.629  0.00  0.00    -0.356 OA
ATOM     33  C   UNL d   1      25.155 -14.303  -3.570  0.00  0.00     0.210 C 
ENDBRANCH  28  32
ENDBRANCH   1  24
TORSDOF 6
ENDMDL
MODEL 6
REMARK VINA RESULT:    -7.633      2.625      3.247
REMARK INTER + INTRA:         -10.516
REMARK INTER:                  -9.423
REMARK INTRA:                  -1.093
REMARK CONF_INDEPENDENT:        1.790
REMARK UNBOUND:                -1.093
REMARK  6 active torsions:
REMARK  status: ('A' for Active; 'I' for Inactive)
REMARK    1  A    between atoms: O_2  and  C_3 
REMARK    2  A    between atoms: C_5  and  O_6 
REMARK    3  A    between atoms: C_9  and  C_10 
REMARK       I    between atoms: C_10  and  N_12 
REMARK       I    between atoms: N_12  and  C_13 
REMARK       I    between atoms: C_13  and  N_14 
REMARK       I    between atoms: C_13  and  N_22 
REMARK    4  A    between atoms: N_14  and  C_15 
REMARK    5  A    between atoms: C_15  and  C_16 
REMARK    6  A    between atoms: N_22  and  C_23 
ROOT
ATOM      1  C   UNL d   1      29.276 -14.916  -1.381  0.00  0.00     0.294 C 
ATOM      2  O   UNL d   1      29.862 -13.936  -0.938  0.00  0.00    -0.265 OA
ATOM      3  N   UNL d   1      28.519 -15.802  -0.654  0.00  0.00    -0.023 NA
ATOM      4  C   UNL d   1      28.303 -15.566   0.601  0.00  0.00     0.704 C 
ATOM      5  N   UNL d   1      27.405 -16.335   1.281  0.00  0.00    -0.220 N 
ATOM      6  N   UNL d   1      28.808 -14.512   1.328  0.00  0.00    -0.190 N 
ATOM      7  H   UNL d   1      27.298 -16.046   2.235  0.00  0.00     0.178 HD
ATOM      8  H   UNL d   1      29.435 -13.905   0.791  0.00  0.00     0.184 HD
ENDROOT
BRANCH   5   9
ATOM      9  C   UNL d   1      26.958 -17.674   0.933  0.00  0.00     0.178 C 
BRANCH   9  10
ATOM     10  C   UNL d   1      25.689 -17.691   0.088  0.00  0.00    -0.022 A 
ATOM     11  C   UNL d   1      25.607 -17.196  -1.221  0.00  0.00     0.012 A 
ATOM     12  C   UNL d   1      24.405 -17.202  -1.921  0.00  0.00     0.020 A 
ATOM     13  C   UNL d   1      23.297 -17.748  -1.311  0.00  0.00     0.116 A 
ATOM     14  N   UNL d   1      23.319 -18.262  -0.063  0.00  0.00    -0.273 NA
ATOM     15  C   UNL d   1      24.502 -18.219   0.605  0.00  0.00     0.124 A 
ENDBRANCH   9  10
ENDBRANCH   5   9
BRANCH   6  16
ATOM     16  C   UNL d   1      28.960 -14.325   2.720  0.00  0.00     0.055 A 
ATOM     17  C   UNL d   1      27.802 -14.003   3.459  0.00  0.00     0.031 A 
ATOM     18  C   UNL d   1      27.843 -13.840   4.847  0.00  0.00     0.009 A 
ATOM     19  C   UNL d   1      29.028 -14.072   5.539  0.00  0.00    -0.061 A 
ATOM     20  C   UNL d   1      29.074 -14.075   7.037  0.00  0.00     0.048 C 
ATOM     21  C   UNL d   1      30.191 -14.347   4.813  0.00  0.00     0.015 A 
ATOM     22  C   UNL d   1      30.183 -14.440   3.410  0.00  0.00    -0.034 A 
ATOM     23  C   UNL d   1      31.513 -14.603   2.725  0.00  0.00     0.050 C 
ENDBRANCH   6  16
BRANCH   1  24
ATOM     24  C   UNL d   1      29.335 -15.201  -2.837  0.00  0.00     0.040 A 
ATOM     25  C   UNL d   1      28.144 -15.217  -3.560  0.00  0.00     0.054 A 
ATOM     26  C   UNL d   1      28.168 -15.355  -4.944  0.00  0.00     0.071 A 
ATOM     27  C   UNL d   1      29.389 -15.618  -5.584  0.00  0.00     0.073 A 
ATOM     28  C   UNL d   1      30.584 -15.648  -4.852  0.00  0.00     0.071 A 
ATOM     29  C   UNL d   1      30.554 -15.402  -3.484  0.00  0.00     0.054 A 
BRANCH  26  30
ATOM     30  O   UNL d   1      27.059 -15.216  -5.739  0.00  0.00    -0.356 OA
ATOM     31  C   UNL d   1      25.799 -15.340  -5.071  0.00  0.00     0.210 C 
ENDBRANCH  26  30
BRANCH  28  32
ATOM     32  O   UNL d   1      31.754 -15.816  -5.546  0.00  0.00    -0.356 OA
ATOM     33  C   UNL d   1      31.600 -15.889  -6.965  0.00  0.00     0.210 C 
ENDBRANCH  28  32
ENDBRANCH   1  24
TORSDOF 6
ENDMDL
MODEL 7
REMARK VINA RESULT:    -7.598      2.859      8.224
REMARK INTER + INTRA:         -10.721
REMARK INTER:                  -9.388
REMARK INTRA:                  -1.334
REMARK CONF_INDEPENDENT:        1.790
REMARK UNBOUND:                -1.334
REMARK  6 active torsions:
REMARK  status: ('A' for Active; 'I' for Inactive)
REMARK    1  A    between atoms: O_2  and  C_3 
REMARK    2  A    between atoms: C_5  and  O_6 
REMARK    3  A    between atoms: C_9  and  C_10 
REMARK       I    between atoms: C_10  and  N_12 
REMARK       I    between atoms: N_12  and  C_13 
REMARK       I    between atoms: C_13  and  N_14 
REMARK       I    between atoms: C_13  and  N_22 
REMARK    4  A    between atoms: N_14  and  C_15 
REMARK    5  A    between atoms: C_15  and  C_16 
REMARK    6  A    between atoms: N_22  and  C_23 
ROOT
ATOM      1  C   UNL d   1      25.116 -14.363  -2.923  0.00  0.00     0.294 C 
ATOM      2  O   UNL d   1      24.383 -14.174  -3.886  0.00  0.00    -0.265 OA
ATOM      3  N   UNL d   1      26.122 -13.531  -2.496  0.00  0.00    -0.023 NA
ATOM      4  C   UNL d   1      26.285 -12.387  -3.080  0.00  0.00     0.704 C 
ATOM      5  N   UNL d   1      27.153 -11.481  -2.546  0.00  0.00    -0.220 N 
ATOM      6  N   UNL d   1      25.566 -11.913  -4.155  0.00  0.00    -0.190 N 
ATOM      7  H   UNL d   1      27.178 -10.622  -3.063  0.00  0.00     0.178 HD
ATOM      8  H   UNL d   1      24.873 -12.579  -4.511  0.00  0.00     0.184 HD
ENDROOT
BRANCH   5   9
ATOM      9  C   UNL d   1      28.266 -11.756  -1.654  0.00  0.00     0.178 C 
BRANCH   9  10
ATOM     10  C   UNL d   1      27.840 -12.350  -0.315  0.00  0.00    -0.022 A 
ATOM     11  C   UNL d   1      27.848 -13.722  -0.024  0.00  0.00     0.012 A 
ATOM     12  C   UNL d   1      27.405 -14.201   1.204  0.00  0.00     0.020 A 
ATOM     13  C   UNL d   1      26.994 -13.288   2.152  0.00  0.00     0.116 A 
ATOM     14  N   UNL d   1      26.988 -11.955   1.939  0.00  0.00    -0.273 NA
ATOM     15  C   UNL d   1      27.403 -11.519   0.720  0.00  0.00     0.124 A 
ENDBRANCH   9  10
ENDBRANCH   5   9
BRANCH   6  16
ATOM     16  C   UNL d   1      25.849 -10.896  -5.093  0.00  0.00     0.055 A 
ATOM     17  C   UNL d   1      26.421 -11.289  -6.320  0.00  0.00     0.031 A 
ATOM     18  C   UNL d   1      26.698 -10.361  -7.329  0.00  0.00     0.009 A 
ATOM     19  C   UNL d   1      26.336  -9.027  -7.163  0.00  0.00    -0.061 A 
ATOM     20  C   UNL d   1      26.459  -8.036  -8.281  0.00  0.00     0.048 C 
ATOM     21  C   UNL d   1      25.810  -8.618  -5.933  0.00  0.00     0.015 A 
ATOM     22  C   UNL d   1      25.595  -9.526  -4.882  0.00  0.00    -0.034 A 
ATOM     23  C   UNL d   1      25.155  -8.955  -3.561  0.00  0.00     0.050 C 
ENDBRANCH   6  16
BRANCH   1  24
ATOM     24  C   UNL d   1      24.922 -15.578  -2.091  0.00  0.00     0.040 A 
ATOM     25  C   UNL d   1      26.044 -16.317  -1.722  0.00  0.00     0.054 A 
ATOM     26  C   UNL d   1      25.918 -17.386  -0.842  0.00  0.00     0.071 A 
ATOM     27  C   UNL d   1      24.637 -17.797  -0.443  0.00  0.00     0.073 A 
ATOM     28  C   UNL d   1      23.502 -17.082  -0.851  0.00  0.00     0.071 A 
ATOM     29  C   UNL d   1      23.655 -15.952  -1.645  0.00  0.00     0.054 A 
BRANCH  26  30
ATOM     30  O   UNL d   1      26.988 -18.056  -0.303  0.00  0.00    -0.356 OA
ATOM     31  C   UNL d   1      28.184 -17.284  -0.145  0.00  0.00     0.210 C 
ENDBRANCH  26  30
BRANCH  28  32
ATOM     32  O   UNL d   1      22.287 -17.476  -0.353  0.00  0.00    -0.356 OA
ATOM     33  C   UNL d   1      21.971 -18.853  -0.569  0.00  0.00     0.210 C 
ENDBRANCH  28  32
ENDBRANCH   1  24
TORSDOF 6
ENDMDL
MODEL 8
REMARK VINA RESULT:    -7.478      4.071      6.640
REMARK INTER + INTRA:         -10.417
REMARK INTER:                  -9.268
REMARK INTRA:                  -1.149
REMARK CONF_INDEPENDENT:        1.790
REMARK UNBOUND:                -1.149
REMARK  6 active torsions:
REMARK  status: ('A' for Active; 'I' for Inactive)
REMARK    1  A    between atoms: O_2  and  C_3 
REMARK    2  A    between atoms: C_5  and  O_6 
REMARK    3  A    between atoms: C_9  and  C_10 
REMARK       I    between atoms: C_10  and  N_12 
REMARK       I    between atoms: N_12  and  C_13 
REMARK       I    between atoms: C_13  and  N_14 
REMARK       I    between atoms: C_13  and  N_22 
REMARK    4  A    between atoms: N_14  and  C_15 
REMARK    5  A    between atoms: C_15  and  C_16 
REMARK    6  A    between atoms: N_22  and  C_23 
ROOT
ATOM      1  C   UNL d   1      27.514 -17.460  -0.521  0.00  0.00     0.294 C 
ATOM      2  O   UNL d   1      27.779 -18.418   0.195  0.00  0.00    -0.265 OA
ATOM      3  N   UNL d   1      28.419 -16.693  -1.213  0.00  0.00    -0.023 NA
ATOM      4  C   UNL d   1      29.668 -17.036  -1.210  0.00  0.00     0.704 C 
ATOM      5  N   UNL d   1      30.539 -16.394  -2.041  0.00  0.00    -0.220 N 
ATOM      6  N   UNL d   1      30.219 -18.096  -0.525  0.00  0.00    -0.190 N 
ATOM      7  H   UNL d   1      31.471 -16.759  -1.976  0.00  0.00     0.178 HD
ATOM      8  H   UNL d   1      29.544 -18.609   0.049  0.00  0.00     0.184 HD
ENDROOT
BRANCH   5   9
ATOM      9  C   UNL d   1      30.377 -15.075  -2.629  0.00  0.00     0.178 C 
BRANCH   9  10
ATOM     10  C   UNL d   1      29.769 -15.103  -4.028  0.00  0.00    -0.022 A 
ATOM     11  C   UNL d   1      30.500 -14.909  -5.208  0.00  0.00     0.012 A 
ATOM     12  C   UNL d   1      29.876 -14.904  -6.451  0.00  0.00     0.020 A 
ATOM     13  C   UNL d   1      28.518 -15.138  -6.500  0.00  0.00     0.116 A 
ATOM     14  N   UNL d   1      27.766 -15.356  -5.401  0.00  0.00    -0.273 NA
ATOM     15  C   UNL d   1      28.400 -15.330  -4.199  0.00  0.00     0.124 A 
ENDBRANCH   9  10
ENDBRANCH   5   9
BRANCH   6  16
ATOM     16  C   UNL d   1      31.551 -18.370  -0.143  0.00  0.00     0.055 A 
ATOM     17  C   UNL d   1      32.083 -19.623  -0.509  0.00  0.00     0.031 A 
ATOM     18  C   UNL d   1      33.405 -19.971  -0.213  0.00  0.00     0.009 A 
ATOM     19  C   UNL d   1      34.250 -19.041   0.387  0.00  0.00    -0.061 A 
ATOM     20  C   UNL d   1      35.713 -19.312   0.566  0.00  0.00     0.048 C 
ATOM     21  C   UNL d   1      33.720 -17.813   0.795  0.00  0.00     0.015 A 
ATOM     22  C   UNL d   1      32.373 -17.477   0.572  0.00  0.00    -0.034 A 
ATOM     23  C   UNL d   1      31.879 -16.189   1.173  0.00  0.00     0.050 C 
ENDBRANCH   6  16
BRANCH   1  24
ATOM     24  C   UNL d   1      26.095 -17.067  -0.713  0.00  0.00     0.040 A 
ATOM     25  C   UNL d   1      25.811 -15.981  -1.538  0.00  0.00     0.054 A 
ATOM     26  C   UNL d   1      24.493 -15.660  -1.843  0.00  0.00     0.071 A 
ATOM     27  C   UNL d   1      23.455 -16.351  -1.201  0.00  0.00     0.073 A 
ATOM     28  C   UNL d   1      23.738 -17.415  -0.333  0.00  0.00     0.071 A 
ATOM     29  C   UNL d   1      25.060 -17.791  -0.122  0.00  0.00     0.054 A 
BRANCH  26  30
ATOM     30  O   UNL d   1      24.138 -14.716  -2.773  0.00  0.00    -0.356 OA
ATOM     31  C   UNL d   1      25.162 -14.351  -3.705  0.00  0.00     0.210 C 
ENDBRANCH  26  30
BRANCH  28  32
ATOM     32  O   UNL d   1      22.680 -18.111   0.191  0.00  0.00    -0.356 OA
ATOM     33  C   UNL d   1      21.938 -18.875  -0.762  0.00  0.00     0.210 C 
ENDBRANCH  28  32
ENDBRANCH   1  24
TORSDOF 6
ENDMDL
MODEL 9
REMARK VINA RESULT:    -7.347      4.142      8.340
REMARK INTER + INTRA:         -10.442
REMARK INTER:                  -9.136
REMARK INTRA:                  -1.306
REMARK CONF_INDEPENDENT:        1.790
REMARK UNBOUND:                -1.306
REMARK  6 active torsions:
REMARK  status: ('A' for Active; 'I' for Inactive)
REMARK    1  A    between atoms: O_2  and  C_3 
REMARK    2  A    between atoms: C_5  and  O_6 
REMARK    3  A    between atoms: C_9  and  C_10 
REMARK       I    between atoms: C_10  and  N_12 
REMARK       I    between atoms: N_12  and  C_13 
REMARK       I    between atoms: C_13  and  N_14 
REMARK       I    between atoms: C_13  and  N_22 
REMARK    4  A    between atoms: N_14  and  C_15 
REMARK    5  A    between atoms: C_15  and  C_16 
REMARK    6  A    between atoms: N_22  and  C_23 
ROOT
ATOM      1  C   UNL d   1      25.111 -14.433  -2.917  0.00  0.00     0.294 C 
ATOM      2  O   UNL d   1      24.159 -13.933  -3.504  0.00  0.00    -0.265 OA
ATOM      3  N   UNL d   1      26.403 -13.967  -2.929  0.00  0.00    -0.023 NA
ATOM      4  C   UNL d   1      26.665 -12.849  -3.528  0.00  0.00     0.704 C 
ATOM      5  N   UNL d   1      27.900 -12.288  -3.386  0.00  0.00    -0.220 N 
ATOM      6  N   UNL d   1      25.768 -12.069  -4.223  0.00  0.00    -0.190 N 
ATOM      7  H   UNL d   1      27.982 -11.413  -3.869  0.00  0.00     0.178 HD
ATOM      8  H   UNL d   1      24.827 -12.471  -4.271  0.00  0.00     0.184 HD
ENDROOT
BRANCH   5   9
ATOM      9  C   UNL d   1      29.132 -12.965  -3.017  0.00  0.00     0.178 C 
BRANCH   9  10
ATOM     10  C   UNL d   1      29.321 -14.308  -3.715  0.00  0.00    -0.022 A 
ATOM     11  C   UNL d   1      29.832 -15.455  -3.092  0.00  0.00     0.012 A 
ATOM     12  C   UNL d   1      30.019 -16.638  -3.799  0.00  0.00     0.020 A 
ATOM     13  C   UNL d   1      29.649 -16.671  -5.126  0.00  0.00     0.116 A 
ATOM     14  N   UNL d   1      29.129 -15.607  -5.774  0.00  0.00    -0.273 NA
ATOM     15  C   UNL d   1      28.981 -14.458  -5.063  0.00  0.00     0.124 A 
ENDBRANCH   9  10
ENDBRANCH   5   9
BRANCH   6  16
ATOM     16  C   UNL d   1      25.962 -11.062  -5.194  0.00  0.00     0.055 A 
ATOM     17  C   UNL d   1      26.540 -11.449  -6.420  0.00  0.00     0.031 A 
ATOM     18  C   UNL d   1      26.734 -10.533  -7.459  0.00  0.00     0.009 A 
ATOM     19  C   UNL d   1      26.280  -9.224  -7.324  0.00  0.00    -0.061 A 
ATOM     20  C   UNL d   1      26.313  -8.261  -8.472  0.00  0.00     0.048 C 
ATOM     21  C   UNL d   1      25.745  -8.818  -6.097  0.00  0.00     0.015 A 
ATOM     22  C   UNL d   1      25.614  -9.708  -5.017  0.00  0.00    -0.034 A 
ATOM     23  C   UNL d   1      25.155  -9.131  -3.705  0.00  0.00     0.050 C 
ENDBRANCH   6  16
BRANCH   1  24
ATOM     24  C   UNL d   1      24.895 -15.639  -2.079  0.00  0.00     0.040 A 
ATOM     25  C   UNL d   1      26.005 -16.387  -1.692  0.00  0.00     0.054 A 
ATOM     26  C   UNL d   1      25.858 -17.448  -0.806  0.00  0.00     0.071 A 
ATOM     27  C   UNL d   1      24.569 -17.843  -0.419  0.00  0.00     0.073 A 
ATOM     28  C   UNL d   1      23.445 -17.120  -0.844  0.00  0.00     0.071 A 
ATOM     29  C   UNL d   1      23.619 -15.997  -1.645  0.00  0.00     0.054 A 
BRANCH  26  30
ATOM     30  O   UNL d   1      26.915 -18.125  -0.250  0.00  0.00    -0.356 OA
ATOM     31  C   UNL d   1      28.175 -17.445  -0.292  0.00  0.00     0.210 C 
ENDBRANCH  26  30
BRANCH  28  32
ATOM     32  O   UNL d   1      22.221 -17.498  -0.358  0.00  0.00    -0.356 OA
ATOM     33  C   UNL d   1      21.933 -18.892  -0.485  0.00  0.00     0.210 C 
ENDBRANCH  28  32
ENDBRANCH   1  24
TORSDOF 6
ENDMDL
