MODEL 1
REMARK VINA RESULT:    -7.740      0.000      0.000
REMARK INTER + INTRA:         -11.315
REMARK INTER:                  -9.530
REMARK INTRA:                  -1.785
REMARK CONF_INDEPENDENT:        1.790
REMARK UNBOUND:                -1.785
REMARK  6 active torsions:
REMARK  status: ('A' for Active; 'I' for Inactive)
REMARK    1  A    between atoms: C_4  and  N_5 
REMARK    2  A    between atoms: N_8  and  C_9 
REMARK    3  A    between atoms: C_9  and  C_10 
REMARK       I    between atoms: C_10  and  N_12 
REMARK    4  A    between atoms: N_12  and  C_13 
REMARK    5  A    between atoms: C_18  and  N_19 
REMARK    6  A    between atoms: C_30  and  C_31 
ROOT
ATOM      1  C   UNL d   1      28.160 -13.576  -3.426  0.00  0.00     0.250 C 
ATOM      2  O   UNL d   1      27.119 -12.969  -3.173  0.00  0.00    -0.271 OA
ATOM      3  N   UNL d   1      28.235 -14.930  -3.174  0.00  0.00    -0.323 N 
ATOM      4  H   UNL d   1      29.159 -15.388  -3.182  0.00  0.00     0.169 HD
ENDROOT
BRANCH   1   5
ATOM      5  C   UNL d   1      29.372 -12.874  -4.090  0.00  0.00     0.375 C 
BRANCH   5   6
ATOM      6  N   UNL d   1      29.177 -12.800  -5.570  0.00  0.00     0.100 N 
ATOM      7  C   UNL d   1      30.471 -12.615  -6.256  0.00  0.00     0.293 C 
ATOM      8  C   UNL d   1      31.435 -13.831  -6.061  0.00  0.00     0.154 C 
ATOM      9  N   UNL d   1      30.785 -15.072  -6.541  0.00  0.00    -0.362 N 
ATOM     10  C   UNL d   1      29.516 -15.282  -5.843  0.00  0.00     0.154 C 
ATOM     11  C   UNL d   1      28.601 -14.071  -6.065  0.00  0.00     0.293 C 
BRANCH   9  12
ATOM     12  C   UNL d   1      31.314 -16.138  -7.255  0.00  0.00     0.129 A 
ATOM     13  C   UNL d   1      32.396 -15.913  -8.102  0.00  0.00     0.075 A 
ATOM     14  C   UNL d   1      32.957 -16.941  -8.871  0.00  0.00     0.010 A 
ATOM     15  C   UNL d   1      34.125 -16.676  -9.764  0.00  0.00     0.068 C 
ATOM     16  N   UNL d   1      32.434 -18.175  -8.806  0.00  0.00    -0.348 N 
ATOM     17  C   UNL d   1      31.382 -18.386  -7.994  0.00  0.00     0.110 A 
ATOM     18  H   UNL d   1      32.833 -18.939  -9.358  0.00  0.00     0.167 HD
ATOM     19  N   UNL d   1      30.822 -17.386  -7.211  0.00  0.00    -0.218 NA
BRANCH  17  20
ATOM     20  C   UNL d   1      30.804 -19.789  -7.923  0.00  0.00     0.047 C 
ATOM     21  C   UNL d   1      31.821 -20.817  -8.397  0.00  0.00     0.017 C 
ATOM     22  C   UNL d   1      30.405 -20.117  -6.494  0.00  0.00     0.017 C 
ENDBRANCH  17  20
ENDBRANCH   9  12
ENDBRANCH   5   6
ENDBRANCH   1   5
BRANCH   3  23
ATOM     23  C   UNL d   1      27.169 -15.626  -2.472  0.00  0.00     0.070 C 
ATOM     24  C   UNL d   1      27.273 -16.290  -1.138  0.00  0.00     0.064 C 
ATOM     25  C   UNL d   1      26.123 -17.067  -0.621  0.00  0.00     0.070 A 
ATOM     26  C   UNL d   1      25.081 -16.831  -1.359  0.00  0.00     0.098 A 
ATOM     27  N   UNL d   1      25.370 -18.104   0.481  0.00  0.00    -0.323 N 
ATOM     28  C   UNL d   1      24.849 -16.107  -2.405  0.00  0.00     0.077 C 
ATOM     29  O   UNL d   1      24.144 -17.516  -0.826  0.00  0.00    -0.340 OA
ATOM     30  C   UNL d   1      25.915 -15.615  -3.072  0.00  0.00     0.132 C 
ATOM     31  C   UNL d   1      22.955 -17.739  -1.125  0.00  0.00     0.278 A 
ATOM     32  C   UNL d   1      23.556 -18.575   0.256  0.00  0.00     0.246 A 
ATOM     33  O   UNL d   1      22.340 -18.881   0.090  0.00  0.00    -0.271 OA
ATOM     34  H   UNL d   1      26.235 -18.231   1.038  0.00  0.00     0.169 HD
BRANCH  30  35
ATOM     35  N   UNL d   1      25.635 -15.123  -4.408  0.00  0.00    -0.113 N 
ATOM     36  O   UNL d   1      24.756 -14.258  -4.529  0.00  0.00    -0.532 OA
ATOM     37  O   UNL d   1      26.298 -15.575  -5.350  0.00  0.00    -0.532 OA
ENDBRANCH  30  35
ENDBRANCH   3  23
TORSDOF 6
ENDMDL
MODEL 2
REMARK VINA RESULT:    -7.648      7.265      9.861
REMARK INTER + INTRA:         -11.242
REMARK INTER:                  -9.437
REMARK INTRA:                  -1.804
REMARK CONF_INDEPENDENT:        1.790
REMARK UNBOUND:                -1.804
REMARK  6 active torsions:
REMARK  status: ('A' for Active; 'I' for Inactive)
REMARK    1  A    between atoms: C_4  and  N_5 
REMARK    2  A    between atoms: N_8  and  C_9 
REMARK    3  A    between atoms: C_9  and  C_10 
REMARK       I    between atoms: C_10  and  N_12 
REMARK    4  A    between atoms: N_12  and  C_13 
REMARK    5  A    between atoms: C_18  and  N_19 
REMARK    6  A    between atoms: C_30  and  C_31 
ROOT
ATOM      1  C   UNL d   1      30.619 -14.058   3.864  0.00  0.00     0.250 C 
ATOM      2  O   UNL d   1      30.970 -12.911   4.137  0.00  0.00    -0.271 OA
ATOM      3  N   UNL d   1      29.881 -14.779   4.780  0.00  0.00    -0.323 N 
ATOM      4  H   UNL d   1      29.774 -15.796   4.645  0.00  0.00     0.169 HD
ENDROOT
BRANCH   1   5
ATOM      5  C   UNL d   1      30.922 -14.697   2.484  0.00  0.00     0.375 C 
BRANCH   5   6
ATOM      6  N   UNL d   1      30.534 -13.759   1.387  0.00  0.00     0.100 N 
ATOM      7  C   UNL d   1      30.672 -14.415   0.071  0.00  0.00     0.293 C 
ATOM      8  C   UNL d   1      29.697 -15.626  -0.103  0.00  0.00     0.154 C 
ATOM      9  N   UNL d   1      28.298 -15.180   0.093  0.00  0.00    -0.362 N 
ATOM     10  C   UNL d   1      28.145 -14.558   1.409  0.00  0.00     0.154 C 
ATOM     11  C   UNL d   1      29.113 -13.374   1.534  0.00  0.00     0.293 C 
BRANCH   9  12
ATOM     12  C   UNL d   1      27.146 -15.529  -0.595  0.00  0.00     0.129 A 
ATOM     13  C   UNL d   1      26.373 -16.588  -0.126  0.00  0.00     0.075 A 
ATOM     14  C   UNL d   1      25.213 -17.008  -0.791  0.00  0.00     0.010 A 
ATOM     15  C   UNL d   1      24.396 -18.139  -0.260  0.00  0.00     0.068 C 
ATOM     16  N   UNL d   1      24.839 -16.387  -1.920  0.00  0.00    -0.348 N 
ATOM     17  C   UNL d   1      25.594 -15.371  -2.377  0.00  0.00     0.110 A 
ATOM     18  H   UNL d   1      23.993 -16.678  -2.418  0.00  0.00     0.167 HD
ATOM     19  N   UNL d   1      26.736 -14.928  -1.724  0.00  0.00    -0.218 NA
BRANCH  17  20
ATOM     20  C   UNL d   1      25.155 -14.671  -3.652  0.00  0.00     0.047 C 
ATOM     21  C   UNL d   1      25.383 -13.170  -3.548  0.00  0.00     0.017 C 
ATOM     22  C   UNL d   1      25.941 -15.206  -4.837  0.00  0.00     0.017 C 
ENDBRANCH  17  20
ENDBRANCH   9  12
ENDBRANCH   5   6
ENDBRANCH   1   5
BRANCH   3  23
ATOM     23  C   UNL d   1      29.642 -14.272   6.121  0.00  0.00     0.070 C 
ATOM     24  C   UNL d   1      30.532 -14.450   7.308  0.00  0.00     0.064 C 
ATOM     25  C   UNL d   1      30.078 -13.977   8.635  0.00  0.00     0.070 A 
ATOM     26  C   UNL d   1      29.018 -13.240   8.487  0.00  0.00     0.098 A 
ATOM     27  N   UNL d   1      30.210 -13.821  10.313  0.00  0.00    -0.323 N 
ATOM     28  C   UNL d   1      28.306 -12.860   7.478  0.00  0.00     0.077 C 
ATOM     29  O   UNL d   1      28.719 -12.861   9.670  0.00  0.00    -0.340 OA
ATOM     30  C   UNL d   1      28.507 -13.489   6.299  0.00  0.00     0.132 C 
ATOM     31  C   UNL d   1      27.781 -12.202  10.157  0.00  0.00     0.278 A 
ATOM     32  C   UNL d   1      28.918 -12.844  11.281  0.00  0.00     0.246 A 
ATOM     33  O   UNL d   1      28.043 -12.187  11.915  0.00  0.00    -0.271 OA
ATOM     34  H   UNL d   1      31.067 -14.402  10.355  0.00  0.00     0.169 HD
BRANCH  30  35
ATOM     35  N   UNL d   1      27.467 -13.291   5.307  0.00  0.00    -0.113 N 
ATOM     36  O   UNL d   1      26.683 -14.228   5.104  0.00  0.00    -0.532 OA
ATOM     37  O   UNL d   1      27.405 -12.197   4.733  0.00  0.00    -0.532 OA
ENDBRANCH  30  35
ENDBRANCH   3  23
TORSDOF 6
ENDMDL
MODEL 3
REMARK VINA RESULT:    -7.632      7.136      9.733
REMARK INTER + INTRA:         -11.198
REMARK INTER:                  -9.422
REMARK INTRA:                  -1.776
REMARK CONF_INDEPENDENT:        1.790
REMARK UNBOUND:                -1.776
REMARK  6 active torsions:
REMARK  status: ('A' for Active; 'I' for Inactive)
REMARK    1  A    between atoms: C_4  and  N_5 
REMARK    2  A    between atoms: N_8  and  C_9 
REMARK    3  A    between atoms: C_9  and  C_10 
REMARK       I    between atoms: C_10  and  N_12 
REMARK    4  A    between atoms: N_12  and  C_13 
REMARK    5  A    between atoms: C_18  and  N_19 
REMARK    6  A    between atoms: C_30  and  C_31 
ROOT
ATOM      1  C   UNL d   1      30.658 -13.968   3.666  0.00  0.00     0.250 C 
ATOM      2  O   UNL d   1      31.176 -12.913   4.033  0.00  0.00    -0.271 OA
ATOM      3  N   UNL d   1      29.772 -14.615   4.500  0.00  0.00    -0.323 N 
ATOM      4  H   UNL d   1      29.509 -15.591   4.289  0.00  0.00     0.169 HD
ENDROOT
BRANCH   1   5
ATOM      5  C   UNL d   1      30.920 -14.557   2.256  0.00  0.00     0.375 C 
BRANCH   5   6
ATOM      6  N   UNL d   1      30.508 -13.578   1.204  0.00  0.00     0.100 N 
ATOM      7  C   UNL d   1      30.623 -14.180  -0.139  0.00  0.00     0.293 C 
ATOM      8  C   UNL d   1      29.649 -15.387  -0.343  0.00  0.00     0.154 C 
ATOM      9  N   UNL d   1      28.253 -14.955  -0.103  0.00  0.00    -0.362 N 
ATOM     10  C   UNL d   1      28.122 -14.386   1.240  0.00  0.00     0.154 C 
ATOM     11  C   UNL d   1      29.088 -13.205   1.394  0.00  0.00     0.293 C 
BRANCH   9  12
ATOM     12  C   UNL d   1      27.088 -15.281  -0.783  0.00  0.00     0.129 A 
ATOM     13  C   UNL d   1      26.649 -14.447  -1.808  0.00  0.00     0.075 A 
ATOM     14  C   UNL d   1      25.466 -14.706  -2.514  0.00  0.00     0.010 A 
ATOM     15  C   UNL d   1      25.022 -13.802  -3.617  0.00  0.00     0.068 C 
ATOM     16  N   UNL d   1      24.724 -15.776  -2.188  0.00  0.00    -0.348 N 
ATOM     17  C   UNL d   1      25.147 -16.574  -1.191  0.00  0.00     0.110 A 
ATOM     18  H   UNL d   1      23.859 -15.983  -2.695  0.00  0.00     0.167 HD
ATOM     19  N   UNL d   1      26.324 -16.345  -0.491  0.00  0.00    -0.218 NA
BRANCH  17  20
ATOM     20  C   UNL d   1      24.302 -17.786  -0.838  0.00  0.00     0.047 C 
ATOM     21  C   UNL d   1      24.536 -18.204   0.607  0.00  0.00     0.017 C 
ATOM     22  C   UNL d   1      22.829 -17.467  -1.024  0.00  0.00     0.017 C 
ENDBRANCH  17  20
ENDBRANCH   9  12
ENDBRANCH   5   6
ENDBRANCH   1   5
BRANCH   3  23
ATOM     23  C   UNL d   1      29.554 -14.163   5.866  0.00  0.00     0.070 C 
ATOM     24  C   UNL d   1      30.434 -14.440   7.041  0.00  0.00     0.064 C 
ATOM     25  C   UNL d   1      29.999 -14.011   8.390  0.00  0.00     0.070 A 
ATOM     26  C   UNL d   1      28.975 -13.220   8.279  0.00  0.00     0.098 A 
ATOM     27  N   UNL d   1      30.136 -13.943  10.074  0.00  0.00    -0.323 N 
ATOM     28  C   UNL d   1      28.282 -12.760   7.290  0.00  0.00     0.077 C 
ATOM     29  O   UNL d   1      28.692 -12.886   9.479  0.00  0.00    -0.340 OA
ATOM     30  C   UNL d   1      28.457 -13.339   6.082  0.00  0.00     0.132 C 
ATOM     31  C   UNL d   1      27.784 -12.209   9.998  0.00  0.00     0.278 A 
ATOM     32  C   UNL d   1      28.889 -12.956  11.089  0.00  0.00     0.246 A 
ATOM     33  O   UNL d   1      28.044 -12.291  11.755  0.00  0.00    -0.271 OA
ATOM     34  H   UNL d   1      30.965 -14.565  10.087  0.00  0.00     0.169 HD
BRANCH  30  35
ATOM     35  N   UNL d   1      27.428 -13.046   5.101  0.00  0.00    -0.113 N 
ATOM     36  O   UNL d   1      27.408 -11.906   4.614  0.00  0.00    -0.532 OA
ATOM     37  O   UNL d   1      26.641 -13.948   4.789  0.00  0.00    -0.532 OA
ENDBRANCH  30  35
ENDBRANCH   3  23
TORSDOF 6
ENDMDL
MODEL 4
REMARK VINA RESULT:    -7.516      5.890      9.382
REMARK INTER + INTRA:         -11.273
REMARK INTER:                  -9.306
REMARK INTRA:                  -1.967
REMARK CONF_INDEPENDENT:        1.790
REMARK UNBOUND:                -1.967
REMARK  6 active torsions:
REMARK  status: ('A' for Active; 'I' for Inactive)
REMARK    1  A    between atoms: C_4  and  N_5 
REMARK    2  A    between atoms: N_8  and  C_9 
REMARK    3  A    between atoms: C_9  and  C_10 
REMARK       I    between atoms: C_10  and  N_12 
REMARK    4  A    between atoms: N_12  and  C_13 
REMARK    5  A    between atoms: C_18  and  N_19 
REMARK    6  A    between atoms: C_30  and  C_31 
ROOT
ATOM      1  C   UNL d   1      27.754 -16.766   0.167  0.00  0.00     0.250 C 
ATOM      2  O   UNL d   1      27.399 -17.396   1.162  0.00  0.00    -0.271 OA
ATOM      3  N   UNL d   1      26.828 -16.456  -0.807  0.00  0.00    -0.323 N 
ATOM      4  H   UNL d   1      27.162 -16.124  -1.726  0.00  0.00     0.169 HD
ENDROOT
BRANCH   1   5
ATOM      5  C   UNL d   1      29.205 -16.245   0.007  0.00  0.00     0.375 C 
BRANCH   5   6
ATOM      6  N   UNL d   1      29.213 -14.751  -0.056  0.00  0.00     0.100 N 
ATOM      7  C   UNL d   1      28.007 -14.198   0.593  0.00  0.00     0.293 C 
ATOM      8  C   UNL d   1      27.950 -14.513   2.124  0.00  0.00     0.154 C 
ATOM      9  N   UNL d   1      29.165 -13.991   2.792  0.00  0.00    -0.362 N 
ATOM     10  C   UNL d   1      30.365 -14.560   2.176  0.00  0.00     0.154 C 
ATOM     11  C   UNL d   1      30.383 -14.223   0.679  0.00  0.00     0.293 C 
BRANCH   9  12
ATOM     12  C   UNL d   1      29.306 -13.355   4.016  0.00  0.00     0.129 A 
ATOM     13  C   UNL d   1      29.510 -11.977   4.041  0.00  0.00     0.075 A 
ATOM     14  C   UNL d   1      29.688 -11.279   5.243  0.00  0.00     0.010 A 
ATOM     15  C   UNL d   1      29.894  -9.800   5.244  0.00  0.00     0.068 C 
ATOM     16  N   UNL d   1      29.679 -11.952   6.404  0.00  0.00    -0.348 N 
ATOM     17  C   UNL d   1      29.492 -13.284   6.375  0.00  0.00     0.110 A 
ATOM     18  H   UNL d   1      29.804 -11.458   7.292  0.00  0.00     0.167 HD
ATOM     19  N   UNL d   1      29.296 -13.991   5.197  0.00  0.00    -0.218 NA
BRANCH  17  20
ATOM     20  C   UNL d   1      29.475 -14.033   7.697  0.00  0.00     0.047 C 
ATOM     21  C   UNL d   1      30.867 -14.075   8.311  0.00  0.00     0.017 C 
ATOM     22  C   UNL d   1      28.530 -13.350   8.671  0.00  0.00     0.017 C 
ENDBRANCH  17  20
ENDBRANCH   9  12
ENDBRANCH   5   6
ENDBRANCH   1   5
BRANCH   3  23
ATOM     23  C   UNL d   1      25.476 -16.990  -0.760  0.00  0.00     0.070 C 
ATOM     24  C   UNL d   1      25.057 -18.285  -0.143  0.00  0.00     0.064 C 
ATOM     25  C   UNL d   1      23.656 -18.741  -0.294  0.00  0.00     0.070 A 
ATOM     26  C   UNL d   1      22.938 -17.768  -0.769  0.00  0.00     0.098 A 
ATOM     27  N   UNL d   1      22.407 -19.869  -0.138  0.00  0.00    -0.323 N 
ATOM     28  C   UNL d   1      23.177 -16.551  -1.130  0.00  0.00     0.077 C 
ATOM     29  O   UNL d   1      21.755 -18.244  -0.838  0.00  0.00    -0.340 OA
ATOM     30  C   UNL d   1      24.469 -16.186  -1.280  0.00  0.00     0.132 C 
ATOM     31  C   UNL d   1      20.670 -17.808  -1.270  0.00  0.00     0.278 A 
ATOM     32  C   UNL d   1      20.659 -19.434  -0.702  0.00  0.00     0.246 A 
ATOM     33  O   UNL d   1      19.494 -19.128  -1.085  0.00  0.00    -0.271 OA
ATOM     34  H   UNL d   1      23.035 -20.593   0.256  0.00  0.00     0.169 HD
BRANCH  30  35
ATOM     35  N   UNL d   1      24.683 -14.954  -2.015  0.00  0.00    -0.113 N 
ATOM     36  O   UNL d   1      23.777 -14.571  -2.769  0.00  0.00    -0.532 OA
ATOM     37  O   UNL d   1      25.743 -14.341  -1.838  0.00  0.00    -0.532 OA
ENDBRANCH  30  35
ENDBRANCH   3  23
TORSDOF 6
ENDMDL
MODEL 5
REMARK VINA RESULT:    -7.474      6.877     11.172
REMARK INTER + INTRA:         -11.399
REMARK INTER:                  -9.264
REMARK INTRA:                  -2.135
REMARK CONF_INDEPENDENT:        1.790
REMARK UNBOUND:                -2.135
REMARK  6 active torsions:
REMARK  status: ('A' for Active; 'I' for Inactive)
REMARK    1  A    between atoms: C_4  and  N_5 
REMARK    2  A    between atoms: N_8  and  C_9 
REMARK    3  A    between atoms: C_9  and  C_10 
REMARK       I    between atoms: C_10  and  N_12 
REMARK    4  A    between atoms: N_12  and  C_13 
REMARK    5  A    between atoms: C_18  and  N_19 
REMARK    6  A    between atoms: C_30  and  C_31 
ROOT
ATOM      1  C   UNL d   1      27.700 -14.456   1.343  0.00  0.00     0.250 C 
ATOM      2  O   UNL d   1      26.639 -13.887   1.598  0.00  0.00    -0.271 OA
ATOM      3  N   UNL d   1      27.692 -15.583   0.548  0.00  0.00    -0.323 N 
ATOM      4  H   UNL d   1      28.537 -16.175   0.513  0.00  0.00     0.169 HD
ENDROOT
BRANCH   1   5
ATOM      5  C   UNL d   1      29.062 -13.899   1.832  0.00  0.00     0.375 C 
BRANCH   5   6
ATOM      6  N   UNL d   1      29.580 -14.728   2.964  0.00  0.00     0.100 N 
ATOM      7  C   UNL d   1      30.738 -14.069   3.601  0.00  0.00     0.293 C 
ATOM      8  C   UNL d   1      30.363 -12.706   4.269  0.00  0.00     0.154 C 
ATOM      9  N   UNL d   1      29.290 -12.913   5.269  0.00  0.00    -0.362 N 
ATOM     10  C   UNL d   1      28.124 -13.535   4.639  0.00  0.00     0.154 C 
ATOM     11  C   UNL d   1      28.535 -14.869   4.002  0.00  0.00     0.293 C 
BRANCH   9  12
ATOM     12  C   UNL d   1      29.123 -12.354   6.527  0.00  0.00     0.129 A 
ATOM     13  C   UNL d   1      29.441 -11.012   6.718  0.00  0.00     0.075 A 
ATOM     14  C   UNL d   1      29.321 -10.395   7.971  0.00  0.00     0.010 A 
ATOM     15  C   UNL d   1      29.658  -8.951   8.147  0.00  0.00     0.068 C 
ATOM     16  N   UNL d   1      28.903 -11.116   9.023  0.00  0.00    -0.348 N 
ATOM     17  C   UNL d   1      28.606 -12.415   8.837  0.00  0.00     0.110 A 
ATOM     18  H   UNL d   1      28.806 -10.682   9.945  0.00  0.00     0.167 HD
ATOM     19  N   UNL d   1      28.701 -13.040   7.601  0.00  0.00    -0.218 NA
BRANCH  17  20
ATOM     20  C   UNL d   1      28.126 -13.217  10.035  0.00  0.00     0.047 C 
ATOM     21  C   UNL d   1      28.639 -14.648   9.965  0.00  0.00     0.017 C 
ATOM     22  C   UNL d   1      28.622 -12.580  11.322  0.00  0.00     0.017 C 
ENDBRANCH  17  20
ENDBRANCH   9  12
ENDBRANCH   5   6
ENDBRANCH   1   5
BRANCH   3  23
ATOM     23  C   UNL d   1      26.444 -16.205   0.134  0.00  0.00     0.070 C 
ATOM     24  C   UNL d   1      25.155 -15.503  -0.146  0.00  0.00     0.064 C 
ATOM     25  C   UNL d   1      23.942 -16.301  -0.436  0.00  0.00     0.070 A 
ATOM     26  C   UNL d   1      24.281 -17.539  -0.634  0.00  0.00     0.098 A 
ATOM     27  N   UNL d   1      22.285 -16.489  -0.711  0.00  0.00    -0.323 N 
ATOM     28  C   UNL d   1      25.396 -18.192  -0.621  0.00  0.00     0.077 C 
ATOM     29  O   UNL d   1      23.184 -18.136  -0.900  0.00  0.00    -0.340 OA
ATOM     30  C   UNL d   1      26.474 -17.576  -0.088  0.00  0.00     0.132 C 
ATOM     31  C   UNL d   1      22.873 -19.325  -1.109  0.00  0.00     0.278 A 
ATOM     32  C   UNL d   1      21.571 -18.198  -1.075  0.00  0.00     0.246 A 
ATOM     33  O   UNL d   1      21.108 -19.350  -1.317  0.00  0.00    -0.271 OA
ATOM     34  H   UNL d   1      22.089 -15.483  -0.561  0.00  0.00     0.169 HD
BRANCH  30  35
ATOM     35  N   UNL d   1      27.590 -18.448   0.230  0.00  0.00    -0.113 N 
ATOM     36  O   UNL d   1      28.696 -18.162  -0.249  0.00  0.00    -0.532 OA
ATOM     37  O   UNL d   1      27.385 -19.414   0.975  0.00  0.00    -0.532 OA
ENDBRANCH  30  35
ENDBRANCH   3  23
TORSDOF 6
ENDMDL
MODEL 6
REMARK VINA RESULT:    -7.428      2.377      4.470
REMARK INTER + INTRA:         -11.105
REMARK INTER:                  -9.217
REMARK INTRA:                  -1.888
REMARK CONF_INDEPENDENT:        1.790
REMARK UNBOUND:                -1.888
REMARK  6 active torsions:
REMARK  status: ('A' for Active; 'I' for Inactive)
REMARK    1  A    between atoms: C_4  and  N_5 
REMARK    2  A    between atoms: N_8  and  C_9 
REMARK    3  A    between atoms: C_9  and  C_10 
REMARK       I    between atoms: C_10  and  N_12 
REMARK    4  A    between atoms: N_12  and  C_13 
REMARK    5  A    between atoms: C_18  and  N_19 
REMARK    6  A    between atoms: C_30  and  C_31 
ROOT
ATOM      1  C   UNL d   1      27.905 -16.247   0.177  0.00  0.00     0.250 C 
ATOM      2  O   UNL d   1      27.217 -15.773   1.081  0.00  0.00    -0.271 OA
ATOM      3  N   UNL d   1      27.298 -16.959  -0.836  0.00  0.00    -0.323 N 
ATOM      4  H   UNL d   1      27.883 -17.531  -1.464  0.00  0.00     0.169 HD
ENDROOT
BRANCH   1   5
ATOM      5  C   UNL d   1      29.435 -16.007   0.105  0.00  0.00     0.375 C 
BRANCH   5   6
ATOM      6  N   UNL d   1      29.716 -14.600  -0.313  0.00  0.00     0.100 N 
ATOM      7  C   UNL d   1      30.983 -14.526  -1.069  0.00  0.00     0.293 C 
ATOM      8  C   UNL d   1      30.926 -15.319  -2.416  0.00  0.00     0.154 C 
ATOM      9  N   UNL d   1      29.813 -14.815  -3.252  0.00  0.00    -0.362 N 
ATOM     10  C   UNL d   1      28.547 -14.915  -2.523  0.00  0.00     0.154 C 
ATOM     11  C   UNL d   1      28.644 -14.121  -1.214  0.00  0.00     0.293 C 
BRANCH   9  12
ATOM     12  C   UNL d   1      29.755 -14.589  -4.619  0.00  0.00     0.129 A 
ATOM     13  C   UNL d   1      30.677 -15.222  -5.448  0.00  0.00     0.075 A 
ATOM     14  C   UNL d   1      30.689 -15.013  -6.834  0.00  0.00     0.010 A 
ATOM     15  C   UNL d   1      31.682 -15.712  -7.703  0.00  0.00     0.068 C 
ATOM     16  N   UNL d   1      29.800 -14.170  -7.382  0.00  0.00    -0.348 N 
ATOM     17  C   UNL d   1      28.916 -13.553  -6.577  0.00  0.00     0.110 A 
ATOM     18  H   UNL d   1      29.791 -14.008  -8.393  0.00  0.00     0.167 HD
ATOM     19  N   UNL d   1      28.876 -13.759  -5.205  0.00  0.00    -0.218 NA
BRANCH  17  20
ATOM     20  C   UNL d   1      27.910 -12.608  -7.210  0.00  0.00     0.047 C 
ATOM     21  C   UNL d   1      27.271 -11.715  -6.156  0.00  0.00     0.017 C 
ATOM     22  C   UNL d   1      28.596 -11.732  -8.245  0.00  0.00     0.017 C 
ENDBRANCH  17  20
ENDBRANCH   9  12
ENDBRANCH   5   6
ENDBRANCH   1   5
BRANCH   3  23
ATOM     23  C   UNL d   1      25.884 -17.294  -0.780  0.00  0.00     0.070 C 
ATOM     24  C   UNL d   1      25.286 -18.509  -0.148  0.00  0.00     0.064 C 
ATOM     25  C   UNL d   1      23.834 -18.763  -0.290  0.00  0.00     0.070 A 
ATOM     26  C   UNL d   1      23.261 -17.703  -0.774  0.00  0.00     0.098 A 
ATOM     27  N   UNL d   1      22.438 -19.699  -0.118  0.00  0.00    -0.323 N 
ATOM     28  C   UNL d   1      23.669 -16.536  -1.150  0.00  0.00     0.077 C 
ATOM     29  O   UNL d   1      22.021 -18.005  -0.835  0.00  0.00    -0.340 OA
ATOM     30  C   UNL d   1      24.999 -16.361  -1.306  0.00  0.00     0.132 C 
ATOM     31  C   UNL d   1      21.008 -17.424  -1.269  0.00  0.00     0.278 A 
ATOM     32  C   UNL d   1      20.768 -19.026  -0.683  0.00  0.00     0.246 A 
ATOM     33  O   UNL d   1      19.656 -18.560  -1.067  0.00  0.00    -0.271 OA
ATOM     34  H   UNL d   1      22.957 -20.501   0.282  0.00  0.00     0.169 HD
BRANCH  30  35
ATOM     35  N   UNL d   1      25.384 -15.179  -2.056  0.00  0.00    -0.113 N 
ATOM     36  O   UNL d   1      25.149 -15.171  -3.273  0.00  0.00    -0.532 OA
ATOM     37  O   UNL d   1      25.904 -14.239  -1.442  0.00  0.00    -0.532 OA
ENDBRANCH  30  35
ENDBRANCH   3  23
TORSDOF 6
ENDMDL
MODEL 7
REMARK VINA RESULT:    -7.408      7.716     10.154
REMARK INTER + INTRA:         -11.203
REMARK INTER:                  -9.198
REMARK INTRA:                  -2.005
REMARK CONF_INDEPENDENT:        1.790
REMARK UNBOUND:                -2.005
REMARK  6 active torsions:
REMARK  status: ('A' for Active; 'I' for Inactive)
REMARK    1  A    between atoms: C_4  and  N_5 
REMARK    2  A    between atoms: N_8  and  C_9 
REMARK    3  A    between atoms: C_9  and  C_10 
REMARK       I    between atoms: C_10  and  N_12 
REMARK    4  A    between atoms: N_12  and  C_13 
REMARK    5  A    between atoms: C_18  and  N_19 
REMARK    6  A    between atoms: C_30  and  C_31 
ROOT
ATOM      1  C   UNL d   1      28.102 -12.049   3.767  0.00  0.00     0.250 C 
ATOM      2  O   UNL d   1      27.339 -12.959   4.092  0.00  0.00    -0.271 OA
ATOM      3  N   UNL d   1      29.019 -11.574   4.679  0.00  0.00    -0.323 N 
ATOM      4  H   UNL d   1      29.502 -10.683   4.484  0.00  0.00     0.169 HD
ENDROOT
BRANCH   1   5
ATOM      5  C   UNL d   1      28.110 -11.467   2.330  0.00  0.00     0.375 C 
BRANCH   5   6
ATOM      6  N   UNL d   1      29.010 -12.275   1.451  0.00  0.00     0.100 N 
ATOM      7  C   UNL d   1      28.898 -13.711   1.775  0.00  0.00     0.293 C 
ATOM      8  C   UNL d   1      27.471 -14.284   1.486  0.00  0.00     0.154 C 
ATOM      9  N   UNL d   1      27.116 -14.059   0.066  0.00  0.00    -0.362 N 
ATOM     10  C   UNL d   1      27.192 -12.633  -0.256  0.00  0.00     0.154 C 
ATOM     11  C   UNL d   1      28.606 -12.115   0.036  0.00  0.00     0.293 C 
BRANCH   9  12
ATOM     12  C   UNL d   1      26.464 -14.891  -0.833  0.00  0.00     0.129 A 
ATOM     13  C   UNL d   1      26.625 -14.668  -2.198  0.00  0.00     0.075 A 
ATOM     14  C   UNL d   1      25.972 -15.455  -3.157  0.00  0.00     0.010 A 
ATOM     15  C   UNL d   1      26.170 -15.202  -4.615  0.00  0.00     0.068 C 
ATOM     16  N   UNL d   1      25.155 -16.441  -2.755  0.00  0.00    -0.348 N 
ATOM     17  C   UNL d   1      24.994 -16.647  -1.435  0.00  0.00     0.110 A 
ATOM     18  H   UNL d   1      24.673 -17.028  -3.441  0.00  0.00     0.167 HD
ATOM     19  N   UNL d   1      25.645 -15.891  -0.470  0.00  0.00    -0.218 NA
BRANCH  17  20
ATOM     20  C   UNL d   1      24.074 -17.772  -0.994  0.00  0.00     0.047 C 
ATOM     21  C   UNL d   1      24.698 -18.564   0.145  0.00  0.00     0.017 C 
ATOM     22  C   UNL d   1      22.744 -17.205  -0.525  0.00  0.00     0.017 C 
ENDBRANCH  17  20
ENDBRANCH   9  12
ENDBRANCH   5   6
ENDBRANCH   1   5
BRANCH   3  23
ATOM     23  C   UNL d   1      29.003 -12.015   6.065  0.00  0.00     0.070 C 
ATOM     24  C   UNL d   1      29.026 -13.429   6.545  0.00  0.00     0.064 C 
ATOM     25  C   UNL d   1      28.876 -13.709   7.991  0.00  0.00     0.070 A 
ATOM     26  C   UNL d   1      28.985 -12.597   8.655  0.00  0.00     0.098 A 
ATOM     27  N   UNL d   1      28.677 -14.731   9.322  0.00  0.00    -0.323 N 
ATOM     28  C   UNL d   1      29.176 -11.360   8.336  0.00  0.00     0.077 C 
ATOM     29  O   UNL d   1      28.868 -12.940   9.880  0.00  0.00    -0.340 OA
ATOM     30  C   UNL d   1      29.035 -11.021   7.036  0.00  0.00     0.132 C 
ATOM     31  C   UNL d   1      28.824 -12.311  10.955  0.00  0.00     0.278 A 
ATOM     32  C   UNL d   1      28.604 -14.015  11.067  0.00  0.00     0.246 A 
ATOM     33  O   UNL d   1      28.555 -13.520  12.230  0.00  0.00    -0.271 OA
ATOM     34  H   UNL d   1      28.619 -15.580   8.732  0.00  0.00     0.169 HD
BRANCH  30  35
ATOM     35  N   UNL d   1      28.905  -9.599   6.778  0.00  0.00    -0.113 N 
ATOM     36  O   UNL d   1      28.993  -8.830   7.746  0.00  0.00    -0.532 OA
ATOM     37  O   UNL d   1      28.734  -9.228   5.610  0.00  0.00    -0.532 OA
ENDBRANCH  30  35
ENDBRANCH   3  23
TORSDOF 6
ENDMDL
MODEL 8
REMARK VINA RESULT:    -7.312      1.900      2.640
REMARK INTER + INTRA:         -11.336
REMARK INTER:                  -9.102
REMARK INTRA:                  -2.234
REMARK CONF_INDEPENDENT:        1.790
REMARK UNBOUND:                -2.234
REMARK  6 active torsions:
REMARK  status: ('A' for Active; 'I' for Inactive)
REMARK    1  A    between atoms: C_4  and  N_5 
REMARK    2  A    between atoms: N_8  and  C_9 
REMARK    3  A    between atoms: C_9  and  C_10 
REMARK       I    between atoms: C_10  and  N_12 
REMARK    4  A    between atoms: N_12  and  C_13 
REMARK    5  A    between atoms: C_18  and  N_19 
REMARK    6  A    between atoms: C_30  and  C_31 
ROOT
ATOM      1  C   UNL d   1      29.562 -16.056  -2.601  0.00  0.00     0.250 C 
ATOM      2  O   UNL d   1      29.684 -17.056  -1.895  0.00  0.00    -0.271 OA
ATOM      3  N   UNL d   1      28.334 -15.436  -2.695  0.00  0.00    -0.323 N 
ATOM      4  H   UNL d   1      28.182 -14.740  -3.442  0.00  0.00     0.169 HD
ENDROOT
BRANCH   1   5
ATOM      5  C   UNL d   1      30.773 -15.425  -3.336  0.00  0.00     0.375 C 
BRANCH   5   6
ATOM      6  N   UNL d   1      30.463 -15.258  -4.789  0.00  0.00     0.100 N 
ATOM      7  C   UNL d   1      31.689 -15.396  -5.601  0.00  0.00     0.293 C 
ATOM      8  C   UNL d   1      32.314 -16.827  -5.509  0.00  0.00     0.154 C 
ATOM      9  N   UNL d   1      31.318 -17.840  -5.926  0.00  0.00    -0.362 N 
ATOM     10  C   UNL d   1      30.111 -17.733  -5.105  0.00  0.00     0.154 C 
ATOM     11  C   UNL d   1      29.529 -16.319  -5.228  0.00  0.00     0.293 C 
BRANCH   9  12
ATOM     12  C   UNL d   1      31.477 -18.984  -6.694  0.00  0.00     0.129 A 
ATOM     13  C   UNL d   1      31.054 -18.972  -8.020  0.00  0.00     0.075 A 
ATOM     14  C   UNL d   1      31.161 -20.104  -8.840  0.00  0.00     0.010 A 
ATOM     15  C   UNL d   1      30.709 -20.061 -10.262  0.00  0.00     0.068 C 
ATOM     16  N   UNL d   1      31.671 -21.238  -8.336  0.00  0.00    -0.348 N 
ATOM     17  C   UNL d   1      32.071 -21.249  -7.051  0.00  0.00     0.110 A 
ATOM     18  H   UNL d   1      31.760 -22.073  -8.920  0.00  0.00     0.167 HD
ATOM     19  N   UNL d   1      31.989 -20.134  -6.227  0.00  0.00    -0.218 NA
BRANCH  17  20
ATOM     20  C   UNL d   1      32.654 -22.536  -6.494  0.00  0.00     0.047 C 
ATOM     21  C   UNL d   1      31.894 -22.980  -5.252  0.00  0.00     0.017 C 
ATOM     22  C   UNL d   1      32.575 -23.638  -7.537  0.00  0.00     0.017 C 
ENDBRANCH  17  20
ENDBRANCH   9  12
ENDBRANCH   5   6
ENDBRANCH   1   5
BRANCH   3  23
ATOM     23  C   UNL d   1      27.144 -16.027  -2.104  0.00  0.00     0.070 C 
ATOM     24  C   UNL d   1      27.066 -16.735  -0.791  0.00  0.00     0.064 C 
ATOM     25  C   UNL d   1      25.799 -17.391  -0.393  0.00  0.00     0.070 A 
ATOM     26  C   UNL d   1      24.853 -17.018  -1.202  0.00  0.00     0.098 A 
ATOM     27  N   UNL d   1      24.850 -18.367   0.608  0.00  0.00    -0.323 N 
ATOM     28  C   UNL d   1      24.788 -16.244  -2.234  0.00  0.00     0.077 C 
ATOM     29  O   UNL d   1      23.806 -17.608  -0.768  0.00  0.00    -0.340 OA
ATOM     30  C   UNL d   1      25.953 -15.857  -2.798  0.00  0.00     0.132 C 
ATOM     31  C   UNL d   1      22.628 -17.686  -1.166  0.00  0.00     0.278 A 
ATOM     32  C   UNL d   1      23.019 -18.623   0.226  0.00  0.00     0.246 A 
ATOM     33  O   UNL d   1      21.795 -18.785  -0.045  0.00  0.00    -0.271 OA
ATOM     34  H   UNL d   1      25.647 -18.606   1.225  0.00  0.00     0.169 HD
BRANCH  30  35
ATOM     35  N   UNL d   1      25.838 -15.300  -4.133  0.00  0.00    -0.113 N 
ATOM     36  O   UNL d   1      26.749 -15.545  -4.937  0.00  0.00    -0.532 OA
ATOM     37  O   UNL d   1      24.834 -14.629  -4.404  0.00  0.00    -0.532 OA
ENDBRANCH  30  35
ENDBRANCH   3  23
TORSDOF 6
ENDMDL
MODEL 9
REMARK VINA RESULT:    -7.304      1.811      2.890
REMARK INTER + INTRA:         -11.186
REMARK INTER:                  -9.094
REMARK INTRA:                  -2.092
REMARK CONF_INDEPENDENT:        1.790
REMARK UNBOUND:                -2.092
REMARK  6 active torsions:
REMARK  status: ('A' for Active; 'I' for Inactive)
REMARK    1  A    between atoms: C_4  and  N_5 
REMARK    2  A    between atoms: N_8  and  C_9 
REMARK    3  A    between atoms: C_9  and  C_10 
REMARK       I    between atoms: C_10  and  N_12 
REMARK    4  A    between atoms: N_12  and  C_13 
REMARK    5  A    between atoms: C_18  and  N_19 
REMARK    6  A    between atoms: C_30  and  C_31 
ROOT
ATOM      1  C   UNL d   1      29.680 -15.701  -2.888  0.00  0.00     0.250 C 
ATOM      2  O   UNL d   1      29.904 -16.546  -2.021  0.00  0.00    -0.271 OA
ATOM      3  N   UNL d   1      28.389 -15.261  -3.089  0.00  0.00    -0.323 N 
ATOM      4  H   UNL d   1      28.172 -14.726  -3.944  0.00  0.00     0.169 HD
ENDROOT
BRANCH   1   5
ATOM      5  C   UNL d   1      30.823 -15.061  -3.716  0.00  0.00     0.375 C 
BRANCH   5   6
ATOM      6  N   UNL d   1      30.540 -15.199  -5.178  0.00  0.00     0.100 N 
ATOM      7  C   UNL d   1      31.775 -15.529  -5.917  0.00  0.00     0.293 C 
ATOM      8  C   UNL d   1      32.366 -16.919  -5.512  0.00  0.00     0.154 C 
ATOM      9  N   UNL d   1      31.354 -17.979  -5.726  0.00  0.00    -0.362 N 
ATOM     10  C   UNL d   1      30.137 -17.677  -4.970  0.00  0.00     0.154 C 
ATOM     11  C   UNL d   1      29.589 -16.311  -5.401  0.00  0.00     0.293 C 
BRANCH   9  12
ATOM     12  C   UNL d   1      31.499 -19.262  -6.231  0.00  0.00     0.129 A 
ATOM     13  C   UNL d   1      31.454 -20.343  -5.354  0.00  0.00     0.075 A 
ATOM     14  C   UNL d   1      31.621 -21.662  -5.798  0.00  0.00     0.010 A 
ATOM     15  C   UNL d   1      31.557 -22.804  -4.838  0.00  0.00     0.068 C 
ATOM     16  N   UNL d   1      31.848 -21.896  -7.099  0.00  0.00    -0.348 N 
ATOM     17  C   UNL d   1      31.901 -20.849  -7.943  0.00  0.00     0.110 A 
ATOM     18  H   UNL d   1      31.969 -22.853  -7.442  0.00  0.00     0.167 HD
ATOM     19  N   UNL d   1      31.719 -19.537  -7.527  0.00  0.00    -0.218 NA
BRANCH  17  20
ATOM     20  C   UNL d   1      32.149 -21.128  -9.415  0.00  0.00     0.047 C 
ATOM     21  C   UNL d   1      31.907 -22.597  -9.734  0.00  0.00     0.017 C 
ATOM     22  C   UNL d   1      31.221 -20.282 -10.270  0.00  0.00     0.017 C 
ENDBRANCH  17  20
ENDBRANCH   9  12
ENDBRANCH   5   6
ENDBRANCH   1   5
BRANCH   3  23
ATOM     23  C   UNL d   1      27.265 -15.885  -2.409  0.00  0.00     0.070 C 
ATOM     24  C   UNL d   1      27.296 -16.545  -1.070  0.00  0.00     0.064 C 
ATOM     25  C   UNL d   1      26.088 -17.245  -0.576  0.00  0.00     0.070 A 
ATOM     26  C   UNL d   1      25.080 -16.949  -1.341  0.00  0.00     0.098 A 
ATOM     27  N   UNL d   1      25.246 -18.226   0.512  0.00  0.00    -0.323 N 
ATOM     28  C   UNL d   1      24.919 -16.219  -2.395  0.00  0.00     0.077 C 
ATOM     29  O   UNL d   1      24.090 -17.571  -0.826  0.00  0.00    -0.340 OA
ATOM     30  C   UNL d   1      26.029 -15.799  -3.039  0.00  0.00     0.132 C 
ATOM     31  C   UNL d   1      22.897 -17.721  -1.152  0.00  0.00     0.278 A 
ATOM     32  C   UNL d   1      23.412 -18.584   0.247  0.00  0.00     0.246 A 
ATOM     33  O   UNL d   1      22.184 -18.814   0.054  0.00  0.00    -0.271 OA
ATOM     34  H   UNL d   1      26.088 -18.403   1.090  0.00  0.00     0.169 HD
BRANCH  30  35
ATOM     35  N   UNL d   1      25.812 -15.299  -4.384  0.00  0.00    -0.113 N 
ATOM     36  O   UNL d   1      24.806 -14.603  -4.582  0.00  0.00    -0.532 OA
ATOM     37  O   UNL d   1      26.648 -15.575  -5.254  0.00  0.00    -0.532 OA
ENDBRANCH  30  35
ENDBRANCH   3  23
TORSDOF 6
ENDMDL
