MODEL 1
REMARK VINA RESULT:    -8.444      0.000      0.000
REMARK INTER + INTRA:         -16.392
REMARK INTER:                 -12.620
REMARK INTRA:                  -3.771
REMARK CONF_INDEPENDENT:        4.176
REMARK UNBOUND:                -3.771
REMARK  14 active torsions:
REMARK  status: ('A' for Active; 'I' for Inactive)
REMARK    1  A    between atoms: C_2  and  C_3 
REMARK    2  A    between atoms: C_3  and  N_4 
REMARK       I    between atoms: N_4  and  C_5 
REMARK    3  A    between atoms: C_17  and  N_4 
REMARK    4  A    between atoms: C_5  and  C_7 
REMARK    5  A    between atoms: C_7  and  N_8 
REMARK       I    between atoms: N_8  and  C_9 
REMARK    6  A    between atoms: C_9  and  C_11 
REMARK    7  A    between atoms: C_17  and  C_29 
REMARK    8  A    between atoms: C_17  and  C_18 
REMARK       I    between atoms: C_18  and  N_20 
REMARK    9  A    between atoms: N_20  and  C_21 
REMARK   10  A    between atoms: C_21  and  C_24 
REMARK   11  A    between atoms: C_24  and  C_25 
REMARK   12  A    between atoms: C_30  and  O_31 
REMARK   13  A    between atoms: C_33  and  O_34 
REMARK   14  A    between atoms: C_36  and  O_37 
ROOT
ATOM      1  C   UNL d   1      26.962 -16.092   0.130  0.00  0.00     0.218 C 
ENDROOT
BRANCH   1   2
ATOM      2  C   UNL d   1      28.248 -16.511  -0.562  0.00  0.00     0.040 A 
ATOM      3  C   UNL d   1      28.751 -17.828  -0.516  0.00  0.00     0.080 A 
ATOM      4  C   UNL d   1      29.987 -18.154  -1.083  0.00  0.00     0.073 A 
ATOM      5  C   UNL d   1      30.713 -17.181  -1.752  0.00  0.00     0.071 A 
ATOM      6  C   UNL d   1      30.256 -15.884  -1.821  0.00  0.00     0.073 A 
ATOM      7  C   UNL d   1      29.033 -15.569  -1.253  0.00  0.00     0.080 A 
BRANCH   3   8
ATOM      8  O   UNL d   1      28.118 -18.907   0.042  0.00  0.00    -0.360 OA
ATOM      9  H   UNL d   1      27.240 -18.684   0.374  0.00  0.00     0.217 HD
ENDBRANCH   3   8
BRANCH   5  10
ATOM     10  O   UNL d   1      31.874 -17.460  -2.404  0.00  0.00    -0.361 OA
ATOM     11  H   UNL d   1      32.524 -16.777  -2.177  0.00  0.00     0.217 HD
ENDBRANCH   5  10
BRANCH   7  12
ATOM     12  O   UNL d   1      28.589 -14.297  -1.437  0.00  0.00    -0.360 OA
ATOM     13  H   UNL d   1      28.339 -13.871  -0.605  0.00  0.00     0.217 HD
ENDBRANCH   7  12
ENDBRANCH   1   2
BRANCH   1  14
ATOM     14  C   UNL d   1      26.994 -14.729   0.853  0.00  0.00     0.246 C 
ATOM     15  O   UNL d   1      26.395 -13.768   0.360  0.00  0.00    -0.271 OA
ATOM     16  N   UNL d   1      27.784 -14.639   1.987  0.00  0.00    -0.351 N 
ATOM     17  H   UNL d   1      28.148 -15.526   2.351  0.00  0.00     0.163 HD
BRANCH  16  18
ATOM     18  C   UNL d   1      28.303 -13.403   2.531  0.00  0.00     0.026 C 
ATOM     19  C   UNL d   1      29.087 -12.807   1.357  0.00  0.00     0.038 C 
ATOM     20  C   UNL d   1      27.052 -12.635   2.947  0.00  0.00     0.038 C 
BRANCH  18  21
ATOM     21  C   UNL d   1      29.276 -13.626   3.777  0.00  0.00     0.038 C 
BRANCH  21  22
ATOM     22  C   UNL d   1      28.599 -13.837   5.190  0.00  0.00    -0.049 C 
ATOM     23  C   UNL d   1      29.559 -14.451   6.221  0.00  0.00     0.014 C 
ATOM     24  C   UNL d   1      28.009 -12.537   5.752  0.00  0.00     0.014 C 
ATOM     25  C   UNL d   1      27.416 -14.818   5.106  0.00  0.00     0.014 C 
ENDBRANCH  21  22
ENDBRANCH  18  21
ENDBRANCH  16  18
ENDBRANCH   1  14
BRANCH   1  26
ATOM     26  N   UNL d   1      25.700 -16.346  -0.629  0.00  0.00    -0.333 N 
ATOM     27  C   UNL d   1      24.891 -17.431  -0.250  0.00  0.00     0.238 C 
ATOM     28  O   UNL d   1      25.121 -18.180   0.705  0.00  0.00    -0.272 OA
BRANCH  26  29
ATOM     29  C   UNL d   1      25.325 -15.255  -1.567  0.00  0.00     0.127 C 
BRANCH  29  30
ATOM     30  C   UNL d   1      25.442 -15.575  -3.030  0.00  0.00     0.015 C 
ATOM     31  C   UNL d   1      26.651 -15.140  -3.789  0.00  0.00     0.006 C 
ENDBRANCH  29  30
ENDBRANCH  26  29
BRANCH  27  32
ATOM     32  C   UNL d   1      23.636 -17.783  -1.010  0.00  0.00     0.225 C 
BRANCH  32  33
ATOM     33  N   UNL d   1      22.768 -18.672  -0.301  0.00  0.00    -0.348 N 
ATOM     34  C   UNL d   1      21.416 -18.507  -0.501  0.00  0.00     0.252 C 
ATOM     35  O   UNL d   1      20.939 -17.701  -1.271  0.00  0.00    -0.268 OA
ATOM     36  H   UNL d   1      23.187 -19.356   0.314  0.00  0.00     0.163 HD
BRANCH  34  37
ATOM     37  C   UNL d   1      20.555 -19.373   0.315  0.00  0.00     0.032 A 
ATOM     38  C   UNL d   1      19.572 -20.132  -0.320  0.00  0.00     0.017 A 
ATOM     39  C   UNL d   1      18.640 -20.817   0.454  0.00  0.00     0.001 A 
ATOM     40  C   UNL d   1      18.741 -20.792   1.847  0.00  0.00     0.000 A 
ATOM     41  C   UNL d   1      19.745 -20.053   2.474  0.00  0.00     0.001 A 
ATOM     42  C   UNL d   1      20.652 -19.333   1.708  0.00  0.00     0.017 A 
ENDBRANCH  34  37
ENDBRANCH  32  33
ENDBRANCH  27  32
ENDBRANCH   1  26
TORSDOF 14
ENDMDL
MODEL 2
REMARK VINA RESULT:    -8.304      0.521      1.812
REMARK INTER + INTRA:         -15.775
REMARK INTER:                 -12.481
REMARK INTRA:                  -3.294
REMARK CONF_INDEPENDENT:        4.176
REMARK UNBOUND:                -3.294
REMARK  14 active torsions:
REMARK  status: ('A' for Active; 'I' for Inactive)
REMARK    1  A    between atoms: C_2  and  C_3 
REMARK    2  A    between atoms: C_3  and  N_4 
REMARK       I    between atoms: N_4  and  C_5 
REMARK    3  A    between atoms: C_17  and  N_4 
REMARK    4  A    between atoms: C_5  and  C_7 
REMARK    5  A    between atoms: C_7  and  N_8 
REMARK       I    between atoms: N_8  and  C_9 
REMARK    6  A    between atoms: C_9  and  C_11 
REMARK    7  A    between atoms: C_17  and  C_29 
REMARK    8  A    between atoms: C_17  and  C_18 
REMARK       I    between atoms: C_18  and  N_20 
REMARK    9  A    between atoms: N_20  and  C_21 
REMARK   10  A    between atoms: C_21  and  C_24 
REMARK   11  A    between atoms: C_24  and  C_25 
REMARK   12  A    between atoms: C_30  and  O_31 
REMARK   13  A    between atoms: C_33  and  O_34 
REMARK   14  A    between atoms: C_36  and  O_37 
ROOT
ATOM      1  C   UNL d   1      27.044 -16.024  -0.020  0.00  0.00     0.218 C 
ENDROOT
BRANCH   1   2
ATOM      2  C   UNL d   1      28.333 -16.254  -0.791  0.00  0.00     0.040 A 
ATOM      3  C   UNL d   1      28.999 -15.231  -1.497  0.00  0.00     0.080 A 
ATOM      4  C   UNL d   1      30.130 -15.503  -2.274  0.00  0.00     0.073 A 
ATOM      5  C   UNL d   1      30.644 -16.789  -2.313  0.00  0.00     0.071 A 
ATOM      6  C   UNL d   1      30.023 -17.816  -1.635  0.00  0.00     0.073 A 
ATOM      7  C   UNL d   1      28.901 -17.539  -0.872  0.00  0.00     0.080 A 
BRANCH   3   8
ATOM      8  O   UNL d   1      28.657 -13.905  -1.497  0.00  0.00    -0.360 OA
ATOM      9  H   UNL d   1      27.930 -13.715  -0.890  0.00  0.00     0.217 HD
ENDBRANCH   3   8
BRANCH   5  10
ATOM     10  O   UNL d   1      31.794 -17.093  -2.973  0.00  0.00    -0.361 OA
ATOM     11  H   UNL d   1      32.454 -17.378  -2.321  0.00  0.00     0.217 HD
ENDBRANCH   5  10
BRANCH   7  12
ATOM     12  O   UNL d   1      28.391 -18.571  -0.150  0.00  0.00    -0.360 OA
ATOM     13  H   UNL d   1      27.564 -18.908  -0.523  0.00  0.00     0.217 HD
ENDBRANCH   7  12
ENDBRANCH   1   2
BRANCH   1  14
ATOM     14  C   UNL d   1      26.995 -14.754   0.857  0.00  0.00     0.246 C 
ATOM     15  O   UNL d   1      26.242 -13.828   0.541  0.00  0.00    -0.271 OA
ATOM     16  N   UNL d   1      27.885 -14.692   1.917  0.00  0.00    -0.351 N 
ATOM     17  H   UNL d   1      28.383 -15.561   2.136  0.00  0.00     0.163 HD
BRANCH  16  18
ATOM     18  C   UNL d   1      28.313 -13.468   2.557  0.00  0.00     0.026 C 
ATOM     19  C   UNL d   1      28.922 -12.664   1.404  0.00  0.00     0.038 C 
ATOM     20  C   UNL d   1      27.029 -12.899   3.153  0.00  0.00     0.038 C 
BRANCH  18  21
ATOM     21  C   UNL d   1      29.411 -13.705   3.692  0.00  0.00     0.038 C 
BRANCH  21  22
ATOM     22  C   UNL d   1      28.888 -14.124   5.124  0.00  0.00    -0.049 C 
ATOM     23  C   UNL d   1      28.391 -12.926   5.948  0.00  0.00     0.014 C 
ATOM     24  C   UNL d   1      27.784 -15.187   5.051  0.00  0.00     0.014 C 
ATOM     25  C   UNL d   1      30.008 -14.759   5.969  0.00  0.00     0.014 C 
ENDBRANCH  21  22
ENDBRANCH  18  21
ENDBRANCH  16  18
ENDBRANCH   1  14
BRANCH   1  26
ATOM     26  N   UNL d   1      25.779 -16.290  -0.770  0.00  0.00    -0.333 N 
ATOM     27  C   UNL d   1      24.940 -17.330  -0.333  0.00  0.00     0.238 C 
ATOM     28  O   UNL d   1      25.146 -18.026   0.666  0.00  0.00    -0.272 OA
BRANCH  26  29
ATOM     29  C   UNL d   1      25.435 -15.247  -1.774  0.00  0.00     0.127 C 
BRANCH  29  30
ATOM     30  C   UNL d   1      25.830 -15.543  -3.193  0.00  0.00     0.015 C 
ATOM     31  C   UNL d   1      26.281 -14.433  -4.083  0.00  0.00     0.006 C 
ENDBRANCH  29  30
ENDBRANCH  26  29
BRANCH  27  32
ATOM     32  C   UNL d   1      23.680 -17.694  -1.078  0.00  0.00     0.225 C 
BRANCH  32  33
ATOM     33  N   UNL d   1      22.647 -18.211  -0.235  0.00  0.00    -0.348 N 
ATOM     34  C   UNL d   1      21.693 -19.001  -0.838  0.00  0.00     0.252 C 
ATOM     35  O   UNL d   1      21.716 -19.315  -2.009  0.00  0.00    -0.268 OA
ATOM     36  H   UNL d   1      22.662 -17.961   0.745  0.00  0.00     0.163 HD
BRANCH  34  37
ATOM     37  C   UNL d   1      20.597 -19.434   0.039  0.00  0.00     0.032 A 
ATOM     38  C   UNL d   1      20.762 -19.327   1.421  0.00  0.00     0.017 A 
ATOM     39  C   UNL d   1      19.809 -19.894   2.261  0.00  0.00     0.001 A 
ATOM     40  C   UNL d   1      18.673 -20.499   1.717  0.00  0.00     0.000 A 
ATOM     41  C   UNL d   1      18.503 -20.576   0.334  0.00  0.00     0.001 A 
ATOM     42  C   UNL d   1      19.472 -20.050  -0.511  0.00  0.00     0.017 A 
ENDBRANCH  34  37
ENDBRANCH  32  33
ENDBRANCH  27  32
ENDBRANCH   1  26
TORSDOF 14
ENDMDL
MODEL 3
REMARK VINA RESULT:    -7.700      0.945      2.040
REMARK INTER + INTRA:         -15.750
REMARK INTER:                 -11.876
REMARK INTRA:                  -3.873
REMARK CONF_INDEPENDENT:        4.176
REMARK UNBOUND:                -3.873
REMARK  14 active torsions:
REMARK  status: ('A' for Active; 'I' for Inactive)
REMARK    1  A    between atoms: C_2  and  C_3 
REMARK    2  A    between atoms: C_3  and  N_4 
REMARK       I    between atoms: N_4  and  C_5 
REMARK    3  A    between atoms: C_17  and  N_4 
REMARK    4  A    between atoms: C_5  and  C_7 
REMARK    5  A    between atoms: C_7  and  N_8 
REMARK       I    between atoms: N_8  and  C_9 
REMARK    6  A    between atoms: C_9  and  C_11 
REMARK    7  A    between atoms: C_17  and  C_29 
REMARK    8  A    between atoms: C_17  and  C_18 
REMARK       I    between atoms: C_18  and  N_20 
REMARK    9  A    between atoms: N_20  and  C_21 
REMARK   10  A    between atoms: C_21  and  C_24 
REMARK   11  A    between atoms: C_24  and  C_25 
REMARK   12  A    between atoms: C_30  and  O_31 
REMARK   13  A    between atoms: C_33  and  O_34 
REMARK   14  A    between atoms: C_36  and  O_37 
ROOT
ATOM      1  C   UNL d   1      27.045 -16.020  -0.070  0.00  0.00     0.218 C 
ENDROOT
BRANCH   1   2
ATOM      2  C   UNL d   1      28.280 -16.093  -0.952  0.00  0.00     0.040 A 
ATOM      3  C   UNL d   1      29.077 -17.251  -1.062  0.00  0.00     0.080 A 
ATOM      4  C   UNL d   1      30.260 -17.249  -1.809  0.00  0.00     0.073 A 
ATOM      5  C   UNL d   1      30.634 -16.108  -2.501  0.00  0.00     0.071 A 
ATOM      6  C   UNL d   1      29.881 -14.958  -2.421  0.00  0.00     0.073 A 
ATOM      7  C   UNL d   1      28.714 -14.967  -1.675  0.00  0.00     0.080 A 
BRANCH   3   8
ATOM      8  O   UNL d   1      28.802 -18.469  -0.500  0.00  0.00    -0.360 OA
ATOM      9  H   UNL d   1      29.445 -18.712   0.178  0.00  0.00     0.217 HD
ENDBRANCH   3   8
BRANCH   5  10
ATOM     10  O   UNL d   1      31.721 -16.077  -3.318  0.00  0.00    -0.361 OA
ATOM     11  H   UNL d   1      31.520 -15.499  -4.071  0.00  0.00     0.217 HD
ENDBRANCH   5  10
BRANCH   7  12
ATOM     12  O   UNL d   1      27.963 -13.834  -1.713  0.00  0.00    -0.360 OA
ATOM     13  H   UNL d   1      27.230 -13.857  -1.081  0.00  0.00     0.217 HD
ENDBRANCH   7  12
ENDBRANCH   1   2
BRANCH   1  14
ATOM     14  C   UNL d   1      27.026 -14.887   0.978  0.00  0.00     0.246 C 
ATOM     15  O   UNL d   1      26.266 -13.927   0.817  0.00  0.00    -0.271 OA
ATOM     16  N   UNL d   1      27.946 -14.971   2.009  0.00  0.00    -0.351 N 
ATOM     17  H   UNL d   1      28.448 -15.861   2.090  0.00  0.00     0.163 HD
BRANCH  16  18
ATOM     18  C   UNL d   1      28.396 -13.848   2.802  0.00  0.00     0.026 C 
ATOM     19  C   UNL d   1      27.088 -13.206   3.273  0.00  0.00     0.038 C 
ATOM     20  C   UNL d   1      29.247 -14.490   3.894  0.00  0.00     0.038 C 
BRANCH  18  21
ATOM     21  C   UNL d   1      29.249 -12.791   1.963  0.00  0.00     0.038 C 
BRANCH  21  22
ATOM     22  C   UNL d   1      30.567 -13.318   1.268  0.00  0.00    -0.049 C 
ATOM     23  C   UNL d   1      31.843 -12.842   1.979  0.00  0.00     0.014 C 
ATOM     24  C   UNL d   1      30.590 -14.848   1.148  0.00  0.00     0.014 C 
ATOM     25  C   UNL d   1      30.690 -12.795  -0.175  0.00  0.00     0.014 C 
ENDBRANCH  21  22
ENDBRANCH  18  21
ENDBRANCH  16  18
ENDBRANCH   1  14
BRANCH   1  26
ATOM     26  N   UNL d   1      25.736 -16.230  -0.759  0.00  0.00    -0.333 N 
ATOM     27  C   UNL d   1      24.905 -17.278  -0.327  0.00  0.00     0.238 C 
ATOM     28  O   UNL d   1      25.153 -18.026   0.624  0.00  0.00    -0.272 OA
BRANCH  26  29
ATOM     29  C   UNL d   1      25.357 -15.134  -1.690  0.00  0.00     0.127 C 
BRANCH  29  30
ATOM     30  C   UNL d   1      25.260 -15.507  -3.142  0.00  0.00     0.015 C 
ATOM     31  C   UNL d   1      26.449 -15.344  -4.029  0.00  0.00     0.006 C 
ENDBRANCH  29  30
ENDBRANCH  26  29
BRANCH  27  32
ATOM     32  C   UNL d   1      23.599 -17.586  -1.017  0.00  0.00     0.225 C 
BRANCH  32  33
ATOM     33  N   UNL d   1      22.780 -18.516  -0.303  0.00  0.00    -0.348 N 
ATOM     34  C   UNL d   1      21.420 -18.421  -0.499  0.00  0.00     0.252 C 
ATOM     35  O   UNL d   1      20.900 -17.642  -1.268  0.00  0.00    -0.268 OA
ATOM     36  H   UNL d   1      23.235 -19.176   0.312  0.00  0.00     0.163 HD
BRANCH  34  37
ATOM     37  C   UNL d   1      20.607 -19.327   0.323  0.00  0.00     0.032 A 
ATOM     38  C   UNL d   1      19.690 -20.166  -0.312  0.00  0.00     0.017 A 
ATOM     39  C   UNL d   1      18.795 -20.898   0.462  0.00  0.00     0.001 A 
ATOM     40  C   UNL d   1      18.870 -20.837   1.856  0.00  0.00     0.000 A 
ATOM     41  C   UNL d   1      19.810 -20.018   2.482  0.00  0.00     0.001 A 
ATOM     42  C   UNL d   1      20.677 -19.252   1.715  0.00  0.00     0.017 A 
ENDBRANCH  34  37
ENDBRANCH  32  33
ENDBRANCH  27  32
ENDBRANCH   1  26
TORSDOF 14
ENDMDL
MODEL 4
REMARK VINA RESULT:    -7.497      5.567      9.620
REMARK INTER + INTRA:         -16.327
REMARK INTER:                 -11.673
REMARK INTRA:                  -4.654
REMARK CONF_INDEPENDENT:        4.176
REMARK UNBOUND:                -4.654
REMARK  14 active torsions:
REMARK  status: ('A' for Active; 'I' for Inactive)
REMARK    1  A    between atoms: C_2  and  C_3 
REMARK    2  A    between atoms: C_3  and  N_4 
REMARK       I    between atoms: N_4  and  C_5 
REMARK    3  A    between atoms: C_17  and  N_4 
REMARK    4  A    between atoms: C_5  and  C_7 
REMARK    5  A    between atoms: C_7  and  N_8 
REMARK       I    between atoms: N_8  and  C_9 
REMARK    6  A    between atoms: C_9  and  C_11 
REMARK    7  A    between atoms: C_17  and  C_29 
REMARK    8  A    between atoms: C_17  and  C_18 
REMARK       I    between atoms: C_18  and  N_20 
REMARK    9  A    between atoms: N_20  and  C_21 
REMARK   10  A    between atoms: C_21  and  C_24 
REMARK   11  A    between atoms: C_24  and  C_25 
REMARK   12  A    between atoms: C_30  and  O_31 
REMARK   13  A    between atoms: C_33  and  O_34 
REMARK   14  A    between atoms: C_36  and  O_37 
ROOT
ATOM      1  C   UNL d   1      33.024 -21.171   1.875  0.00  0.00     0.218 C 
ENDROOT
BRANCH   1   2
ATOM      2  C   UNL d   1      32.386 -21.323   3.246  0.00  0.00     0.040 A 
ATOM      3  C   UNL d   1      31.011 -21.575   3.428  0.00  0.00     0.080 A 
ATOM      4  C   UNL d   1      30.443 -21.612   4.706  0.00  0.00     0.073 A 
ATOM      5  C   UNL d   1      31.250 -21.454   5.821  0.00  0.00     0.071 A 
ATOM      6  C   UNL d   1      32.599 -21.209   5.685  0.00  0.00     0.073 A 
ATOM      7  C   UNL d   1      33.152 -21.169   4.416  0.00  0.00     0.080 A 
BRANCH   3   8
ATOM      8  O   UNL d   1      30.103 -21.823   2.433  0.00  0.00    -0.360 OA
ATOM      9  H   UNL d   1      29.928 -21.041   1.895  0.00  0.00     0.217 HD
ENDBRANCH   3   8
BRANCH   5  10
ATOM     10  O   UNL d   1      30.771 -21.575   7.089  0.00  0.00    -0.361 OA
ATOM     11  H   UNL d   1      30.080 -22.257   7.090  0.00  0.00     0.217 HD
ENDBRANCH   5  10
BRANCH   7  12
ATOM     12  O   UNL d   1      34.502 -21.020   4.349  0.00  0.00    -0.360 OA
ATOM     13  H   UNL d   1      34.765 -20.098   4.221  0.00  0.00     0.217 HD
ENDBRANCH   7  12
ENDBRANCH   1   2
BRANCH   1  14
ATOM     14  C   UNL d   1      33.087 -22.447   1.010  0.00  0.00     0.246 C 
ATOM     15  O   UNL d   1      34.162 -22.786   0.505  0.00  0.00    -0.271 OA
ATOM     16  N   UNL d   1      31.889 -23.102   0.772  0.00  0.00    -0.351 N 
ATOM     17  H   UNL d   1      31.088 -22.785   1.327  0.00  0.00     0.163 HD
BRANCH  16  18
ATOM     18  C   UNL d   1      31.653 -24.005  -0.332  0.00  0.00     0.026 C 
ATOM     19  C   UNL d   1      32.055 -23.176  -1.556  0.00  0.00     0.038 C 
ATOM     20  C   UNL d   1      32.549 -25.201  -0.022  0.00  0.00     0.038 C 
BRANCH  18  21
ATOM     21  C   UNL d   1      30.126 -24.456  -0.459  0.00  0.00     0.038 C 
BRANCH  21  22
ATOM     22  C   UNL d   1      29.673 -25.082  -1.838  0.00  0.00    -0.049 C 
ATOM     23  C   UNL d   1      29.121 -24.031  -2.813  0.00  0.00     0.014 C 
ATOM     24  C   UNL d   1      30.800 -25.868  -2.519  0.00  0.00     0.014 C 
ATOM     25  C   UNL d   1      28.529 -26.095  -1.646  0.00  0.00     0.014 C 
ENDBRANCH  21  22
ENDBRANCH  18  21
ENDBRANCH  16  18
ENDBRANCH   1  14
BRANCH   1  26
ATOM     26  N   UNL d   1      32.649 -19.941   1.113  0.00  0.00    -0.333 N 
ATOM     27  C   UNL d   1      31.530 -19.988   0.264  0.00  0.00     0.238 C 
ATOM     28  O   UNL d   1      30.791 -20.968   0.127  0.00  0.00    -0.272 OA
BRANCH  26  29
ATOM     29  C   UNL d   1      33.384 -18.718   1.532  0.00  0.00     0.127 C 
BRANCH  29  30
ATOM     30  C   UNL d   1      32.659 -17.806   2.481  0.00  0.00     0.015 C 
ATOM     31  C   UNL d   1      32.310 -16.419   2.054  0.00  0.00     0.006 C 
ENDBRANCH  29  30
ENDBRANCH  26  29
BRANCH  27  32
ATOM     32  C   UNL d   1      31.130 -18.804  -0.582  0.00  0.00     0.225 C 
BRANCH  32  33
ATOM     33  N   UNL d   1      29.725 -18.537  -0.563  0.00  0.00    -0.348 N 
ATOM     34  C   UNL d   1      29.327 -17.293  -0.997  0.00  0.00     0.252 C 
ATOM     35  O   UNL d   1      30.084 -16.452  -1.433  0.00  0.00    -0.268 OA
ATOM     36  H   UNL d   1      29.107 -19.261  -0.223  0.00  0.00     0.163 HD
BRANCH  34  37
ATOM     37  C   UNL d   1      27.888 -17.021  -0.875  0.00  0.00     0.032 A 
ATOM     38  C   UNL d   1      27.191 -17.574   0.200  0.00  0.00     0.017 A 
ATOM     39  C   UNL d   1      25.803 -17.472   0.230  0.00  0.00     0.001 A 
ATOM     40  C   UNL d   1      25.136 -16.762  -0.771  0.00  0.00     0.000 A 
ATOM     41  C   UNL d   1      25.845 -16.188  -1.827  0.00  0.00     0.001 A 
ATOM     42  C   UNL d   1      27.225 -16.323  -1.886  0.00  0.00     0.017 A 
ENDBRANCH  34  37
ENDBRANCH  32  33
ENDBRANCH  27  32
ENDBRANCH   1  26
TORSDOF 14
ENDMDL
MODEL 5
REMARK VINA RESULT:    -7.145      2.616      7.950
REMARK INTER + INTRA:         -15.585
REMARK INTER:                 -11.321
REMARK INTRA:                  -4.264
REMARK CONF_INDEPENDENT:        4.176
REMARK UNBOUND:                -4.264
REMARK  14 active torsions:
REMARK  status: ('A' for Active; 'I' for Inactive)
REMARK    1  A    between atoms: C_2  and  C_3 
REMARK    2  A    between atoms: C_3  and  N_4 
REMARK       I    between atoms: N_4  and  C_5 
REMARK    3  A    between atoms: C_17  and  N_4 
REMARK    4  A    between atoms: C_5  and  C_7 
REMARK    5  A    between atoms: C_7  and  N_8 
REMARK       I    between atoms: N_8  and  C_9 
REMARK    6  A    between atoms: C_9  and  C_11 
REMARK    7  A    between atoms: C_17  and  C_29 
REMARK    8  A    between atoms: C_17  and  C_18 
REMARK       I    between atoms: C_18  and  N_20 
REMARK    9  A    between atoms: N_20  and  C_21 
REMARK   10  A    between atoms: C_21  and  C_24 
REMARK   11  A    between atoms: C_24  and  C_25 
REMARK   12  A    between atoms: C_30  and  O_31 
REMARK   13  A    between atoms: C_33  and  O_34 
REMARK   14  A    between atoms: C_36  and  O_37 
ROOT
ATOM      1  C   UNL d   1      26.855 -16.167  -1.773  0.00  0.00     0.218 C 
ENDROOT
BRANCH   1   2
ATOM      2  C   UNL d   1      25.566 -16.773  -1.245  0.00  0.00     0.040 A 
ATOM      3  C   UNL d   1      24.295 -16.218  -1.502  0.00  0.00     0.080 A 
ATOM      4  C   UNL d   1      23.139 -16.749  -0.919  0.00  0.00     0.073 A 
ATOM      5  C   UNL d   1      23.230 -17.874  -0.116  0.00  0.00     0.071 A 
ATOM      6  C   UNL d   1      24.453 -18.447   0.158  0.00  0.00     0.073 A 
ATOM      7  C   UNL d   1      25.592 -17.912  -0.420  0.00  0.00     0.080 A 
BRANCH   3   8
ATOM      8  O   UNL d   1      24.037 -15.157  -2.329  0.00  0.00    -0.360 OA
ATOM      9  H   UNL d   1      24.393 -15.291  -3.216  0.00  0.00     0.217 HD
ENDBRANCH   3   8
BRANCH   5  10
ATOM     10  O   UNL d   1      22.132 -18.490   0.400  0.00  0.00    -0.361 OA
ATOM     11  H   UNL d   1      22.417 -19.313   0.829  0.00  0.00     0.217 HD
ENDBRANCH   5  10
BRANCH   7  12
ATOM     12  O   UNL d   1      26.755 -18.578  -0.192  0.00  0.00    -0.360 OA
ATOM     13  H   UNL d   1      27.505 -17.978  -0.068  0.00  0.00     0.217 HD
ENDBRANCH   7  12
ENDBRANCH   1   2
BRANCH   1  14
ATOM     14  C   UNL d   1      26.747 -15.399  -3.107  0.00  0.00     0.246 C 
ATOM     15  O   UNL d   1      25.865 -15.708  -3.915  0.00  0.00    -0.271 OA
ATOM     16  N   UNL d   1      27.723 -14.449  -3.364  0.00  0.00    -0.351 N 
ATOM     17  H   UNL d   1      28.336 -14.213  -2.577  0.00  0.00     0.163 HD
BRANCH  16  18
ATOM     18  C   UNL d   1      28.068 -13.963  -4.681  0.00  0.00     0.026 C 
ATOM     19  C   UNL d   1      29.485 -13.414  -4.491  0.00  0.00     0.038 C 
ATOM     20  C   UNL d   1      27.953 -15.200  -5.568  0.00  0.00     0.038 C 
BRANCH  18  21
ATOM     21  C   UNL d   1      27.100 -12.802  -5.195  0.00  0.00     0.038 C 
BRANCH  21  22
ATOM     22  C   UNL d   1      26.358 -11.943  -4.095  0.00  0.00    -0.049 C 
ATOM     23  C   UNL d   1      25.906 -10.572  -4.619  0.00  0.00     0.014 C 
ATOM     24  C   UNL d   1      25.155 -12.682  -3.493  0.00  0.00     0.014 C 
ATOM     25  C   UNL d   1      27.284 -11.635  -2.904  0.00  0.00     0.014 C 
ENDBRANCH  21  22
ENDBRANCH  18  21
ENDBRANCH  16  18
ENDBRANCH   1  14
BRANCH   1  26
ATOM     26  N   UNL d   1      27.725 -15.498  -0.758  0.00  0.00    -0.333 N 
ATOM     27  C   UNL d   1      29.109 -15.434  -0.992  0.00  0.00     0.238 C 
ATOM     28  O   UNL d   1      29.671 -15.854  -2.009  0.00  0.00    -0.272 OA
BRANCH  26  29
ATOM     29  C   UNL d   1      26.976 -14.758   0.292  0.00  0.00     0.127 C 
BRANCH  29  30
ATOM     30  C   UNL d   1      26.673 -13.317  -0.006  0.00  0.00     0.015 C 
ATOM     31  C   UNL d   1      26.654 -12.319   1.103  0.00  0.00     0.006 C 
ENDBRANCH  29  30
ENDBRANCH  26  29
BRANCH  27  32
ATOM     32  C   UNL d   1      30.054 -14.829   0.017  0.00  0.00     0.225 C 
BRANCH  32  33
ATOM     33  N   UNL d   1      29.634 -15.006   1.372  0.00  0.00    -0.348 N 
ATOM     34  C   UNL d   1      29.458 -13.864   2.119  0.00  0.00     0.252 C 
ATOM     35  O   UNL d   1      29.589 -12.741   1.681  0.00  0.00    -0.268 OA
ATOM     36  H   UNL d   1      29.503 -15.950   1.710  0.00  0.00     0.163 HD
BRANCH  34  37
ATOM     37  C   UNL d   1      29.119 -14.088   3.531  0.00  0.00     0.032 A 
ATOM     38  C   UNL d   1      27.820 -13.816   3.960  0.00  0.00     0.017 A 
ATOM     39  C   UNL d   1      27.535 -13.855   5.321  0.00  0.00     0.001 A 
ATOM     40  C   UNL d   1      28.527 -14.232   6.229  0.00  0.00     0.000 A 
ATOM     41  C   UNL d   1      29.817 -14.531   5.788  0.00  0.00     0.001 A 
ATOM     42  C   UNL d   1      30.119 -14.451   4.435  0.00  0.00     0.017 A 
ENDBRANCH  34  37
ENDBRANCH  32  33
ENDBRANCH  27  32
ENDBRANCH   1  26
TORSDOF 14
ENDMDL
MODEL 6
REMARK VINA RESULT:    -6.844      3.256      7.689
REMARK INTER + INTRA:         -16.003
REMARK INTER:                 -11.021
REMARK INTRA:                  -4.982
REMARK CONF_INDEPENDENT:        4.176
REMARK UNBOUND:                -4.982
REMARK  14 active torsions:
REMARK  status: ('A' for Active; 'I' for Inactive)
REMARK    1  A    between atoms: C_2  and  C_3 
REMARK    2  A    between atoms: C_3  and  N_4 
REMARK       I    between atoms: N_4  and  C_5 
REMARK    3  A    between atoms: C_17  and  N_4 
REMARK    4  A    between atoms: C_5  and  C_7 
REMARK    5  A    between atoms: C_7  and  N_8 
REMARK       I    between atoms: N_8  and  C_9 
REMARK    6  A    between atoms: C_9  and  C_11 
REMARK    7  A    between atoms: C_17  and  C_29 
REMARK    8  A    between atoms: C_17  and  C_18 
REMARK       I    between atoms: C_18  and  N_20 
REMARK    9  A    between atoms: N_20  and  C_21 
REMARK   10  A    between atoms: C_21  and  C_24 
REMARK   11  A    between atoms: C_24  and  C_25 
REMARK   12  A    between atoms: C_30  and  O_31 
REMARK   13  A    between atoms: C_33  and  O_34 
REMARK   14  A    between atoms: C_36  and  O_37 
ROOT
ATOM      1  C   UNL d   1      26.134 -12.851  -3.858  0.00  0.00     0.218 C 
ENDROOT
BRANCH   1   2
ATOM      2  C   UNL d   1      26.870 -12.933  -5.185  0.00  0.00     0.040 A 
ATOM      3  C   UNL d   1      27.757 -13.982  -5.507  0.00  0.00     0.080 A 
ATOM      4  C   UNL d   1      28.490 -13.973  -6.698  0.00  0.00     0.073 A 
ATOM      5  C   UNL d   1      28.307 -12.945  -7.610  0.00  0.00     0.071 A 
ATOM      6  C   UNL d   1      27.448 -11.903  -7.333  0.00  0.00     0.073 A 
ATOM      7  C   UNL d   1      26.730 -11.918  -6.149  0.00  0.00     0.080 A 
BRANCH   3   8
ATOM      8  O   UNL d   1      27.988 -15.097  -4.746  0.00  0.00    -0.360 OA
ATOM      9  H   UNL d   1      28.568 -14.914  -3.996  0.00  0.00     0.217 HD
ENDBRANCH   3   8
BRANCH   5  10
ATOM     10  O   UNL d   1      28.919 -12.932  -8.824  0.00  0.00    -0.361 OA
ATOM     11  H   UNL d   1      29.515 -13.696  -8.874  0.00  0.00     0.217 HD
ENDBRANCH   5  10
BRANCH   7  12
ATOM     12  O   UNL d   1      25.828 -10.916  -5.976  0.00  0.00    -0.360 OA
ATOM     13  H   UNL d   1      25.155 -11.136  -5.316  0.00  0.00     0.217 HD
ENDBRANCH   7  12
ENDBRANCH   1   2
BRANCH   1  14
ATOM     14  C   UNL d   1      25.598 -14.184  -3.296  0.00  0.00     0.246 C 
ATOM     15  O   UNL d   1      24.396 -14.449  -3.406  0.00  0.00    -0.271 OA
ATOM     16  N   UNL d   1      26.498 -14.980  -2.607  0.00  0.00    -0.351 N 
ATOM     17  H   UNL d   1      27.482 -14.703  -2.672  0.00  0.00     0.163 HD
BRANCH  16  18
ATOM     18  C   UNL d   1      26.126 -15.997  -1.647  0.00  0.00     0.026 C 
ATOM     19  C   UNL d   1      27.413 -16.813  -1.486  0.00  0.00     0.038 C 
ATOM     20  C   UNL d   1      25.692 -15.200  -0.421  0.00  0.00     0.038 C 
BRANCH  18  21
ATOM     21  C   UNL d   1      24.945 -16.942  -2.160  0.00  0.00     0.038 C 
BRANCH  21  22
ATOM     22  C   UNL d   1      24.049 -17.636  -1.058  0.00  0.00    -0.049 C 
ATOM     23  C   UNL d   1      23.268 -18.842  -1.603  0.00  0.00     0.014 C 
ATOM     24  C   UNL d   1      24.865 -18.068   0.168  0.00  0.00     0.014 C 
ATOM     25  C   UNL d   1      22.978 -16.673  -0.515  0.00  0.00     0.014 C 
ENDBRANCH  21  22
ENDBRANCH  18  21
ENDBRANCH  16  18
ENDBRANCH   1  14
BRANCH   1  26
ATOM     26  N   UNL d   1      26.748 -11.962  -2.826  0.00  0.00    -0.333 N 
ATOM     27  C   UNL d   1      27.942 -12.369  -2.207  0.00  0.00     0.238 C 
ATOM     28  O   UNL d   1      28.561 -13.401  -2.484  0.00  0.00    -0.272 OA
BRANCH  26  29
ATOM     29  C   UNL d   1      26.131 -10.611  -2.741  0.00  0.00     0.127 C 
BRANCH  29  30
ATOM     30  C   UNL d   1      27.003  -9.461  -3.157  0.00  0.00     0.015 C 
ATOM     31  C   UNL d   1      28.109  -9.685  -4.133  0.00  0.00     0.006 C 
ENDBRANCH  29  30
ENDBRANCH  26  29
BRANCH  27  32
ATOM     32  C   UNL d   1      28.584 -11.552  -1.113  0.00  0.00     0.225 C 
BRANCH  32  33
ATOM     33  N   UNL d   1      28.821 -12.290   0.089  0.00  0.00    -0.348 N 
ATOM     34  C   UNL d   1      27.710 -12.702   0.791  0.00  0.00     0.252 C 
ATOM     35  O   UNL d   1      26.570 -12.519   0.422  0.00  0.00    -0.268 OA
ATOM     36  H   UNL d   1      29.779 -12.456   0.364  0.00  0.00     0.163 HD
BRANCH  34  37
ATOM     37  C   UNL d   1      27.993 -13.373   2.067  0.00  0.00     0.032 A 
ATOM     38  C   UNL d   1      27.031 -13.325   3.077  0.00  0.00     0.017 A 
ATOM     39  C   UNL d   1      27.356 -13.802   4.343  0.00  0.00     0.001 A 
ATOM     40  C   UNL d   1      28.608 -14.381   4.568  0.00  0.00     0.000 A 
ATOM     41  C   UNL d   1      29.553 -14.450   3.544  0.00  0.00     0.001 A 
ATOM     42  C   UNL d   1      29.250 -13.937   2.290  0.00  0.00     0.017 A 
ENDBRANCH  34  37
ENDBRANCH  32  33
ENDBRANCH  27  32
ENDBRANCH   1  26
TORSDOF 14
ENDMDL
MODEL 7
REMARK VINA RESULT:    -6.693      3.112      7.307
REMARK INTER + INTRA:         -15.892
REMARK INTER:                 -10.869
REMARK INTRA:                  -5.022
REMARK CONF_INDEPENDENT:        4.176
REMARK UNBOUND:                -5.022
REMARK  14 active torsions:
REMARK  status: ('A' for Active; 'I' for Inactive)
REMARK    1  A    between atoms: C_2  and  C_3 
REMARK    2  A    between atoms: C_3  and  N_4 
REMARK       I    between atoms: N_4  and  C_5 
REMARK    3  A    between atoms: C_17  and  N_4 
REMARK    4  A    between atoms: C_5  and  C_7 
REMARK    5  A    between atoms: C_7  and  N_8 
REMARK       I    between atoms: N_8  and  C_9 
REMARK    6  A    between atoms: C_9  and  C_11 
REMARK    7  A    between atoms: C_17  and  C_29 
REMARK    8  A    between atoms: C_17  and  C_18 
REMARK       I    between atoms: C_18  and  N_20 
REMARK    9  A    between atoms: N_20  and  C_21 
REMARK   10  A    between atoms: C_21  and  C_24 
REMARK   11  A    between atoms: C_24  and  C_25 
REMARK   12  A    between atoms: C_30  and  O_31 
REMARK   13  A    between atoms: C_33  and  O_34 
REMARK   14  A    between atoms: C_36  and  O_37 
ROOT
ATOM      1  C   UNL d   1      27.669 -14.499  -4.689  0.00  0.00     0.218 C 
ENDROOT
BRANCH   1   2
ATOM      2  C   UNL d   1      28.787 -15.404  -5.177  0.00  0.00     0.040 A 
ATOM      3  C   UNL d   1      29.342 -16.432  -4.387  0.00  0.00     0.080 A 
ATOM      4  C   UNL d   1      30.435 -17.181  -4.834  0.00  0.00     0.073 A 
ATOM      5  C   UNL d   1      30.954 -16.952  -6.099  0.00  0.00     0.071 A 
ATOM      6  C   UNL d   1      30.438 -15.958  -6.902  0.00  0.00     0.073 A 
ATOM      7  C   UNL d   1      29.359 -15.219  -6.449  0.00  0.00     0.080 A 
BRANCH   3   8
ATOM      8  O   UNL d   1      28.894 -16.825  -3.153  0.00  0.00    -0.360 OA
ATOM      9  H   UNL d   1      29.524 -16.615  -2.453  0.00  0.00     0.217 HD
ENDBRANCH   3   8
BRANCH   5  10
ATOM     10  O   UNL d   1      31.953 -17.712  -6.624  0.00  0.00    -0.361 OA
ATOM     11  H   UNL d   1      31.634 -18.625  -6.701  0.00  0.00     0.217 HD
ENDBRANCH   5  10
BRANCH   7  12
ATOM     12  O   UNL d   1      28.832 -14.320  -7.323  0.00  0.00    -0.360 OA
ATOM     13  H   UNL d   1      28.822 -14.653  -8.232  0.00  0.00     0.217 HD
ENDBRANCH   7  12
ENDBRANCH   1   2
BRANCH   1  14
ATOM     14  C   UNL d   1      26.435 -15.207  -4.090  0.00  0.00     0.246 C 
ATOM     15  O   UNL d   1      25.426 -15.358  -4.786  0.00  0.00    -0.271 OA
ATOM     16  N   UNL d   1      26.502 -15.556  -2.751  0.00  0.00    -0.351 N 
ATOM     17  H   UNL d   1      27.424 -15.471  -2.311  0.00  0.00     0.163 HD
BRANCH  16  18
ATOM     18  C   UNL d   1      25.352 -15.796  -1.907  0.00  0.00     0.026 C 
ATOM     19  C   UNL d   1      25.898 -15.561  -0.495  0.00  0.00     0.038 C 
ATOM     20  C   UNL d   1      24.323 -14.781  -2.395  0.00  0.00     0.038 C 
BRANCH  18  21
ATOM     21  C   UNL d   1      24.785 -17.284  -2.029  0.00  0.00     0.038 C 
BRANCH  21  22
ATOM     22  C   UNL d   1      23.731 -17.744  -0.945  0.00  0.00    -0.049 C 
ATOM     23  C   UNL d   1      22.785 -16.610  -0.521  0.00  0.00     0.014 C 
ATOM     24  C   UNL d   1      22.905 -18.950  -1.410  0.00  0.00     0.014 C 
ATOM     25  C   UNL d   1      24.421 -18.200   0.354  0.00  0.00     0.014 C 
ENDBRANCH  21  22
ENDBRANCH  18  21
ENDBRANCH  16  18
ENDBRANCH   1  14
BRANCH   1  26
ATOM     26  N   UNL d   1      28.097 -13.284  -3.931  0.00  0.00    -0.333 N 
ATOM     27  C   UNL d   1      28.804 -13.452  -2.728  0.00  0.00     0.238 C 
ATOM     28  O   UNL d   1      29.146 -14.543  -2.260  0.00  0.00    -0.272 OA
BRANCH  26  29
ATOM     29  C   UNL d   1      27.922 -12.009  -4.676  0.00  0.00     0.127 C 
BRANCH  29  30
ATOM     30  C   UNL d   1      26.513 -11.500  -4.789  0.00  0.00     0.015 C 
ATOM     31  C   UNL d   1      25.530 -11.793  -3.706  0.00  0.00     0.006 C 
ENDBRANCH  29  30
ENDBRANCH  26  29
BRANCH  27  32
ATOM     32  C   UNL d   1      29.213 -12.273  -1.880  0.00  0.00     0.225 C 
BRANCH  32  33
ATOM     33  N   UNL d   1      29.078 -12.504  -0.475  0.00  0.00    -0.348 N 
ATOM     34  C   UNL d   1      27.798 -12.663   0.006  0.00  0.00     0.252 C 
ATOM     35  O   UNL d   1      26.808 -12.669  -0.693  0.00  0.00    -0.268 OA
ATOM     36  H   UNL d   1      29.919 -12.524   0.086  0.00  0.00     0.163 HD
BRANCH  34  37
ATOM     37  C   UNL d   1      27.693 -12.803   1.464  0.00  0.00     0.032 A 
ATOM     38  C   UNL d   1      27.641 -11.649   2.246  0.00  0.00     0.017 A 
ATOM     39  C   UNL d   1      27.719 -11.766   3.631  0.00  0.00     0.001 A 
ATOM     40  C   UNL d   1      27.780 -13.031   4.219  0.00  0.00     0.000 A 
ATOM     41  C   UNL d   1      27.804 -14.181   3.430  0.00  0.00     0.001 A 
ATOM     42  C   UNL d   1      27.769 -14.070   2.047  0.00  0.00     0.017 A 
ENDBRANCH  34  37
ENDBRANCH  32  33
ENDBRANCH  27  32
ENDBRANCH   1  26
TORSDOF 14
ENDMDL
MODEL 8
REMARK VINA RESULT:    -6.336      3.390      8.988
REMARK INTER + INTRA:         -15.835
REMARK INTER:                 -10.512
REMARK INTRA:                  -5.323
REMARK CONF_INDEPENDENT:        4.176
REMARK UNBOUND:                -5.323
REMARK  14 active torsions:
REMARK  status: ('A' for Active; 'I' for Inactive)
REMARK    1  A    between atoms: C_2  and  C_3 
REMARK    2  A    between atoms: C_3  and  N_4 
REMARK       I    between atoms: N_4  and  C_5 
REMARK    3  A    between atoms: C_17  and  N_4 
REMARK    4  A    between atoms: C_5  and  C_7 
REMARK    5  A    between atoms: C_7  and  N_8 
REMARK       I    between atoms: N_8  and  C_9 
REMARK    6  A    between atoms: C_9  and  C_11 
REMARK    7  A    between atoms: C_17  and  C_29 
REMARK    8  A    between atoms: C_17  and  C_18 
REMARK       I    between atoms: C_18  and  N_20 
REMARK    9  A    between atoms: N_20  and  C_21 
REMARK   10  A    between atoms: C_21  and  C_24 
REMARK   11  A    between atoms: C_24  and  C_25 
REMARK   12  A    between atoms: C_30  and  O_31 
REMARK   13  A    between atoms: C_33  and  O_34 
REMARK   14  A    between atoms: C_36  and  O_37 
ROOT
ATOM      1  C   UNL d   1      26.688 -15.580  -1.465  0.00  0.00     0.218 C 
ENDROOT
BRANCH   1   2
ATOM      2  C   UNL d   1      25.551 -16.516  -1.094  0.00  0.00     0.040 A 
ATOM      3  C   UNL d   1      24.195 -16.211  -1.336  0.00  0.00     0.080 A 
ATOM      4  C   UNL d   1      23.171 -17.054  -0.893  0.00  0.00     0.073 A 
ATOM      5  C   UNL d   1      23.487 -18.241  -0.250  0.00  0.00     0.071 A 
ATOM      6  C   UNL d   1      24.800 -18.575   0.004  0.00  0.00     0.073 A 
ATOM      7  C   UNL d   1      25.807 -17.732  -0.435  0.00  0.00     0.080 A 
BRANCH   3   8
ATOM      8  O   UNL d   1      23.730 -15.119  -2.020  0.00  0.00    -0.360 OA
ATOM      9  H   UNL d   1      23.744 -15.253  -2.975  0.00  0.00     0.217 HD
ENDBRANCH   3   8
BRANCH   5  10
ATOM     10  O   UNL d   1      22.539 -19.144   0.118  0.00  0.00    -0.361 OA
ATOM     11  H   UNL d   1      22.980 -19.985   0.318  0.00  0.00     0.217 HD
ENDBRANCH   5  10
BRANCH   7  12
ATOM     12  O   UNL d   1      27.082 -18.163  -0.242  0.00  0.00    -0.360 OA
ATOM     13  H   UNL d   1      27.527 -17.685   0.473  0.00  0.00     0.217 HD
ENDBRANCH   7  12
ENDBRANCH   1   2
BRANCH   1  14
ATOM     14  C   UNL d   1      28.032 -16.251  -1.817  0.00  0.00     0.246 C 
ATOM     15  O   UNL d   1      28.784 -16.615  -0.908  0.00  0.00    -0.271 OA
ATOM     16  N   UNL d   1      28.362 -16.325  -3.161  0.00  0.00    -0.351 N 
ATOM     17  H   UNL d   1      27.614 -16.083  -3.819  0.00  0.00     0.163 HD
BRANCH  16  18
ATOM     18  C   UNL d   1      29.707 -16.485  -3.668  0.00  0.00     0.026 C 
ATOM     19  C   UNL d   1      30.425 -15.232  -3.157  0.00  0.00     0.038 C 
ATOM     20  C   UNL d   1      30.170 -17.806  -3.060  0.00  0.00     0.038 C 
BRANCH  18  21
ATOM     21  C   UNL d   1      29.774 -16.538  -5.262  0.00  0.00     0.038 C 
BRANCH  21  22
ATOM     22  C   UNL d   1      30.995 -17.308  -5.907  0.00  0.00    -0.049 C 
ATOM     23  C   UNL d   1      32.318 -17.041  -5.172  0.00  0.00     0.014 C 
ATOM     24  C   UNL d   1      30.751 -18.821  -5.988  0.00  0.00     0.014 C 
ATOM     25  C   UNL d   1      31.241 -16.857  -7.358  0.00  0.00     0.014 C 
ENDBRANCH  21  22
ENDBRANCH  18  21
ENDBRANCH  16  18
ENDBRANCH   1  14
BRANCH   1  26
ATOM     26  N   UNL d   1      26.328 -14.438  -2.360  0.00  0.00    -0.333 N 
ATOM     27  C   UNL d   1      25.783 -14.718  -3.625  0.00  0.00     0.238 C 
ATOM     28  O   UNL d   1      25.530 -15.851  -4.047  0.00  0.00    -0.272 OA
BRANCH  26  29
ATOM     29  C   UNL d   1      26.376 -13.107  -1.699  0.00  0.00     0.127 C 
BRANCH  29  30
ATOM     30  C   UNL d   1      27.241 -13.010  -0.475  0.00  0.00     0.015 C 
ATOM     31  C   UNL d   1      26.654 -13.280   0.871  0.00  0.00     0.006 C 
ENDBRANCH  29  30
ENDBRANCH  26  29
BRANCH  27  32
ATOM     32  C   UNL d   1      25.454 -13.619  -4.605  0.00  0.00     0.225 C 
BRANCH  32  33
ATOM     33  N   UNL d   1      26.600 -13.088  -5.275  0.00  0.00    -0.348 N 
ATOM     34  C   UNL d   1      27.482 -14.000  -5.809  0.00  0.00     0.252 C 
ATOM     35  O   UNL d   1      27.312 -15.200  -5.787  0.00  0.00    -0.268 OA
ATOM     36  H   UNL d   1      26.709 -12.083  -5.307  0.00  0.00     0.163 HD
BRANCH  34  37
ATOM     37  C   UNL d   1      28.693 -13.420  -6.405  0.00  0.00     0.032 A 
ATOM     38  C   UNL d   1      28.663 -13.036  -7.746  0.00  0.00     0.017 A 
ATOM     39  C   UNL d   1      29.848 -12.652  -8.366  0.00  0.00     0.001 A 
ATOM     40  C   UNL d   1      31.032 -12.590  -7.627  0.00  0.00     0.000 A 
ATOM     41  C   UNL d   1      31.047 -12.949  -6.279  0.00  0.00     0.001 A 
ATOM     42  C   UNL d   1      29.876 -13.374  -5.665  0.00  0.00     0.017 A 
ENDBRANCH  34  37
ENDBRANCH  32  33
ENDBRANCH  27  32
ENDBRANCH   1  26
TORSDOF 14
ENDMDL
MODEL 9
REMARK VINA RESULT:    -6.276      2.777      7.900
REMARK INTER + INTRA:         -15.543
REMARK INTER:                 -10.452
REMARK INTRA:                  -5.091
REMARK CONF_INDEPENDENT:        4.176
REMARK UNBOUND:                -5.091
REMARK  14 active torsions:
REMARK  status: ('A' for Active; 'I' for Inactive)
REMARK    1  A    between atoms: C_2  and  C_3 
REMARK    2  A    between atoms: C_3  and  N_4 
REMARK       I    between atoms: N_4  and  C_5 
REMARK    3  A    between atoms: C_17  and  N_4 
REMARK    4  A    between atoms: C_5  and  C_7 
REMARK    5  A    between atoms: C_7  and  N_8 
REMARK       I    between atoms: N_8  and  C_9 
REMARK    6  A    between atoms: C_9  and  C_11 
REMARK    7  A    between atoms: C_17  and  C_29 
REMARK    8  A    between atoms: C_17  and  C_18 
REMARK       I    between atoms: C_18  and  N_20 
REMARK    9  A    between atoms: N_20  and  C_21 
REMARK   10  A    between atoms: C_21  and  C_24 
REMARK   11  A    between atoms: C_24  and  C_25 
REMARK   12  A    between atoms: C_30  and  O_31 
REMARK   13  A    between atoms: C_33  and  O_34 
REMARK   14  A    between atoms: C_36  and  O_37 
ROOT
ATOM      1  C   UNL d   1      27.600 -16.286  -1.094  0.00  0.00     0.218 C 
ENDROOT
BRANCH   1   2
ATOM      2  C   UNL d   1      26.265 -17.001  -0.977  0.00  0.00     0.040 A 
ATOM      3  C   UNL d   1      25.167 -16.719  -1.816  0.00  0.00     0.080 A 
ATOM      4  C   UNL d   1      23.924 -17.329  -1.615  0.00  0.00     0.073 A 
ATOM      5  C   UNL d   1      23.776 -18.271  -0.609  0.00  0.00     0.071 A 
ATOM      6  C   UNL d   1      24.825 -18.576   0.230  0.00  0.00     0.073 A 
ATOM      7  C   UNL d   1      26.050 -17.964   0.027  0.00  0.00     0.080 A 
BRANCH   3   8
ATOM      8  O   UNL d   1      25.178 -15.872  -2.892  0.00  0.00    -0.360 OA
ATOM      9  H   UNL d   1      24.816 -15.003  -2.677  0.00  0.00     0.217 HD
ENDBRANCH   3   8
BRANCH   5  10
ATOM     10  O   UNL d   1      22.620 -18.965  -0.428  0.00  0.00    -0.361 OA
ATOM     11  H   UNL d   1      22.784 -19.665   0.224  0.00  0.00     0.217 HD
ENDBRANCH   5  10
BRANCH   7  12
ATOM     12  O   UNL d   1      27.072 -18.377   0.823  0.00  0.00    -0.360 OA
ATOM     13  H   UNL d   1      27.931 -18.049   0.519  0.00  0.00     0.217 HD
ENDBRANCH   7  12
ENDBRANCH   1   2
BRANCH   1  14
ATOM     14  C   UNL d   1      28.139 -16.084  -2.526  0.00  0.00     0.246 C 
ATOM     15  O   UNL d   1      29.050 -16.808  -2.939  0.00  0.00    -0.271 OA
ATOM     16  N   UNL d   1      27.618 -15.021  -3.246  0.00  0.00    -0.351 N 
ATOM     17  H   UNL d   1      26.799 -14.560  -2.837  0.00  0.00     0.163 HD
BRANCH  16  18
ATOM     18  C   UNL d   1      28.273 -14.396  -4.374  0.00  0.00     0.026 C 
ATOM     19  C   UNL d   1      29.484 -13.706  -3.738  0.00  0.00     0.038 C 
ATOM     20  C   UNL d   1      28.591 -15.563  -5.304  0.00  0.00     0.038 C 
BRANCH  18  21
ATOM     21  C   UNL d   1      27.357 -13.315  -5.111  0.00  0.00     0.038 C 
BRANCH  21  22
ATOM     22  C   UNL d   1      26.373 -12.469  -4.207  0.00  0.00    -0.049 C 
ATOM     23  C   UNL d   1      25.069 -13.217  -3.890  0.00  0.00     0.014 C 
ATOM     24  C   UNL d   1      27.032 -12.013  -2.898  0.00  0.00     0.014 C 
ATOM     25  C   UNL d   1      25.934 -11.174  -4.914  0.00  0.00     0.014 C 
ENDBRANCH  21  22
ENDBRANCH  18  21
ENDBRANCH  16  18
ENDBRANCH   1  14
BRANCH   1  26
ATOM     26  N   UNL d   1      27.784 -15.099  -0.205  0.00  0.00    -0.333 N 
ATOM     27  C   UNL d   1      26.882 -14.027  -0.313  0.00  0.00     0.238 C 
ATOM     28  O   UNL d   1      25.904 -14.005  -1.067  0.00  0.00    -0.272 OA
BRANCH  26  29
ATOM     29  C   UNL d   1      28.787 -15.298   0.876  0.00  0.00     0.127 C 
BRANCH  29  30
ATOM     30  C   UNL d   1      30.191 -15.587   0.427  0.00  0.00     0.015 C 
ATOM     31  C   UNL d   1      30.929 -14.582  -0.393  0.00  0.00     0.006 C 
ENDBRANCH  29  30
ENDBRANCH  26  29
BRANCH  27  32
ATOM     32  C   UNL d   1      27.043 -12.772   0.508  0.00  0.00     0.225 C 
BRANCH  32  33
ATOM     33  N   UNL d   1      27.058 -13.009   1.919  0.00  0.00    -0.348 N 
ATOM     34  C   UNL d   1      28.216 -12.683   2.589  0.00  0.00     0.252 C 
ATOM     35  O   UNL d   1      29.180 -12.168   2.064  0.00  0.00    -0.268 OA
ATOM     36  H   UNL d   1      26.233 -13.413   2.342  0.00  0.00     0.163 HD
BRANCH  34  37
ATOM     37  C   UNL d   1      28.228 -13.029   4.017  0.00  0.00     0.032 A 
ATOM     38  C   UNL d   1      28.145 -12.000   4.956  0.00  0.00     0.017 A 
ATOM     39  C   UNL d   1      28.332 -12.298   6.302  0.00  0.00     0.001 A 
ATOM     40  C   UNL d   1      28.530 -13.622   6.701  0.00  0.00     0.000 A 
ATOM     41  C   UNL d   1      28.583 -14.648   5.757  0.00  0.00     0.001 A 
ATOM     42  C   UNL d   1      28.440 -14.352   4.408  0.00  0.00     0.017 A 
ENDBRANCH  34  37
ENDBRANCH  32  33
ENDBRANCH  27  32
ENDBRANCH   1  26
TORSDOF 14
ENDMDL
