MODEL 1
REMARK VINA RESULT:    -7.488      0.000      0.000
REMARK INTER + INTRA:         -16.335
REMARK INTER:                 -11.963
REMARK INTRA:                  -4.372
REMARK CONF_INDEPENDENT:        4.474
REMARK UNBOUND:                -4.372
REMARK  15 active torsions:
REMARK  status: ('A' for Active; 'I' for Inactive)
REMARK    1  A    between atoms: C_2  and  C_3 
REMARK    2  A    between atoms: C_3  and  C_4 
REMARK    3  A    between atoms: C_4  and  N_5 
REMARK       I    between atoms: N_5  and  C_6 
REMARK    4  A    between atoms: C_6  and  C_8 
REMARK    5  A    between atoms: C_8  and  C_9 
REMARK    6  A    between atoms: C_8  and  N_18 
REMARK    7  A    between atoms: C_10  and  O_11 
REMARK    8  A    between atoms: C_13  and  O_14 
REMARK    9  A    between atoms: C_16  and  O_17 
REMARK   10  A    between atoms: N_18  and  C_19 
REMARK       I    between atoms: N_18  and  C_22 
REMARK   11  A    between atoms: C_19  and  C_20 
REMARK   12  A    between atoms: C_22  and  C_24 
REMARK   13  A    between atoms: C_24  and  O_25 
REMARK   14  A    between atoms: C_24  and  C_26 
REMARK   15  A    between atoms: C_24  and  C_32 
ROOT
ATOM      1  C   UNL d   1      26.247 -12.817  -4.176  0.00  0.00     0.218 C 
ENDROOT
BRANCH   1   2
ATOM      2  C   UNL d   1      26.019 -11.238  -4.320  0.00  0.00     0.245 C 
ATOM      3  N   UNL d   1      25.314 -10.600  -5.285  0.00  0.00    -0.359 N 
ATOM      4  H   UNL d   1      25.014 -11.082  -6.119  0.00  0.00     0.162 HD
ATOM      5  O   UNL d   1      26.447 -10.362  -3.546  0.00  0.00    -0.271 OA
BRANCH   3   6
ATOM      6  C   UNL d   1      25.562  -9.153  -5.242  0.00  0.00     0.122 C 
BRANCH   6   7
ATOM      7  C   UNL d   1      24.389  -8.405  -4.764  0.00  0.00     0.019 C 
BRANCH   7   8
ATOM      8  C   UNL d   1      23.583  -7.912  -5.951  0.00  0.00    -0.003 C 
ATOM      9  C   UNL d   1      22.634  -6.874  -5.411  0.00  0.00     0.005 C 
ENDBRANCH   7   8
ENDBRANCH   6   7
ENDBRANCH   3   6
ENDBRANCH   1   2
BRANCH   1  10
ATOM     10  C   UNL d   1      27.385 -13.238  -5.112  0.00  0.00     0.040 A 
ATOM     11  C   UNL d   1      27.403 -14.466  -5.800  0.00  0.00     0.080 A 
ATOM     12  C   UNL d   1      28.480 -14.845  -6.597  0.00  0.00     0.073 A 
ATOM     13  C   UNL d   1      29.512 -13.942  -6.804  0.00  0.00     0.071 A 
ATOM     14  C   UNL d   1      29.515 -12.706  -6.176  0.00  0.00     0.073 A 
ATOM     15  C   UNL d   1      28.484 -12.386  -5.299  0.00  0.00     0.080 A 
BRANCH  11  16
ATOM     16  O   UNL d   1      26.362 -15.352  -5.768  0.00  0.00    -0.360 OA
ATOM     17  H   UNL d   1      26.147 -15.509  -4.818  0.00  0.00     0.217 HD
ENDBRANCH  11  16
BRANCH  13  18
ATOM     18  O   UNL d   1      30.549 -14.220  -7.644  0.00  0.00    -0.361 OA
ATOM     19  H   UNL d   1      30.251 -14.069  -8.556  0.00  0.00     0.217 HD
ENDBRANCH  13  18
BRANCH  15  20
ATOM     20  O   UNL d   1      28.532 -11.200  -4.625  0.00  0.00    -0.360 OA
ATOM     21  H   UNL d   1      28.355 -11.351  -3.682  0.00  0.00     0.217 HD
ENDBRANCH  15  20
ENDBRANCH   1  10
BRANCH   1  22
ATOM     22  N   UNL d   1      26.464 -13.520  -2.813  0.00  0.00    -0.331 N 
ATOM     23  C   UNL d   1      25.780 -14.730  -2.537  0.00  0.00     0.265 C 
ATOM     24  O   UNL d   1      25.002 -15.168  -3.387  0.00  0.00    -0.269 OA
BRANCH  22  25
ATOM     25  C   UNL d   1      27.067 -12.864  -1.674  0.00  0.00     0.127 C 
BRANCH  25  26
ATOM     26  C   UNL d   1      28.518 -12.823  -1.478  0.00  0.00     0.015 C 
ATOM     27  C   UNL d   1      29.580 -13.407  -2.334  0.00  0.00     0.006 C 
ENDBRANCH  25  26
ENDBRANCH  22  25
BRANCH  23  28
ATOM     28  C   UNL d   1      25.982 -15.552  -1.118  0.00  0.00     0.194 C 
BRANCH  28  29
ATOM     29  O   UNL d   1      26.068 -14.685   0.020  0.00  0.00    -0.371 OA
ATOM     30  H   UNL d   1      25.581 -13.874  -0.127  0.00  0.00     0.212 HD
ENDBRANCH  28  29
BRANCH  28  31
ATOM     31  C   UNL d   1      24.859 -16.619  -0.883  0.00  0.00    -0.010 C 
ATOM     32  C   UNL d   1      25.142 -17.954  -0.533  0.00  0.00     0.011 C 
ATOM     33  C   UNL d   1      24.142 -18.848  -0.135  0.00  0.00     0.001 C 
ATOM     34  C   UNL d   1      22.808 -18.476  -0.195  0.00  0.00     0.000 C 
ATOM     35  C   UNL d   1      22.481 -17.215  -0.646  0.00  0.00     0.001 C 
ATOM     36  C   UNL d   1      23.489 -16.311  -0.965  0.00  0.00     0.011 C 
ENDBRANCH  28  31
BRANCH  28  37
ATOM     37  C   UNL d   1      27.397 -16.204  -1.181  0.00  0.00    -0.010 C 
ATOM     38  C   UNL d   1      28.099 -16.598  -0.034  0.00  0.00     0.011 C 
ATOM     39  C   UNL d   1      29.408 -17.071  -0.138  0.00  0.00     0.001 C 
ATOM     40  C   UNL d   1      29.981 -17.306  -1.389  0.00  0.00     0.000 C 
ATOM     41  C   UNL d   1      29.292 -16.969  -2.539  0.00  0.00     0.001 C 
ATOM     42  C   UNL d   1      28.065 -16.339  -2.417  0.00  0.00     0.011 C 
ENDBRANCH  28  37
ENDBRANCH  23  28
ENDBRANCH   1  22
TORSDOF 15
ENDMDL
MODEL 2
REMARK VINA RESULT:    -7.412      2.424      7.034
REMARK INTER + INTRA:         -16.089
REMARK INTER:                 -11.887
REMARK INTRA:                  -4.203
REMARK CONF_INDEPENDENT:        4.474
REMARK UNBOUND:                -4.203
REMARK  15 active torsions:
REMARK  status: ('A' for Active; 'I' for Inactive)
REMARK    1  A    between atoms: C_2  and  C_3 
REMARK    2  A    between atoms: C_3  and  C_4 
REMARK    3  A    between atoms: C_4  and  N_5 
REMARK       I    between atoms: N_5  and  C_6 
REMARK    4  A    between atoms: C_6  and  C_8 
REMARK    5  A    between atoms: C_8  and  C_9 
REMARK    6  A    between atoms: C_8  and  N_18 
REMARK    7  A    between atoms: C_10  and  O_11 
REMARK    8  A    between atoms: C_13  and  O_14 
REMARK    9  A    between atoms: C_16  and  O_17 
REMARK   10  A    between atoms: N_18  and  C_19 
REMARK       I    between atoms: N_18  and  C_22 
REMARK   11  A    between atoms: C_19  and  C_20 
REMARK   12  A    between atoms: C_22  and  C_24 
REMARK   13  A    between atoms: C_24  and  O_25 
REMARK   14  A    between atoms: C_24  and  C_26 
REMARK   15  A    between atoms: C_24  and  C_32 
ROOT
ATOM      1  C   UNL d   1      26.872 -15.773  -2.922  0.00  0.00     0.218 C 
ENDROOT
BRANCH   1   2
ATOM      2  C   UNL d   1      26.315 -16.191  -1.479  0.00  0.00     0.245 C 
ATOM      3  N   UNL d   1      26.097 -17.446  -1.021  0.00  0.00    -0.359 N 
ATOM      4  H   UNL d   1      26.105 -18.240  -1.645  0.00  0.00     0.162 HD
ATOM      5  O   UNL d   1      26.015 -15.412  -0.556  0.00  0.00    -0.271 OA
BRANCH   3   6
ATOM      6  C   UNL d   1      25.329 -17.420   0.230  0.00  0.00     0.122 C 
BRANCH   6   7
ATOM      7  C   UNL d   1      24.154 -18.304   0.177  0.00  0.00     0.019 C 
BRANCH   7   8
ATOM      8  C   UNL d   1      22.966 -17.537  -0.373  0.00  0.00    -0.003 C 
ATOM      9  C   UNL d   1      22.006 -18.572  -0.897  0.00  0.00     0.005 C 
ENDBRANCH   7   8
ENDBRANCH   6   7
ENDBRANCH   3   6
ENDBRANCH   1   2
BRANCH   1  10
ATOM     10  C   UNL d   1      26.530 -14.300  -3.175  0.00  0.00     0.040 A 
ATOM     11  C   UNL d   1      27.013 -13.248  -2.375  0.00  0.00     0.080 A 
ATOM     12  C   UNL d   1      26.636 -11.926  -2.594  0.00  0.00     0.073 A 
ATOM     13  C   UNL d   1      25.850 -11.627  -3.696  0.00  0.00     0.071 A 
ATOM     14  C   UNL d   1      25.383 -12.630  -4.532  0.00  0.00     0.073 A 
ATOM     15  C   UNL d   1      25.681 -13.956  -4.237  0.00  0.00     0.080 A 
BRANCH  11  16
ATOM     16  O   UNL d   1      27.909 -13.437  -1.358  0.00  0.00    -0.360 OA
ATOM     17  H   UNL d   1      27.512 -14.102  -0.746  0.00  0.00     0.217 HD
ENDBRANCH  11  16
BRANCH  13  18
ATOM     18  O   UNL d   1      25.521 -10.343  -4.015  0.00  0.00    -0.361 OA
ATOM     19  H   UNL d   1      24.727 -10.363  -4.574  0.00  0.00     0.217 HD
ENDBRANCH  13  18
BRANCH  15  20
ATOM     20  O   UNL d   1      25.155 -14.942  -5.020  0.00  0.00    -0.360 OA
ATOM     21  H   UNL d   1      25.864 -15.372  -5.526  0.00  0.00     0.217 HD
ENDBRANCH  15  20
ENDBRANCH   1  10
BRANCH   1  22
ATOM     22  N   UNL d   1      28.338 -16.006  -3.363  0.00  0.00    -0.331 N 
ATOM     23  C   UNL d   1      28.687 -15.855  -4.728  0.00  0.00     0.265 C 
ATOM     24  O   UNL d   1      27.794 -15.575  -5.532  0.00  0.00    -0.269 OA
BRANCH  22  25
ATOM     25  C   UNL d   1      29.313 -16.680  -2.535  0.00  0.00     0.127 C 
BRANCH  25  26
ATOM     26  C   UNL d   1      29.716 -16.158  -1.227  0.00  0.00     0.015 C 
ATOM     27  C   UNL d   1      30.435 -14.896  -0.920  0.00  0.00     0.006 C 
ENDBRANCH  25  26
ENDBRANCH  22  25
BRANCH  23  28
ATOM     28  C   UNL d   1      30.235 -16.060  -5.269  0.00  0.00     0.194 C 
BRANCH  28  29
ATOM     29  O   UNL d   1      31.219 -15.737  -4.279  0.00  0.00    -0.371 OA
ATOM     30  H   UNL d   1      30.884 -15.087  -3.661  0.00  0.00     0.212 HD
ENDBRANCH  28  29
BRANCH  28  31
ATOM     31  C   UNL d   1      30.489 -17.509  -5.811  0.00  0.00    -0.010 C 
ATOM     32  C   UNL d   1      30.405 -18.651  -4.990  0.00  0.00     0.011 C 
ATOM     33  C   UNL d   1      30.439 -19.948  -5.512  0.00  0.00     0.001 C 
ATOM     34  C   UNL d   1      30.686 -20.152  -6.861  0.00  0.00     0.000 C 
ATOM     35  C   UNL d   1      30.893 -19.061  -7.679  0.00  0.00     0.001 C 
ATOM     36  C   UNL d   1      30.780 -17.776  -7.160  0.00  0.00     0.011 C 
ENDBRANCH  28  31
BRANCH  28  37
ATOM     37  C   UNL d   1      30.465 -14.981  -6.371  0.00  0.00    -0.010 C 
ATOM     38  C   UNL d   1      31.642 -14.916  -7.129  0.00  0.00     0.011 C 
ATOM     39  C   UNL d   1      31.846 -13.861  -8.021  0.00  0.00     0.001 C 
ATOM     40  C   UNL d   1      30.824 -12.949  -8.288  0.00  0.00     0.000 C 
ATOM     41  C   UNL d   1      29.635 -13.019  -7.587  0.00  0.00     0.001 C 
ATOM     42  C   UNL d   1      29.512 -13.962  -6.581  0.00  0.00     0.011 C 
ENDBRANCH  28  37
ENDBRANCH  23  28
ENDBRANCH   1  22
TORSDOF 15
ENDMDL
MODEL 3
REMARK VINA RESULT:    -7.279      3.872      6.734
REMARK INTER + INTRA:         -16.578
REMARK INTER:                 -11.753
REMARK INTRA:                  -4.825
REMARK CONF_INDEPENDENT:        4.474
REMARK UNBOUND:                -4.825
REMARK  15 active torsions:
REMARK  status: ('A' for Active; 'I' for Inactive)
REMARK    1  A    between atoms: C_2  and  C_3 
REMARK    2  A    between atoms: C_3  and  C_4 
REMARK    3  A    between atoms: C_4  and  N_5 
REMARK       I    between atoms: N_5  and  C_6 
REMARK    4  A    between atoms: C_6  and  C_8 
REMARK    5  A    between atoms: C_8  and  C_9 
REMARK    6  A    between atoms: C_8  and  N_18 
REMARK    7  A    between atoms: C_10  and  O_11 
REMARK    8  A    between atoms: C_13  and  O_14 
REMARK    9  A    between atoms: C_16  and  O_17 
REMARK   10  A    between atoms: N_18  and  C_19 
REMARK       I    between atoms: N_18  and  C_22 
REMARK   11  A    between atoms: C_19  and  C_20 
REMARK   12  A    between atoms: C_22  and  C_24 
REMARK   13  A    between atoms: C_24  and  O_25 
REMARK   14  A    between atoms: C_24  and  C_26 
REMARK   15  A    between atoms: C_24  and  C_32 
ROOT
ATOM      1  C   UNL d   1      29.453 -13.601   1.451  0.00  0.00     0.218 C 
ENDROOT
BRANCH   1   2
ATOM      2  C   UNL d   1      28.788 -12.191   1.080  0.00  0.00     0.245 C 
ATOM      3  N   UNL d   1      27.476 -11.942   0.852  0.00  0.00    -0.359 N 
ATOM      4  H   UNL d   1      26.816 -12.694   0.722  0.00  0.00     0.162 HD
ATOM      5  O   UNL d   1      29.388 -11.107   0.964  0.00  0.00    -0.271 OA
BRANCH   3   6
ATOM      6  C   UNL d   1      27.292 -10.606   0.273  0.00  0.00     0.122 C 
BRANCH   6   7
ATOM      7  C   UNL d   1      26.846  -9.625   1.275  0.00  0.00     0.019 C 
BRANCH   7   8
ATOM      8  C   UNL d   1      26.280 -10.351   2.480  0.00  0.00    -0.003 C 
ATOM      9  C   UNL d   1      27.230 -10.080   3.617  0.00  0.00     0.005 C 
ENDBRANCH   7   8
ENDBRANCH   6   7
ENDBRANCH   3   6
ENDBRANCH   1   2
BRANCH   1  10
ATOM     10  C   UNL d   1      29.161 -13.911   2.924  0.00  0.00     0.040 A 
ATOM     11  C   UNL d   1      27.891 -13.747   3.509  0.00  0.00     0.080 A 
ATOM     12  C   UNL d   1      27.672 -13.981   4.864  0.00  0.00     0.073 A 
ATOM     13  C   UNL d   1      28.707 -14.492   5.632  0.00  0.00     0.071 A 
ATOM     14  C   UNL d   1      29.963 -14.704   5.086  0.00  0.00     0.073 A 
ATOM     15  C   UNL d   1      30.194 -14.365   3.757  0.00  0.00     0.080 A 
BRANCH  11  16
ATOM     16  O   UNL d   1      26.783 -13.388   2.793  0.00  0.00    -0.360 OA
ATOM     17  H   UNL d   1      26.992 -13.544   1.842  0.00  0.00     0.217 HD
ENDBRANCH  11  16
BRANCH  13  18
ATOM     18  O   UNL d   1      28.530 -14.825   6.942  0.00  0.00    -0.361 OA
ATOM     19  H   UNL d   1      28.382 -15.783   6.995  0.00  0.00     0.217 HD
ENDBRANCH  13  18
BRANCH  15  20
ATOM     20  O   UNL d   1      31.452 -14.504   3.247  0.00  0.00    -0.360 OA
ATOM     21  H   UNL d   1      32.100 -14.520   3.971  0.00  0.00     0.217 HD
ENDBRANCH  15  20
ENDBRANCH   1  10
BRANCH   1  22
ATOM     22  N   UNL d   1      29.210 -14.893   0.632  0.00  0.00    -0.331 N 
ATOM     23  C   UNL d   1      27.897 -15.208   0.203  0.00  0.00     0.265 C 
ATOM     24  O   UNL d   1      26.978 -14.454   0.531  0.00  0.00    -0.269 OA
BRANCH  22  25
ATOM     25  C   UNL d   1      30.175 -15.966   0.547  0.00  0.00     0.127 C 
BRANCH  25  26
ATOM     26  C   UNL d   1      31.615 -15.711   0.454  0.00  0.00     0.015 C 
ATOM     27  C   UNL d   1      32.736 -16.587   0.875  0.00  0.00     0.006 C 
ENDBRANCH  25  26
ENDBRANCH  22  25
BRANCH  23  28
ATOM     28  C   UNL d   1      27.565 -16.553  -0.698  0.00  0.00     0.194 C 
BRANCH  28  29
ATOM     29  O   UNL d   1      28.369 -17.681  -0.333  0.00  0.00    -0.371 OA
ATOM     30  H   UNL d   1      28.562 -17.677   0.605  0.00  0.00     0.212 HD
ENDBRANCH  28  29
BRANCH  28  31
ATOM     31  C   UNL d   1      26.049 -16.947  -0.642  0.00  0.00    -0.010 C 
ATOM     32  C   UNL d   1      25.606 -18.189  -0.145  0.00  0.00     0.011 C 
ATOM     33  C   UNL d   1      24.252 -18.459   0.085  0.00  0.00     0.001 C 
ATOM     34  C   UNL d   1      23.283 -17.544  -0.294  0.00  0.00     0.000 C 
ATOM     35  C   UNL d   1      23.669 -16.365  -0.895  0.00  0.00     0.001 C 
ATOM     36  C   UNL d   1      25.021 -16.076  -1.046  0.00  0.00     0.011 C 
ENDBRANCH  28  31
BRANCH  28  37
ATOM     37  C   UNL d   1      28.028 -16.237  -2.153  0.00  0.00    -0.010 C 
ATOM     38  C   UNL d   1      29.237 -16.711  -2.680  0.00  0.00     0.011 C 
ATOM     39  C   UNL d   1      29.659 -16.304  -3.947  0.00  0.00     0.001 C 
ATOM     40  C   UNL d   1      28.818 -15.551  -4.768  0.00  0.00     0.000 C 
ATOM     41  C   UNL d   1      27.599 -15.109  -4.289  0.00  0.00     0.001 C 
ATOM     42  C   UNL d   1      27.270 -15.372  -2.970  0.00  0.00     0.011 C 
ENDBRANCH  28  37
ENDBRANCH  23  28
ENDBRANCH   1  22
TORSDOF 15
ENDMDL
MODEL 4
REMARK VINA RESULT:    -7.194      3.650      6.906
REMARK INTER + INTRA:         -16.440
REMARK INTER:                 -11.668
REMARK INTRA:                  -4.772
REMARK CONF_INDEPENDENT:        4.474
REMARK UNBOUND:                -4.772
REMARK  15 active torsions:
REMARK  status: ('A' for Active; 'I' for Inactive)
REMARK    1  A    between atoms: C_2  and  C_3 
REMARK    2  A    between atoms: C_3  and  C_4 
REMARK    3  A    between atoms: C_4  and  N_5 
REMARK       I    between atoms: N_5  and  C_6 
REMARK    4  A    between atoms: C_6  and  C_8 
REMARK    5  A    between atoms: C_8  and  C_9 
REMARK    6  A    between atoms: C_8  and  N_18 
REMARK    7  A    between atoms: C_10  and  O_11 
REMARK    8  A    between atoms: C_13  and  O_14 
REMARK    9  A    between atoms: C_16  and  O_17 
REMARK   10  A    between atoms: N_18  and  C_19 
REMARK       I    between atoms: N_18  and  C_22 
REMARK   11  A    between atoms: C_19  and  C_20 
REMARK   12  A    between atoms: C_22  and  C_24 
REMARK   13  A    between atoms: C_24  and  O_25 
REMARK   14  A    between atoms: C_24  and  C_26 
REMARK   15  A    between atoms: C_24  and  C_32 
ROOT
ATOM      1  C   UNL d   1      29.223 -13.276   1.256  0.00  0.00     0.218 C 
ENDROOT
BRANCH   1   2
ATOM      2  C   UNL d   1      28.634 -11.789   1.155  0.00  0.00     0.245 C 
ATOM      3  N   UNL d   1      27.358 -11.399   1.387  0.00  0.00    -0.359 N 
ATOM      4  H   UNL d   1      26.612 -12.074   1.475  0.00  0.00     0.162 HD
ATOM      5  O   UNL d   1      29.277 -10.765   0.863  0.00  0.00    -0.271 OA
BRANCH   3   6
ATOM      6  C   UNL d   1      27.140 -10.022   0.927  0.00  0.00     0.122 C 
BRANCH   6   7
ATOM      7  C   UNL d   1      26.341  -9.239   1.882  0.00  0.00     0.019 C 
BRANCH   7   8
ATOM      8  C   UNL d   1      26.793  -9.548   3.297  0.00  0.00    -0.003 C 
ATOM      9  C   UNL d   1      27.425  -8.286   3.820  0.00  0.00     0.005 C 
ENDBRANCH   7   8
ENDBRANCH   6   7
ENDBRANCH   3   6
ENDBRANCH   1   2
BRANCH   1  10
ATOM     10  C   UNL d   1      29.082 -13.765   2.702  0.00  0.00     0.040 A 
ATOM     11  C   UNL d   1      30.183 -14.084   3.519  0.00  0.00     0.080 A 
ATOM     12  C   UNL d   1      30.020 -14.583   4.808  0.00  0.00     0.073 A 
ATOM     13  C   UNL d   1      28.742 -14.665   5.339  0.00  0.00     0.071 A 
ATOM     14  C   UNL d   1      27.632 -14.325   4.581  0.00  0.00     0.073 A 
ATOM     15  C   UNL d   1      27.805 -13.930   3.259  0.00  0.00     0.080 A 
BRANCH  11  16
ATOM     16  O   UNL d   1      31.480 -13.894   3.127  0.00  0.00    -0.360 OA
ATOM     17  H   UNL d   1      32.050 -14.144   3.892  0.00  0.00     0.217 HD
ENDBRANCH  11  16
BRANCH  13  18
ATOM     18  O   UNL d   1      28.524 -15.061   6.625  0.00  0.00    -0.361 OA
ATOM     19  H   UNL d   1      28.340 -16.014   6.622  0.00  0.00     0.217 HD
ENDBRANCH  13  18
BRANCH  15  20
ATOM     20  O   UNL d   1      26.704 -13.670   2.496  0.00  0.00    -0.360 OA
ATOM     21  H   UNL d   1      26.768 -14.151   1.654  0.00  0.00     0.217 HD
ENDBRANCH  15  20
ENDBRANCH   1  10
BRANCH   1  22
ATOM     22  N   UNL d   1      28.784 -14.425   0.316  0.00  0.00    -0.331 N 
ATOM     23  C   UNL d   1      27.603 -14.283  -0.453  0.00  0.00     0.265 C 
ATOM     24  O   UNL d   1      26.939 -13.252  -0.319  0.00  0.00    -0.269 OA
BRANCH  22  25
ATOM     25  C   UNL d   1      29.319 -15.766   0.406  0.00  0.00     0.127 C 
BRANCH  25  26
ATOM     26  C   UNL d   1      30.668 -16.097  -0.062  0.00  0.00     0.015 C 
ATOM     27  C   UNL d   1      31.120 -17.309  -0.788  0.00  0.00     0.006 C 
ENDBRANCH  25  26
ENDBRANCH  22  25
BRANCH  23  28
ATOM     28  C   UNL d   1      27.086 -15.454  -1.498  0.00  0.00     0.194 C 
BRANCH  28  29
ATOM     29  O   UNL d   1      28.154 -16.274  -1.987  0.00  0.00    -0.371 OA
ATOM     30  H   UNL d   1      29.004 -15.860  -1.836  0.00  0.00     0.212 HD
ENDBRANCH  28  29
BRANCH  28  31
ATOM     31  C   UNL d   1      25.971 -16.360  -0.873  0.00  0.00    -0.010 C 
ATOM     32  C   UNL d   1      24.629 -16.315  -1.301  0.00  0.00     0.011 C 
ATOM     33  C   UNL d   1      23.681 -17.255  -0.881  0.00  0.00     0.001 C 
ATOM     34  C   UNL d   1      24.011 -18.198   0.079  0.00  0.00     0.000 C 
ATOM     35  C   UNL d   1      25.283 -18.200   0.612  0.00  0.00     0.001 C 
ATOM     36  C   UNL d   1      26.236 -17.309   0.130  0.00  0.00     0.011 C 
ENDBRANCH  28  31
BRANCH  28  37
ATOM     37  C   UNL d   1      26.585 -14.716  -2.777  0.00  0.00    -0.010 C 
ATOM     38  C   UNL d   1      27.102 -14.980  -4.053  0.00  0.00     0.011 C 
ATOM     39  C   UNL d   1      26.700 -14.211  -5.146  0.00  0.00     0.001 C 
ATOM     40  C   UNL d   1      25.669 -13.279  -5.020  0.00  0.00     0.000 C 
ATOM     41  C   UNL d   1      25.110 -13.032  -3.780  0.00  0.00     0.001 C 
ATOM     42  C   UNL d   1      25.638 -13.675  -2.674  0.00  0.00     0.011 C 
ENDBRANCH  28  37
ENDBRANCH  23  28
ENDBRANCH   1  22
TORSDOF 15
ENDMDL
MODEL 5
REMARK VINA RESULT:    -7.189      0.727      1.559
REMARK INTER + INTRA:         -16.468
REMARK INTER:                 -11.664
REMARK INTRA:                  -4.804
REMARK CONF_INDEPENDENT:        4.474
REMARK UNBOUND:                -4.804
REMARK  15 active torsions:
REMARK  status: ('A' for Active; 'I' for Inactive)
REMARK    1  A    between atoms: C_2  and  C_3 
REMARK    2  A    between atoms: C_3  and  C_4 
REMARK    3  A    between atoms: C_4  and  N_5 
REMARK       I    between atoms: N_5  and  C_6 
REMARK    4  A    between atoms: C_6  and  C_8 
REMARK    5  A    between atoms: C_8  and  C_9 
REMARK    6  A    between atoms: C_8  and  N_18 
REMARK    7  A    between atoms: C_10  and  O_11 
REMARK    8  A    between atoms: C_13  and  O_14 
REMARK    9  A    between atoms: C_16  and  O_17 
REMARK   10  A    between atoms: N_18  and  C_19 
REMARK       I    between atoms: N_18  and  C_22 
REMARK   11  A    between atoms: C_19  and  C_20 
REMARK   12  A    between atoms: C_22  and  C_24 
REMARK   13  A    between atoms: C_24  and  O_25 
REMARK   14  A    between atoms: C_24  and  C_26 
REMARK   15  A    between atoms: C_24  and  C_32 
ROOT
ATOM      1  C   UNL d   1      26.386 -12.973  -4.711  0.00  0.00     0.218 C 
ENDROOT
BRANCH   1   2
ATOM      2  C   UNL d   1      26.030 -11.453  -5.072  0.00  0.00     0.245 C 
ATOM      3  N   UNL d   1      25.530 -10.512  -4.238  0.00  0.00    -0.359 N 
ATOM      4  H   UNL d   1      25.164 -10.758  -3.329  0.00  0.00     0.162 HD
ATOM      5  O   UNL d   1      26.182 -10.910  -6.182  0.00  0.00    -0.271 OA
BRANCH   3   6
ATOM      6  C   UNL d   1      25.078  -9.334  -4.990  0.00  0.00     0.122 C 
BRANCH   6   7
ATOM      7  C   UNL d   1      25.366  -8.079  -4.278  0.00  0.00     0.019 C 
BRANCH   7   8
ATOM      8  C   UNL d   1      24.499  -6.967  -4.839  0.00  0.00    -0.003 C 
ATOM      9  C   UNL d   1      23.269  -7.635  -5.396  0.00  0.00     0.005 C 
ENDBRANCH   7   8
ENDBRANCH   6   7
ENDBRANCH   3   6
ENDBRANCH   1   2
BRANCH   1  10
ATOM     10  C   UNL d   1      27.648 -13.380  -5.479  0.00  0.00     0.040 A 
ATOM     11  C   UNL d   1      28.709 -12.494  -5.742  0.00  0.00     0.080 A 
ATOM     12  C   UNL d   1      29.817 -12.877  -6.494  0.00  0.00     0.073 A 
ATOM     13  C   UNL d   1      29.926 -14.198  -6.901  0.00  0.00     0.071 A 
ATOM     14  C   UNL d   1      28.921 -15.113  -6.630  0.00  0.00     0.073 A 
ATOM     15  C   UNL d   1      27.772 -14.688  -5.971  0.00  0.00     0.080 A 
BRANCH  11  16
ATOM     16  O   UNL d   1      28.751 -11.217  -5.253  0.00  0.00    -0.360 OA
ATOM     17  H   UNL d   1      28.301 -10.641  -5.916  0.00  0.00     0.217 HD
ENDBRANCH  11  16
BRANCH  13  18
ATOM     18  O   UNL d   1      31.027 -14.655  -7.562  0.00  0.00    -0.361 OA
ATOM     19  H   UNL d   1      30.853 -14.599  -8.516  0.00  0.00     0.217 HD
ENDBRANCH  13  18
BRANCH  15  20
ATOM     20  O   UNL d   1      26.754 -15.575  -5.775  0.00  0.00    -0.360 OA
ATOM     21  H   UNL d   1      26.730 -15.846  -4.842  0.00  0.00     0.217 HD
ENDBRANCH  15  20
ENDBRANCH   1  10
BRANCH   1  22
ATOM     22  N   UNL d   1      26.522 -13.488  -3.257  0.00  0.00    -0.331 N 
ATOM     23  C   UNL d   1      25.857 -14.679  -2.874  0.00  0.00     0.265 C 
ATOM     24  O   UNL d   1      25.157 -15.252  -3.712  0.00  0.00    -0.269 OA
BRANCH  22  25
ATOM     25  C   UNL d   1      27.019 -12.668  -2.174  0.00  0.00     0.127 C 
BRANCH  25  26
ATOM     26  C   UNL d   1      28.441 -12.624  -1.822  0.00  0.00     0.015 C 
ATOM     27  C   UNL d   1      29.592 -13.197  -2.563  0.00  0.00     0.006 C 
ENDBRANCH  25  26
ENDBRANCH  22  25
BRANCH  23  28
ATOM     28  C   UNL d   1      25.979 -15.304  -1.349  0.00  0.00     0.194 C 
BRANCH  28  29
ATOM     29  O   UNL d   1      25.921 -14.301  -0.329  0.00  0.00    -0.371 OA
ATOM     30  H   UNL d   1      25.782 -14.694   0.533  0.00  0.00     0.212 HD
ENDBRANCH  28  29
BRANCH  28  31
ATOM     31  C   UNL d   1      24.897 -16.403  -1.069  0.00  0.00    -0.010 C 
ATOM     32  C   UNL d   1      25.224 -17.683  -0.580  0.00  0.00     0.011 C 
ATOM     33  C   UNL d   1      24.248 -18.588  -0.148  0.00  0.00     0.001 C 
ATOM     34  C   UNL d   1      22.904 -18.293  -0.307  0.00  0.00     0.000 C 
ATOM     35  C   UNL d   1      22.541 -17.098  -0.892  0.00  0.00     0.001 C 
ATOM     36  C   UNL d   1      23.520 -16.177  -1.246  0.00  0.00     0.011 C 
ENDBRANCH  28  31
BRANCH  28  37
ATOM     37  C   UNL d   1      27.426 -15.870  -1.217  0.00  0.00    -0.010 C 
ATOM     38  C   UNL d   1      28.100 -15.939   0.010  0.00  0.00     0.011 C 
ATOM     39  C   UNL d   1      29.435 -16.345   0.057  0.00  0.00     0.001 C 
ATOM     40  C   UNL d   1      30.068 -16.837  -1.085  0.00  0.00     0.000 C 
ATOM     41  C   UNL d   1      29.410 -16.823  -2.301  0.00  0.00     0.001 C 
ATOM     42  C   UNL d   1      28.149 -16.254  -2.366  0.00  0.00     0.011 C 
ENDBRANCH  28  37
ENDBRANCH  23  28
ENDBRANCH   1  22
TORSDOF 15
ENDMDL
MODEL 6
REMARK VINA RESULT:    -7.189      2.618      5.993
REMARK INTER + INTRA:         -16.274
REMARK INTER:                 -11.663
REMARK INTRA:                  -4.611
REMARK CONF_INDEPENDENT:        4.474
REMARK UNBOUND:                -4.611
REMARK  15 active torsions:
REMARK  status: ('A' for Active; 'I' for Inactive)
REMARK    1  A    between atoms: C_2  and  C_3 
REMARK    2  A    between atoms: C_3  and  C_4 
REMARK    3  A    between atoms: C_4  and  N_5 
REMARK       I    between atoms: N_5  and  C_6 
REMARK    4  A    between atoms: C_6  and  C_8 
REMARK    5  A    between atoms: C_8  and  C_9 
REMARK    6  A    between atoms: C_8  and  N_18 
REMARK    7  A    between atoms: C_10  and  O_11 
REMARK    8  A    between atoms: C_13  and  O_14 
REMARK    9  A    between atoms: C_16  and  O_17 
REMARK   10  A    between atoms: N_18  and  C_19 
REMARK       I    between atoms: N_18  and  C_22 
REMARK   11  A    between atoms: C_19  and  C_20 
REMARK   12  A    between atoms: C_22  and  C_24 
REMARK   13  A    between atoms: C_24  and  O_25 
REMARK   14  A    between atoms: C_24  and  C_26 
REMARK   15  A    between atoms: C_24  and  C_32 
ROOT
ATOM      1  C   UNL d   1      28.867 -14.757  -3.697  0.00  0.00     0.218 C 
ENDROOT
BRANCH   1   2
ATOM      2  C   UNL d   1      29.163 -15.477  -5.098  0.00  0.00     0.245 C 
ATOM      3  N   UNL d   1      30.233 -16.245  -5.411  0.00  0.00    -0.359 N 
ATOM      4  H   UNL d   1      31.046 -16.279  -4.813  0.00  0.00     0.162 HD
ATOM      5  O   UNL d   1      28.433 -15.445  -6.105  0.00  0.00    -0.271 OA
BRANCH   3   6
ATOM      6  C   UNL d   1      30.293 -16.493  -6.857  0.00  0.00     0.122 C 
BRANCH   6   7
ATOM      7  C   UNL d   1      31.149 -17.643  -7.186  0.00  0.00     0.019 C 
BRANCH   7   8
ATOM      8  C   UNL d   1      30.780 -18.821  -6.304  0.00  0.00    -0.003 C 
ATOM      9  C   UNL d   1      30.445 -19.955  -7.237  0.00  0.00     0.005 C 
ENDBRANCH   7   8
ENDBRANCH   6   7
ENDBRANCH   3   6
ENDBRANCH   1   2
BRANCH   1  10
ATOM     10  C   UNL d   1      27.839 -13.643  -3.922  0.00  0.00     0.040 A 
ATOM     11  C   UNL d   1      26.525 -13.886  -4.365  0.00  0.00     0.080 A 
ATOM     12  C   UNL d   1      25.632 -12.848  -4.618  0.00  0.00     0.073 A 
ATOM     13  C   UNL d   1      26.014 -11.548  -4.321  0.00  0.00     0.071 A 
ATOM     14  C   UNL d   1      27.286 -11.269  -3.846  0.00  0.00     0.073 A 
ATOM     15  C   UNL d   1      28.201 -12.306  -3.701  0.00  0.00     0.080 A 
BRANCH  11  16
ATOM     16  O   UNL d   1      26.020 -15.145  -4.543  0.00  0.00    -0.360 OA
ATOM     17  H   UNL d   1      26.397 -15.489  -5.387  0.00  0.00     0.217 HD
ENDBRANCH  11  16
BRANCH  13  18
ATOM     18  O   UNL d   1      25.155 -10.499  -4.462  0.00  0.00    -0.361 OA
ATOM     19  H   UNL d   1      24.551 -10.697  -5.196  0.00  0.00     0.217 HD
ENDBRANCH  13  18
BRANCH  15  20
ATOM     20  O   UNL d   1      29.475 -12.016  -3.307  0.00  0.00    -0.360 OA
ATOM     21  H   UNL d   1      29.643 -12.400  -2.431  0.00  0.00     0.217 HD
ENDBRANCH  15  20
ENDBRANCH   1  10
BRANCH   1  22
ATOM     22  N   UNL d   1      28.464 -15.531  -2.417  0.00  0.00    -0.331 N 
ATOM     23  C   UNL d   1      28.161 -14.810  -1.235  0.00  0.00     0.265 C 
ATOM     24  O   UNL d   1      28.264 -13.582  -1.257  0.00  0.00    -0.269 OA
BRANCH  22  25
ATOM     25  C   UNL d   1      28.685 -16.950  -2.251  0.00  0.00     0.127 C 
BRANCH  25  26
ATOM     26  C   UNL d   1      30.031 -17.522  -2.162  0.00  0.00     0.015 C 
ATOM     27  C   UNL d   1      31.084 -17.248  -1.153  0.00  0.00     0.006 C 
ENDBRANCH  25  26
ENDBRANCH  22  25
BRANCH  23  28
ATOM     28  C   UNL d   1      27.695 -15.564   0.160  0.00  0.00     0.194 C 
BRANCH  28  29
ATOM     29  O   UNL d   1      28.586 -16.616   0.549  0.00  0.00    -0.371 OA
ATOM     30  H   UNL d   1      29.092 -16.370   1.324  0.00  0.00     0.212 HD
ENDBRANCH  28  29
BRANCH  28  31
ATOM     31  C   UNL d   1      27.517 -14.559   1.349  0.00  0.00    -0.010 C 
ATOM     32  C   UNL d   1      28.148 -14.739   2.595  0.00  0.00     0.011 C 
ATOM     33  C   UNL d   1      28.146 -13.747   3.582  0.00  0.00     0.001 C 
ATOM     34  C   UNL d   1      27.406 -12.589   3.407  0.00  0.00     0.000 C 
ATOM     35  C   UNL d   1      26.676 -12.426   2.248  0.00  0.00     0.001 C 
ATOM     36  C   UNL d   1      26.749 -13.385   1.244  0.00  0.00     0.011 C 
ENDBRANCH  28  31
BRANCH  28  37
ATOM     37  C   UNL d   1      26.369 -16.318  -0.165  0.00  0.00    -0.010 C 
ATOM     38  C   UNL d   1      26.113 -17.622   0.280  0.00  0.00     0.011 C 
ATOM     39  C   UNL d   1      24.962 -18.293  -0.135  0.00  0.00     0.001 C 
ATOM     40  C   UNL d   1      23.976 -17.628  -0.865  0.00  0.00     0.000 C 
ATOM     41  C   UNL d   1      24.183 -16.325  -1.277  0.00  0.00     0.001 C 
ATOM     42  C   UNL d   1      25.404 -15.729  -1.009  0.00  0.00     0.011 C 
ENDBRANCH  28  37
ENDBRANCH  23  28
ENDBRANCH   1  22
TORSDOF 15
ENDMDL
MODEL 7
REMARK VINA RESULT:    -7.116      3.545      6.684
REMARK INTER + INTRA:         -16.342
REMARK INTER:                 -11.590
REMARK INTRA:                  -4.752
REMARK CONF_INDEPENDENT:        4.474
REMARK UNBOUND:                -4.752
REMARK  15 active torsions:
REMARK  status: ('A' for Active; 'I' for Inactive)
REMARK    1  A    between atoms: C_2  and  C_3 
REMARK    2  A    between atoms: C_3  and  C_4 
REMARK    3  A    between atoms: C_4  and  N_5 
REMARK       I    between atoms: N_5  and  C_6 
REMARK    4  A    between atoms: C_6  and  C_8 
REMARK    5  A    between atoms: C_8  and  C_9 
REMARK    6  A    between atoms: C_8  and  N_18 
REMARK    7  A    between atoms: C_10  and  O_11 
REMARK    8  A    between atoms: C_13  and  O_14 
REMARK    9  A    between atoms: C_16  and  O_17 
REMARK   10  A    between atoms: N_18  and  C_19 
REMARK       I    between atoms: N_18  and  C_22 
REMARK   11  A    between atoms: C_19  and  C_20 
REMARK   12  A    between atoms: C_22  and  C_24 
REMARK   13  A    between atoms: C_24  and  O_25 
REMARK   14  A    between atoms: C_24  and  C_26 
REMARK   15  A    between atoms: C_24  and  C_32 
ROOT
ATOM      1  C   UNL d   1      27.272 -13.514   1.615  0.00  0.00     0.218 C 
ENDROOT
BRANCH   1   2
ATOM      2  C   UNL d   1      27.405 -13.973   3.144  0.00  0.00     0.245 C 
ATOM      3  N   UNL d   1      28.343 -14.796   3.670  0.00  0.00    -0.359 N 
ATOM      4  H   UNL d   1      28.950 -15.344   3.078  0.00  0.00     0.162 HD
ATOM      5  O   UNL d   1      26.667 -13.620   4.082  0.00  0.00    -0.271 OA
BRANCH   3   6
ATOM      6  C   UNL d   1      27.978 -15.200   5.034  0.00  0.00     0.122 C 
BRANCH   6   7
ATOM      7  C   UNL d   1      28.955 -14.733   6.030  0.00  0.00     0.019 C 
BRANCH   7   8
ATOM      8  C   UNL d   1      29.173 -13.241   5.867  0.00  0.00    -0.003 C 
ATOM      9  C   UNL d   1      28.157 -12.569   6.753  0.00  0.00     0.005 C 
ENDBRANCH   7   8
ENDBRANCH   6   7
ENDBRANCH   3   6
ENDBRANCH   1   2
BRANCH   1  10
ATOM     10  C   UNL d   1      28.604 -12.904   1.165  0.00  0.00     0.040 A 
ATOM     11  C   UNL d   1      29.771 -13.665   0.965  0.00  0.00     0.080 A 
ATOM     12  C   UNL d   1      30.981 -13.073   0.614  0.00  0.00     0.073 A 
ATOM     13  C   UNL d   1      31.011 -11.712   0.349  0.00  0.00     0.071 A 
ATOM     14  C   UNL d   1      29.874 -10.932   0.498  0.00  0.00     0.073 A 
ATOM     15  C   UNL d   1      28.699 -11.521   0.953  0.00  0.00     0.080 A 
BRANCH  11  16
ATOM     16  O   UNL d   1      29.796 -15.029   1.061  0.00  0.00    -0.360 OA
ATOM     17  H   UNL d   1      29.655 -15.252   2.011  0.00  0.00     0.217 HD
ENDBRANCH  11  16
BRANCH  13  18
ATOM     18  O   UNL d   1      32.143 -11.090  -0.084  0.00  0.00    -0.361 OA
ATOM     19  H   UNL d   1      32.511 -10.578   0.654  0.00  0.00     0.217 HD
ENDBRANCH  13  18
BRANCH  15  20
ATOM     20  O   UNL d   1      27.605 -10.734   1.170  0.00  0.00    -0.360 OA
ATOM     21  H   UNL d   1      27.048 -10.721   0.374  0.00  0.00     0.217 HD
ENDBRANCH  15  20
ENDBRANCH   1  10
BRANCH   1  22
ATOM     22  N   UNL d   1      26.771 -14.454   0.490  0.00  0.00    -0.331 N 
ATOM     23  C   UNL d   1      27.083 -15.834   0.546  0.00  0.00     0.265 C 
ATOM     24  O   UNL d   1      27.780 -16.238   1.480  0.00  0.00    -0.269 OA
BRANCH  22  25
ATOM     25  C   UNL d   1      26.280 -13.970  -0.781  0.00  0.00     0.127 C 
BRANCH  25  26
ATOM     26  C   UNL d   1      26.917 -12.856  -1.488  0.00  0.00     0.015 C 
ATOM     27  C   UNL d   1      26.518 -12.232  -2.774  0.00  0.00     0.006 C 
ENDBRANCH  25  26
ENDBRANCH  22  25
BRANCH  23  28
ATOM     28  C   UNL d   1      26.560 -16.903  -0.601  0.00  0.00     0.194 C 
BRANCH  28  29
ATOM     29  O   UNL d   1      27.296 -18.132  -0.595  0.00  0.00    -0.371 OA
ATOM     30  H   UNL d   1      27.886 -18.176   0.159  0.00  0.00     0.212 HD
ENDBRANCH  28  29
BRANCH  28  31
ATOM     31  C   UNL d   1      25.028 -17.206  -0.477  0.00  0.00    -0.010 C 
ATOM     32  C   UNL d   1      24.048 -16.195  -0.521  0.00  0.00     0.011 C 
ATOM     33  C   UNL d   1      22.682 -16.484  -0.606  0.00  0.00     0.001 C 
ATOM     34  C   UNL d   1      22.239 -17.794  -0.523  0.00  0.00     0.000 C 
ATOM     35  C   UNL d   1      23.160 -18.807  -0.359  0.00  0.00     0.001 C 
ATOM     36  C   UNL d   1      24.518 -18.511  -0.353  0.00  0.00     0.011 C 
ENDBRANCH  28  31
BRANCH  28  37
ATOM     37  C   UNL d   1      26.917 -16.277  -1.984  0.00  0.00    -0.010 C 
ATOM     38  C   UNL d   1      25.944 -15.950  -2.938  0.00  0.00     0.011 C 
ATOM     39  C   UNL d   1      26.324 -15.501  -4.204  0.00  0.00     0.001 C 
ATOM     40  C   UNL d   1      27.661 -15.220  -4.487  0.00  0.00     0.000 C 
ATOM     41  C   UNL d   1      28.637 -15.490  -3.546  0.00  0.00     0.001 C 
ATOM     42  C   UNL d   1      28.265 -16.100  -2.360  0.00  0.00     0.011 C 
ENDBRANCH  28  37
ENDBRANCH  23  28
ENDBRANCH   1  22
TORSDOF 15
ENDMDL
MODEL 8
REMARK VINA RESULT:    -6.816      3.421      6.494
REMARK INTER + INTRA:         -16.704
REMARK INTER:                 -11.290
REMARK INTRA:                  -5.414
REMARK CONF_INDEPENDENT:        4.474
REMARK UNBOUND:                -5.414
REMARK  15 active torsions:
REMARK  status: ('A' for Active; 'I' for Inactive)
REMARK    1  A    between atoms: C_2  and  C_3 
REMARK    2  A    between atoms: C_3  and  C_4 
REMARK    3  A    between atoms: C_4  and  N_5 
REMARK       I    between atoms: N_5  and  C_6 
REMARK    4  A    between atoms: C_6  and  C_8 
REMARK    5  A    between atoms: C_8  and  C_9 
REMARK    6  A    between atoms: C_8  and  N_18 
REMARK    7  A    between atoms: C_10  and  O_11 
REMARK    8  A    between atoms: C_13  and  O_14 
REMARK    9  A    between atoms: C_16  and  O_17 
REMARK   10  A    between atoms: N_18  and  C_19 
REMARK       I    between atoms: N_18  and  C_22 
REMARK   11  A    between atoms: C_19  and  C_20 
REMARK   12  A    between atoms: C_22  and  C_24 
REMARK   13  A    between atoms: C_24  and  O_25 
REMARK   14  A    between atoms: C_24  and  C_26 
REMARK   15  A    between atoms: C_24  and  C_32 
ROOT
ATOM      1  C   UNL d   1      29.437 -13.525   1.506  0.00  0.00     0.218 C 
ENDROOT
BRANCH   1   2
ATOM      2  C   UNL d   1      28.790 -12.099   1.162  0.00  0.00     0.245 C 
ATOM      3  N   UNL d   1      27.480 -11.827   0.956  0.00  0.00    -0.359 N 
ATOM      4  H   UNL d   1      26.805 -12.566   0.826  0.00  0.00     0.162 HD
ATOM      5  O   UNL d   1      29.405 -11.024   1.051  0.00  0.00    -0.271 OA
BRANCH   3   6
ATOM      6  C   UNL d   1      27.308 -10.480   0.396  0.00  0.00     0.122 C 
BRANCH   6   7
ATOM      7  C   UNL d   1      27.405 -10.474  -1.072  0.00  0.00     0.019 C 
BRANCH   7   8
ATOM      8  C   UNL d   1      27.107 -11.863  -1.606  0.00  0.00    -0.003 C 
ATOM      9  C   UNL d   1      26.533 -11.667  -2.984  0.00  0.00     0.005 C 
ENDBRANCH   7   8
ENDBRANCH   6   7
ENDBRANCH   3   6
ENDBRANCH   1   2
BRANCH   1  10
ATOM     10  C   UNL d   1      29.150 -13.855   2.975  0.00  0.00     0.040 A 
ATOM     11  C   UNL d   1      27.886 -13.681   3.571  0.00  0.00     0.080 A 
ATOM     12  C   UNL d   1      27.672 -13.933   4.924  0.00  0.00     0.073 A 
ATOM     13  C   UNL d   1      28.703 -14.473   5.677  0.00  0.00     0.071 A 
ATOM     14  C   UNL d   1      29.953 -14.695   5.119  0.00  0.00     0.073 A 
ATOM     15  C   UNL d   1      30.181 -14.337   3.794  0.00  0.00     0.080 A 
BRANCH  11  16
ATOM     16  O   UNL d   1      26.779 -13.293   2.869  0.00  0.00    -0.360 OA
ATOM     17  H   UNL d   1      26.537 -14.044   2.277  0.00  0.00     0.217 HD
ENDBRANCH  11  16
BRANCH  13  18
ATOM     18  O   UNL d   1      28.530 -14.825   6.982  0.00  0.00    -0.361 OA
ATOM     19  H   UNL d   1      29.364 -15.200   7.309  0.00  0.00     0.217 HD
ENDBRANCH  13  18
BRANCH  15  20
ATOM     20  O   UNL d   1      31.433 -14.488   3.274  0.00  0.00    -0.360 OA
ATOM     21  H   UNL d   1      32.095 -14.404   3.980  0.00  0.00     0.217 HD
ENDBRANCH  15  20
ENDBRANCH   1  10
BRANCH   1  22
ATOM     22  N   UNL d   1      29.171 -14.799   0.668  0.00  0.00    -0.331 N 
ATOM     23  C   UNL d   1      27.840 -15.138   0.320  0.00  0.00     0.265 C 
ATOM     24  O   UNL d   1      26.927 -14.419   0.732  0.00  0.00    -0.269 OA
BRANCH  22  25
ATOM     25  C   UNL d   1      30.155 -15.843   0.485  0.00  0.00     0.127 C 
BRANCH  25  26
ATOM     26  C   UNL d   1      31.310 -15.676  -0.401  0.00  0.00     0.015 C 
ATOM     27  C   UNL d   1      31.537 -14.634  -1.431  0.00  0.00     0.006 C 
ENDBRANCH  25  26
ENDBRANCH  22  25
BRANCH  23  28
ATOM     28  C   UNL d   1      27.480 -16.466  -0.595  0.00  0.00     0.194 C 
BRANCH  28  29
ATOM     29  O   UNL d   1      28.308 -17.594  -0.291  0.00  0.00    -0.371 OA
ATOM     30  H   UNL d   1      28.645 -17.542   0.604  0.00  0.00     0.212 HD
ENDBRANCH  28  29
BRANCH  28  31
ATOM     31  C   UNL d   1      25.971 -16.876  -0.483  0.00  0.00    -0.010 C 
ATOM     32  C   UNL d   1      24.920 -15.996  -0.810  0.00  0.00     0.011 C 
ATOM     33  C   UNL d   1      23.590 -16.423  -0.895  0.00  0.00     0.001 C 
ATOM     34  C   UNL d   1      23.248 -17.716  -0.533  0.00  0.00     0.000 C 
ATOM     35  C   UNL d   1      24.232 -18.575  -0.093  0.00  0.00     0.001 C 
ATOM     36  C   UNL d   1      25.559 -18.160  -0.086  0.00  0.00     0.011 C 
ENDBRANCH  28  31
BRANCH  28  37
ATOM     37  C   UNL d   1      27.876 -16.114  -2.061  0.00  0.00    -0.010 C 
ATOM     38  C   UNL d   1      27.092 -15.288  -2.878  0.00  0.00     0.011 C 
ATOM     39  C   UNL d   1      27.432 -15.097  -4.219  0.00  0.00     0.001 C 
ATOM     40  C   UNL d   1      28.634 -15.593  -4.724  0.00  0.00     0.000 C 
ATOM     41  C   UNL d   1      29.450 -16.373  -3.925  0.00  0.00     0.001 C 
ATOM     42  C   UNL d   1      29.016 -16.700  -2.652  0.00  0.00     0.011 C 
ENDBRANCH  28  37
ENDBRANCH  23  28
ENDBRANCH   1  22
TORSDOF 15
ENDMDL
MODEL 9
REMARK VINA RESULT:    -6.130      3.379      6.643
REMARK INTER + INTRA:         -16.040
REMARK INTER:                 -10.605
REMARK INTRA:                  -5.435
REMARK CONF_INDEPENDENT:        4.474
REMARK UNBOUND:                -5.435
REMARK  15 active torsions:
REMARK  status: ('A' for Active; 'I' for Inactive)
REMARK    1  A    between atoms: C_2  and  C_3 
REMARK    2  A    between atoms: C_3  and  C_4 
REMARK    3  A    between atoms: C_4  and  N_5 
REMARK       I    between atoms: N_5  and  C_6 
REMARK    4  A    between atoms: C_6  and  C_8 
REMARK    5  A    between atoms: C_8  and  C_9 
REMARK    6  A    between atoms: C_8  and  N_18 
REMARK    7  A    between atoms: C_10  and  O_11 
REMARK    8  A    between atoms: C_13  and  O_14 
REMARK    9  A    between atoms: C_16  and  O_17 
REMARK   10  A    between atoms: N_18  and  C_19 
REMARK       I    between atoms: N_18  and  C_22 
REMARK   11  A    between atoms: C_19  and  C_20 
REMARK   12  A    between atoms: C_22  and  C_24 
REMARK   13  A    between atoms: C_24  and  O_25 
REMARK   14  A    between atoms: C_24  and  C_26 
REMARK   15  A    between atoms: C_24  and  C_32 
ROOT
ATOM      1  C   UNL d   1      27.615 -16.463  -0.558  0.00  0.00     0.218 C 
ENDROOT
BRANCH   1   2
ATOM      2  C   UNL d   1      26.356 -17.412  -0.273  0.00  0.00     0.245 C 
ATOM      3  N   UNL d   1      25.057 -17.149  -0.551  0.00  0.00    -0.359 N 
ATOM      4  H   UNL d   1      24.754 -16.222  -0.811  0.00  0.00     0.162 HD
ATOM      5  O   UNL d   1      26.395 -18.547   0.236  0.00  0.00    -0.271 OA
BRANCH   3   6
ATOM      6  C   UNL d   1      24.175 -18.125   0.103  0.00  0.00     0.122 C 
BRANCH   6   7
ATOM      7  C   UNL d   1      22.754 -17.841  -0.147  0.00  0.00     0.019 C 
BRANCH   7   8
ATOM      8  C   UNL d   1      22.155 -18.949  -0.992  0.00  0.00    -0.003 C 
ATOM      9  C   UNL d   1      20.855 -19.325  -0.330  0.00  0.00     0.005 C 
ENDBRANCH   7   8
ENDBRANCH   6   7
ENDBRANCH   3   6
ENDBRANCH   1   2
BRANCH   1  10
ATOM     10  C   UNL d   1      27.617 -16.078  -2.042  0.00  0.00     0.040 A 
ATOM     11  C   UNL d   1      26.511 -15.493  -2.687  0.00  0.00     0.080 A 
ATOM     12  C   UNL d   1      26.523 -15.210  -4.050  0.00  0.00     0.073 A 
ATOM     13  C   UNL d   1      27.692 -15.410  -4.767  0.00  0.00     0.071 A 
ATOM     14  C   UNL d   1      28.816 -15.950  -4.161  0.00  0.00     0.073 A 
ATOM     15  C   UNL d   1      28.754 -16.327  -2.824  0.00  0.00     0.080 A 
BRANCH  11  16
ATOM     16  O   UNL d   1      25.371 -15.127  -2.026  0.00  0.00    -0.360 OA
ATOM     17  H   UNL d   1      25.576 -14.293  -1.541  0.00  0.00     0.217 HD
ENDBRANCH  11  16
BRANCH  13  18
ATOM     18  O   UNL d   1      27.794 -15.070  -6.083  0.00  0.00    -0.361 OA
ATOM     19  H   UNL d   1      28.038 -14.132  -6.136  0.00  0.00     0.217 HD
ENDBRANCH  13  18
BRANCH  15  20
ATOM     20  O   UNL d   1      29.839 -16.927  -2.254  0.00  0.00    -0.360 OA
ATOM     21  H   UNL d   1      30.233 -17.556  -2.881  0.00  0.00     0.217 HD
ENDBRANCH  15  20
ENDBRANCH   1  10
BRANCH   1  22
ATOM     22  N   UNL d   1      27.919 -15.188   0.268  0.00  0.00    -0.331 N 
ATOM     23  C   UNL d   1      26.849 -14.354   0.678  0.00  0.00     0.265 C 
ATOM     24  O   UNL d   1      25.706 -14.657   0.331  0.00  0.00    -0.269 OA
BRANCH  22  25
ATOM     25  C   UNL d   1      29.242 -14.615   0.377  0.00  0.00     0.127 C 
BRANCH  25  26
ATOM     26  C   UNL d   1      30.427 -15.439   0.629  0.00  0.00     0.015 C 
ATOM     27  C   UNL d   1      31.528 -15.198   1.594  0.00  0.00     0.006 C 
ENDBRANCH  25  26
ENDBRANCH  22  25
BRANCH  23  28
ATOM     28  C   UNL d   1      27.092 -12.994   1.585  0.00  0.00     0.194 C 
BRANCH  28  29
ATOM     29  O   UNL d   1      25.906 -12.203   1.731  0.00  0.00    -0.371 OA
ATOM     30  H   UNL d   1      25.142 -12.661   1.381  0.00  0.00     0.212 HD
ENDBRANCH  28  29
BRANCH  28  31
ATOM     31  C   UNL d   1      27.685 -13.320   2.999  0.00  0.00    -0.010 C 
ATOM     32  C   UNL d   1      27.782 -12.355   4.021  0.00  0.00     0.011 C 
ATOM     33  C   UNL d   1      28.127 -12.693   5.334  0.00  0.00     0.001 C 
ATOM     34  C   UNL d   1      28.510 -13.988   5.645  0.00  0.00     0.000 C 
ATOM     35  C   UNL d   1      28.543 -14.937   4.646  0.00  0.00     0.001 C 
ATOM     36  C   UNL d   1      28.125 -14.605   3.362  0.00  0.00     0.011 C 
ENDBRANCH  28  31
BRANCH  28  37
ATOM     37  C   UNL d   1      28.039 -12.073   0.758  0.00  0.00    -0.010 C 
ATOM     38  C   UNL d   1      29.129 -11.403   1.329  0.00  0.00     0.011 C 
ATOM     39  C   UNL d   1      29.877 -10.501   0.570  0.00  0.00     0.001 C 
ATOM     40  C   UNL d   1      29.653 -10.370  -0.801  0.00  0.00     0.000 C 
ATOM     41  C   UNL d   1      28.612 -11.055  -1.400  0.00  0.00     0.001 C 
ATOM     42  C   UNL d   1      27.770 -11.811  -0.602  0.00  0.00     0.011 C 
ENDBRANCH  28  37
ENDBRANCH  23  28
ENDBRANCH   1  22
TORSDOF 15
ENDMDL
