MODEL 1
REMARK VINA RESULT:   -28.195      0.000      0.000
REMARK INTER + INTRA:         -29.974
REMARK INTER:                 -29.388
REMARK INTRA:                  -0.586
REMARK CONF_INDEPENDENT:        1.193
REMARK UNBOUND:                -0.586
REMARK  4 active torsions:
REMARK  status: ('A' for Active; 'I' for Inactive)
REMARK       I    between atoms: C_2  and  N_3 
REMARK    1  A    between atoms: C_2  and  C_17 
REMARK    2  A    between atoms: N_3  and  C_4 
REMARK    3  A    between atoms: C_4  and  C_5 
REMARK    4  A    between atoms: C_8  and  N_9 
ROOT
ATOM      1  C   UNL d   1      26.685 -16.348  -0.318  0.00  0.00    -0.025 A 
ATOM      2  C   UNL d   1      25.970 -15.155  -0.180  0.00  0.00     0.014 A 
ATOM      3  C   UNL d   1      26.381 -14.181   0.744  0.00  0.00     0.049 A 
ATOM      4  C   UNL d   1      27.514 -14.390   1.534  0.00  0.00     0.102 A 
ATOM      5  N   UNL d   1      28.152 -15.563   1.388  0.00  0.00    -0.352 N 
ATOM      6  C   UNL d   1      27.779 -16.528   0.527  0.00  0.00     0.098 A 
ATOM      7  H   UNL d   1      28.935 -15.719   2.016  0.00  0.00     0.166 HD
ENDROOT
BRANCH   1   8
ATOM      8  C   UNL d   1      26.263 -17.443  -1.279  0.00  0.00     0.162 C 
BRANCH   8   9
ATOM      9  N   UNL d   1      24.819 -17.604  -1.395  0.00  0.00    -0.353 N 
ATOM     10  C   UNL d   1      24.103 -18.161  -0.348  0.00  0.00     0.252 C 
ATOM     11  O   UNL d   1      24.645 -18.567   0.679  0.00  0.00    -0.268 OA
ATOM     12  H   UNL d   1      24.318 -17.183  -2.165  0.00  0.00     0.163 HD
BRANCH  10  13
ATOM     13  C   UNL d   1      22.623 -18.256  -0.473  0.00  0.00     0.037 A 
ATOM     14  C   UNL d   1      21.867 -17.251  -1.076  0.00  0.00     0.036 A 
ATOM     15  C   UNL d   1      20.512 -17.485  -1.271  0.00  0.00     0.121 A 
ATOM     16  N   UNL d   1      19.884 -18.617  -0.896  0.00  0.00    -0.233 NA
ATOM     17  C   UNL d   1      20.639 -19.569  -0.313  0.00  0.00     0.210 A 
ATOM     18  F   UNL d   1      20.027 -20.703   0.054  0.00  0.00    -0.184 F 
ATOM     19  C   UNL d   1      21.995 -19.440  -0.080  0.00  0.00     0.080 A 
ENDBRANCH  10  13
ENDBRANCH   8   9
ENDBRANCH   1   8
BRANCH   4  20
ATOM     20  N   UNL d   1      27.993 -13.519   2.471  0.00  0.00    -0.367 N 
ATOM     21  C   UNL d   1      28.657 -13.980   3.693  0.00  0.00     0.124 C 
ATOM     22  C   UNL d   1      27.944 -13.338   4.884  0.00  0.00     0.020 C 
ATOM     23  C   UNL d   1      27.916 -11.810   4.763  0.00  0.00     0.003 C 
ATOM     24  C   UNL d   1      27.393 -11.362   3.392  0.00  0.00     0.020 C 
ATOM     25  C   UNL d   1      28.121 -12.075   2.241  0.00  0.00     0.124 C 
ENDBRANCH   4  20
TORSDOF 4
ENDMDL
MODEL 2
REMARK VINA RESULT:   -27.658      3.750      5.520
REMARK INTER + INTRA:         -29.361
REMARK INTER:                 -28.852
REMARK INTRA:                  -0.509
REMARK CONF_INDEPENDENT:        1.193
REMARK UNBOUND:                -0.509
REMARK  4 active torsions:
REMARK  status: ('A' for Active; 'I' for Inactive)
REMARK       I    between atoms: C_2  and  N_3 
REMARK    1  A    between atoms: C_2  and  C_17 
REMARK    2  A    between atoms: N_3  and  C_4 
REMARK    3  A    between atoms: C_4  and  C_5 
REMARK    4  A    between atoms: C_8  and  N_9 
ROOT
ATOM      1  C   UNL d   1      26.526 -16.045  -1.517  0.00  0.00    -0.025 A 
ATOM      2  C   UNL d   1      25.804 -15.650  -2.647  0.00  0.00     0.014 A 
ATOM      3  C   UNL d   1      26.463 -15.102  -3.759  0.00  0.00     0.049 A 
ATOM      4  C   UNL d   1      27.852 -14.952  -3.753  0.00  0.00     0.102 A 
ATOM      5  N   UNL d   1      28.500 -15.319  -2.635  0.00  0.00    -0.352 N 
ATOM      6  C   UNL d   1      27.903 -15.830  -1.543  0.00  0.00     0.098 A 
ATOM      7  H   UNL d   1      29.501 -15.142  -2.629  0.00  0.00     0.166 HD
ENDROOT
BRANCH   1   8
ATOM      8  C   UNL d   1      25.855 -16.613  -0.281  0.00  0.00     0.162 C 
BRANCH   8   9
ATOM      9  N   UNL d   1      24.434 -16.881  -0.450  0.00  0.00    -0.353 N 
ATOM     10  C   UNL d   1      23.968 -18.185  -0.395  0.00  0.00     0.252 C 
ATOM     11  O   UNL d   1      24.719 -19.147  -0.245  0.00  0.00    -0.268 OA
ATOM     12  H   UNL d   1      23.767 -16.121  -0.460  0.00  0.00     0.163 HD
BRANCH  10  13
ATOM     13  C   UNL d   1      22.503 -18.420  -0.510  0.00  0.00     0.037 A 
ATOM     14  C   UNL d   1      21.647 -17.478  -1.080  0.00  0.00     0.036 A 
ATOM     15  C   UNL d   1      20.319 -17.837  -1.270  0.00  0.00     0.121 A 
ATOM     16  N   UNL d   1      19.807 -19.034  -0.920  0.00  0.00    -0.233 NA
ATOM     17  C   UNL d   1      20.657 -19.923  -0.369  0.00  0.00     0.210 A 
ATOM     18  F   UNL d   1      20.162 -21.120  -0.027  0.00  0.00    -0.184 F 
ATOM     19  C   UNL d   1      21.997 -19.670  -0.144  0.00  0.00     0.080 A 
ENDBRANCH  10  13
ENDBRANCH   8   9
ENDBRANCH   1   8
BRANCH   4  20
ATOM     20  N   UNL d   1      28.591 -14.420  -4.771  0.00  0.00    -0.367 N 
ATOM     21  C   UNL d   1      28.451 -13.021  -5.185  0.00  0.00     0.124 C 
ATOM     22  C   UNL d   1      28.172 -13.003  -6.688  0.00  0.00     0.020 C 
ATOM     23  C   UNL d   1      29.261 -13.749  -7.469  0.00  0.00     0.003 C 
ATOM     24  C   UNL d   1      29.519 -15.144  -6.886  0.00  0.00     0.020 C 
ATOM     25  C   UNL d   1      29.749 -15.097  -5.367  0.00  0.00     0.124 C 
ENDBRANCH   4  20
TORSDOF 4
ENDMDL
MODEL 3
REMARK VINA RESULT:   -27.556      3.924      5.562
REMARK INTER + INTRA:         -29.253
REMARK INTER:                 -28.749
REMARK INTRA:                  -0.504
REMARK CONF_INDEPENDENT:        1.193
REMARK UNBOUND:                -0.504
REMARK  4 active torsions:
REMARK  status: ('A' for Active; 'I' for Inactive)
REMARK       I    between atoms: C_2  and  N_3 
REMARK    1  A    between atoms: C_2  and  C_17 
REMARK    2  A    between atoms: N_3  and  C_4 
REMARK    3  A    between atoms: C_4  and  C_5 
REMARK    4  A    between atoms: C_8  and  N_9 
ROOT
ATOM      1  C   UNL d   1      26.591 -16.072  -1.939  0.00  0.00    -0.025 A 
ATOM      2  C   UNL d   1      25.868 -15.654  -3.060  0.00  0.00     0.014 A 
ATOM      3  C   UNL d   1      26.534 -15.197  -4.208  0.00  0.00     0.049 A 
ATOM      4  C   UNL d   1      27.930 -15.159  -4.246  0.00  0.00     0.102 A 
ATOM      5  N   UNL d   1      28.582 -15.542  -3.136  0.00  0.00    -0.352 N 
ATOM      6  C   UNL d   1      27.980 -15.969  -2.011  0.00  0.00     0.098 A 
ATOM      7  H   UNL d   1      29.593 -15.447  -3.164  0.00  0.00     0.166 HD
ENDROOT
BRANCH   1   8
ATOM      8  C   UNL d   1      25.916 -16.545  -0.666  0.00  0.00     0.162 C 
BRANCH   8   9
ATOM      9  N   UNL d   1      24.505 -16.867  -0.829  0.00  0.00    -0.353 N 
ATOM     10  C   UNL d   1      24.015 -18.073  -0.353  0.00  0.00     0.252 C 
ATOM     11  O   UNL d   1      24.738 -18.914   0.178  0.00  0.00    -0.268 OA
ATOM     12  H   UNL d   1      23.854 -16.164  -1.152  0.00  0.00     0.163 HD
BRANCH  10  13
ATOM     13  C   UNL d   1      22.558 -18.346  -0.481  0.00  0.00     0.037 A 
ATOM     14  C   UNL d   1      21.685 -17.431  -1.070  0.00  0.00     0.036 A 
ATOM     15  C   UNL d   1      20.368 -17.826  -1.270  0.00  0.00     0.121 A 
ATOM     16  N   UNL d   1      19.883 -19.032  -0.913  0.00  0.00    -0.233 NA
ATOM     17  C   UNL d   1      20.749 -19.893  -0.343  0.00  0.00     0.210 A 
ATOM     18  F   UNL d   1      20.280 -21.099   0.006  0.00  0.00    -0.184 F 
ATOM     19  C   UNL d   1      22.080 -19.604  -0.107  0.00  0.00     0.080 A 
ENDBRANCH  10  13
ENDBRANCH   8   9
ENDBRANCH   1   8
BRANCH   4  20
ATOM     20  N   UNL d   1      28.678 -14.720  -5.302  0.00  0.00    -0.367 N 
ATOM     21  C   UNL d   1      29.232 -15.642  -6.298  0.00  0.00     0.124 C 
ATOM     22  C   UNL d   1      30.736 -15.384  -6.389  0.00  0.00     0.020 C 
ATOM     23  C   UNL d   1      31.035 -13.914  -6.707  0.00  0.00     0.003 C 
ATOM     24  C   UNL d   1      30.283 -12.968  -5.763  0.00  0.00     0.020 C 
ATOM     25  C   UNL d   1      28.786 -13.307  -5.684  0.00  0.00     0.124 C 
ENDBRANCH   4  20
TORSDOF 4
ENDMDL
MODEL 4
REMARK VINA RESULT:   -27.434      1.226      1.829
REMARK INTER + INTRA:         -29.191
REMARK INTER:                 -28.627
REMARK INTRA:                  -0.564
REMARK CONF_INDEPENDENT:        1.193
REMARK UNBOUND:                -0.564
REMARK  4 active torsions:
REMARK  status: ('A' for Active; 'I' for Inactive)
REMARK       I    between atoms: C_2  and  N_3 
REMARK    1  A    between atoms: C_2  and  C_17 
REMARK    2  A    between atoms: N_3  and  C_4 
REMARK    3  A    between atoms: C_4  and  C_5 
REMARK    4  A    between atoms: C_8  and  N_9 
ROOT
ATOM      1  C   UNL d   1      26.717 -16.258  -0.202  0.00  0.00    -0.025 A 
ATOM      2  C   UNL d   1      27.734 -16.163   0.753  0.00  0.00     0.014 A 
ATOM      3  C   UNL d   1      28.091 -14.917   1.292  0.00  0.00     0.049 A 
ATOM      4  C   UNL d   1      27.430 -13.755   0.885  0.00  0.00     0.102 A 
ATOM      5  N   UNL d   1      26.480 -13.892  -0.055  0.00  0.00    -0.352 N 
ATOM      6  C   UNL d   1      26.122 -15.064  -0.609  0.00  0.00     0.098 A 
ATOM      7  H   UNL d   1      26.057 -13.027  -0.381  0.00  0.00     0.166 HD
ENDROOT
BRANCH   1   8
ATOM      8  C   UNL d   1      26.317 -17.576  -0.836  0.00  0.00     0.162 C 
BRANCH   8   9
ATOM      9  N   UNL d   1      24.885 -17.711  -1.067  0.00  0.00    -0.353 N 
ATOM     10  C   UNL d   1      24.068 -18.197  -0.059  0.00  0.00     0.252 C 
ATOM     11  O   UNL d   1      24.510 -18.561   1.029  0.00  0.00    -0.268 OA
ATOM     12  H   UNL d   1      24.462 -17.319  -1.898  0.00  0.00     0.163 HD
BRANCH  10  13
ATOM     13  C   UNL d   1      22.602 -18.265  -0.306  0.00  0.00     0.037 A 
ATOM     14  C   UNL d   1      21.916 -17.243  -0.963  0.00  0.00     0.036 A 
ATOM     15  C   UNL d   1      20.577 -17.453  -1.270  0.00  0.00     0.121 A 
ATOM     16  N   UNL d   1      19.901 -18.575  -0.955  0.00  0.00    -0.233 NA
ATOM     17  C   UNL d   1      20.589 -19.543  -0.317  0.00  0.00     0.210 A 
ATOM     18  F   UNL d   1      19.929 -20.668  -0.008  0.00  0.00    -0.184 F 
ATOM     19  C   UNL d   1      21.924 -19.440   0.027  0.00  0.00     0.080 A 
ENDBRANCH  10  13
ENDBRANCH   8   9
ENDBRANCH   1   8
BRANCH   4  20
ATOM     20  N   UNL d   1      27.705 -12.494   1.332  0.00  0.00    -0.367 N 
ATOM     21  C   UNL d   1      27.224 -12.007   2.628  0.00  0.00     0.124 C 
ATOM     22  C   UNL d   1      26.470 -10.699   2.386  0.00  0.00     0.020 C 
ATOM     23  C   UNL d   1      27.345  -9.676   1.653  0.00  0.00     0.003 C 
ATOM     24  C   UNL d   1      27.990 -10.279   0.399  0.00  0.00     0.020 C 
ATOM     25  C   UNL d   1      28.694 -11.611   0.702  0.00  0.00     0.124 C 
ENDBRANCH   4  20
TORSDOF 4
ENDMDL
MODEL 5
REMARK VINA RESULT:   -27.354      3.890      5.257
REMARK INTER + INTRA:         -28.993
REMARK INTER:                 -28.547
REMARK INTRA:                  -0.446
REMARK CONF_INDEPENDENT:        1.193
REMARK UNBOUND:                -0.446
REMARK  4 active torsions:
REMARK  status: ('A' for Active; 'I' for Inactive)
REMARK       I    between atoms: C_2  and  N_3 
REMARK    1  A    between atoms: C_2  and  C_17 
REMARK    2  A    between atoms: N_3  and  C_4 
REMARK    3  A    between atoms: C_4  and  C_5 
REMARK    4  A    between atoms: C_8  and  N_9 
ROOT
ATOM      1  C   UNL d   1      26.367 -15.722  -2.063  0.00  0.00    -0.025 A 
ATOM      2  C   UNL d   1      27.645 -15.600  -2.613  0.00  0.00     0.014 A 
ATOM      3  C   UNL d   1      27.972 -14.499  -3.421  0.00  0.00     0.049 A 
ATOM      4  C   UNL d   1      27.024 -13.508  -3.681  0.00  0.00     0.102 A 
ATOM      5  N   UNL d   1      25.800 -13.681  -3.154  0.00  0.00    -0.352 N 
ATOM      6  C   UNL d   1      25.443 -14.730  -2.391  0.00  0.00     0.098 A 
ATOM      7  H   UNL d   1      25.108 -12.981  -3.407  0.00  0.00     0.166 HD
ENDROOT
BRANCH   1   8
ATOM      8  C   UNL d   1      25.957 -16.907  -1.210  0.00  0.00     0.162 C 
BRANCH   8   9
ATOM      9  N   UNL d   1      24.556 -17.279  -1.348  0.00  0.00    -0.353 N 
ATOM     10  C   UNL d   1      23.930 -17.991  -0.337  0.00  0.00     0.252 C 
ATOM     11  O   UNL d   1      24.525 -18.362   0.673  0.00  0.00    -0.268 OA
ATOM     12  H   UNL d   1      23.998 -16.900  -2.101  0.00  0.00     0.163 HD
BRANCH  10  13
ATOM     13  C   UNL d   1      22.482 -18.303  -0.481  0.00  0.00     0.037 A 
ATOM     14  C   UNL d   1      21.586 -17.399  -1.052  0.00  0.00     0.036 A 
ATOM     15  C   UNL d   1      20.282 -17.826  -1.270  0.00  0.00     0.121 A 
ATOM     16  N   UNL d   1      19.831 -19.054  -0.947  0.00  0.00    -0.233 NA
ATOM     17  C   UNL d   1      20.718 -19.905  -0.395  0.00  0.00     0.210 A 
ATOM     18  F   UNL d   1      20.282 -21.132  -0.080  0.00  0.00    -0.184 F 
ATOM     19  C   UNL d   1      22.038 -19.583  -0.143  0.00  0.00     0.080 A 
ENDBRANCH  10  13
ENDBRANCH   8   9
ENDBRANCH   1   8
BRANCH   4  20
ATOM     20  N   UNL d   1      27.229 -12.406  -4.461  0.00  0.00    -0.367 N 
ATOM     21  C   UNL d   1      26.951 -11.050  -3.980  0.00  0.00     0.124 C 
ATOM     22  C   UNL d   1      26.015 -10.378  -4.986  0.00  0.00     0.020 C 
ATOM     23  C   UNL d   1      26.607 -10.398  -6.401  0.00  0.00     0.003 C 
ATOM     24  C   UNL d   1      27.067 -11.806  -6.801  0.00  0.00     0.020 C 
ATOM     25  C   UNL d   1      27.968 -12.440  -5.729  0.00  0.00     0.124 C 
ENDBRANCH   4  20
TORSDOF 4
ENDMDL
MODEL 6
REMARK VINA RESULT:   -26.761      3.048      3.656
REMARK INTER + INTRA:         -28.351
REMARK INTER:                 -27.954
REMARK INTRA:                  -0.396
REMARK CONF_INDEPENDENT:        1.193
REMARK UNBOUND:                -0.396
REMARK  4 active torsions:
REMARK  status: ('A' for Active; 'I' for Inactive)
REMARK       I    between atoms: C_2  and  N_3 
REMARK    1  A    between atoms: C_2  and  C_17 
REMARK    2  A    between atoms: N_3  and  C_4 
REMARK    3  A    between atoms: C_4  and  C_5 
REMARK    4  A    between atoms: C_8  and  N_9 
ROOT
ATOM      1  C   UNL d   1      26.772 -17.133   0.125  0.00  0.00    -0.025 A 
ATOM      2  C   UNL d   1      28.029 -17.299  -0.461  0.00  0.00     0.014 A 
ATOM      3  C   UNL d   1      28.578 -16.291  -1.270  0.00  0.00     0.049 A 
ATOM      4  C   UNL d   1      27.875 -15.105  -1.495  0.00  0.00     0.102 A 
ATOM      5  N   UNL d   1      26.658 -15.002  -0.935  0.00  0.00    -0.352 N 
ATOM      6  C   UNL d   1      26.090 -15.952  -0.169  0.00  0.00     0.098 A 
ATOM      7  H   UNL d   1      26.138 -14.159  -1.163  0.00  0.00     0.166 HD
ENDROOT
BRANCH   1   8
ATOM      8  C   UNL d   1      26.125 -18.205   0.980  0.00  0.00     0.162 C 
BRANCH   8   9
ATOM      9  N   UNL d   1      24.676 -18.275   0.845  0.00  0.00    -0.353 N 
ATOM     10  C   UNL d   1      24.102 -18.285  -0.416  0.00  0.00     0.252 C 
ATOM     11  O   UNL d   1      24.770 -18.200  -1.445  0.00  0.00    -0.268 OA
ATOM     12  H   UNL d   1      24.095 -18.463   1.651  0.00  0.00     0.163 HD
BRANCH  10  13
ATOM     13  C   UNL d   1      22.623 -18.419  -0.521  0.00  0.00     0.037 A 
ATOM     14  C   UNL d   1      21.831 -17.422  -1.091  0.00  0.00     0.036 A 
ATOM     15  C   UNL d   1      20.479 -17.690  -1.270  0.00  0.00     0.121 A 
ATOM     16  N   UNL d   1      19.889 -18.846  -0.909  0.00  0.00    -0.233 NA
ATOM     17  C   UNL d   1      20.679 -19.789  -0.358  0.00  0.00     0.210 A 
ATOM     18  F   UNL d   1      20.104 -20.947  -0.006  0.00  0.00    -0.184 F 
ATOM     19  C   UNL d   1      22.034 -19.628  -0.143  0.00  0.00     0.080 A 
ENDBRANCH  10  13
ENDBRANCH   8   9
ENDBRANCH   1   8
BRANCH   4  20
ATOM     20  N   UNL d   1      28.306 -14.068  -2.272  0.00  0.00    -0.367 N 
ATOM     21  C   UNL d   1      29.728 -13.744  -2.417  0.00  0.00     0.124 C 
ATOM     22  C   UNL d   1      29.910 -12.268  -2.062  0.00  0.00     0.020 C 
ATOM     23  C   UNL d   1      29.006 -11.371  -2.916  0.00  0.00     0.003 C 
ATOM     24  C   UNL d   1      27.550 -11.855  -2.897  0.00  0.00     0.020 C 
ATOM     25  C   UNL d   1      27.441 -13.354  -3.219  0.00  0.00     0.124 C 
ENDBRANCH   4  20
TORSDOF 4
ENDMDL
MODEL 7
REMARK VINA RESULT:   -26.529      3.554      4.390
REMARK INTER + INTRA:         -28.186
REMARK INTER:                 -27.722
REMARK INTRA:                  -0.464
REMARK CONF_INDEPENDENT:        1.193
REMARK UNBOUND:                -0.464
REMARK  4 active torsions:
REMARK  status: ('A' for Active; 'I' for Inactive)
REMARK       I    between atoms: C_2  and  N_3 
REMARK    1  A    between atoms: C_2  and  C_17 
REMARK    2  A    between atoms: N_3  and  C_4 
REMARK    3  A    between atoms: C_4  and  C_5 
REMARK    4  A    between atoms: C_8  and  N_9 
ROOT
ATOM      1  C   UNL d   1      26.018 -14.801  -1.440  0.00  0.00    -0.025 A 
ATOM      2  C   UNL d   1      25.759 -14.634  -2.804  0.00  0.00     0.014 A 
ATOM      3  C   UNL d   1      26.040 -13.413  -3.439  0.00  0.00     0.049 A 
ATOM      4  C   UNL d   1      26.587 -12.351  -2.715  0.00  0.00     0.102 A 
ATOM      5  N   UNL d   1      26.791 -12.547  -1.402  0.00  0.00    -0.352 N 
ATOM      6  C   UNL d   1      26.518 -13.695  -0.754  0.00  0.00     0.098 A 
ATOM      7  H   UNL d   1      27.130 -11.742  -0.883  0.00  0.00     0.166 HD
ENDROOT
BRANCH   1   8
ATOM      8  C   UNL d   1      25.703 -16.089  -0.705  0.00  0.00     0.162 C 
BRANCH   8   9
ATOM      9  N   UNL d   1      24.340 -16.564  -0.899  0.00  0.00    -0.353 N 
ATOM     10  C   UNL d   1      23.894 -17.679  -0.208  0.00  0.00     0.252 C 
ATOM     11  O   UNL d   1      24.621 -18.319   0.549  0.00  0.00    -0.268 OA
ATOM     12  H   UNL d   1      23.673 -16.007  -1.418  0.00  0.00     0.163 HD
BRANCH  10  13
ATOM     13  C   UNL d   1      22.478 -18.101  -0.383  0.00  0.00     0.037 A 
ATOM     14  C   UNL d   1      21.541 -17.296  -1.032  0.00  0.00     0.036 A 
ATOM     15  C   UNL d   1      20.280 -17.827  -1.269  0.00  0.00     0.121 A 
ATOM     16  N   UNL d   1      19.905 -19.066  -0.895  0.00  0.00    -0.233 NA
ATOM     17  C   UNL d   1      20.829 -19.820  -0.268  0.00  0.00     0.210 A 
ATOM     18  F   UNL d   1      20.470 -21.058   0.099  0.00  0.00    -0.184 F 
ATOM     19  C   UNL d   1      22.113 -19.391   0.010  0.00  0.00     0.080 A 
ENDBRANCH  10  13
ENDBRANCH   8   9
ENDBRANCH   1   8
BRANCH   4  20
ATOM     20  N   UNL d   1      26.884 -11.119  -3.227  0.00  0.00    -0.367 N 
ATOM     21  C   UNL d   1      27.858 -10.942  -4.307  0.00  0.00     0.124 C 
ATOM     22  C   UNL d   1      28.892  -9.915  -3.843  0.00  0.00     0.020 C 
ATOM     23  C   UNL d   1      28.225  -8.601  -3.420  0.00  0.00     0.003 C 
ATOM     24  C   UNL d   1      27.078  -8.842  -2.431  0.00  0.00     0.020 C 
ATOM     25  C   UNL d   1      26.099  -9.913  -2.938  0.00  0.00     0.124 C 
ENDBRANCH   4  20
TORSDOF 4
ENDMDL
