MODEL 1
REMARK VINA RESULT:   -27.894      0.000      0.000
REMARK INTER + INTRA:         -31.609
REMARK INTER:                 -30.578
REMARK INTRA:                  -1.030
REMARK CONF_INDEPENDENT:        2.685
REMARK UNBOUND:                -1.030
REMARK  9 active torsions:
REMARK  status: ('A' for Active; 'I' for Inactive)
REMARK    1  A    between atoms: C_2  and  C_3 
REMARK    2  A    between atoms: C_3  and  N_4 
REMARK       I    between atoms: N_4  and  C_5 
REMARK       I    between atoms: C_5  and  N_7 
REMARK       I    between atoms: N_7  and  C_8 
REMARK    3  A    between atoms: C_8  and  C_10 
REMARK    4  A    between atoms: C_10  and  N_11 
REMARK    5  A    between atoms: N_11  and  C_12 
REMARK    6  A    between atoms: C_15  and  C_16 
REMARK    7  A    between atoms: C_16  and  C_17 
REMARK    8  A    between atoms: C_17  and  N_18 
REMARK    9  A    between atoms: C_21  and  C_22 
ROOT
ATOM      1  C   UNL d   1      27.942 -15.720  -1.651  0.00  0.00     0.028 A 
ATOM      2  C   UNL d   1      26.996 -15.126  -2.500  0.00  0.00     0.029 A 
ATOM      3  C   UNL d   1      25.626 -15.465  -2.448  0.00  0.00     0.009 A 
ATOM      4  C   UNL d   1      25.165 -16.463  -1.579  0.00  0.00    -0.056 A 
ATOM      5  C   UNL d   1      26.105 -17.027  -0.706  0.00  0.00     0.009 A 
ATOM      6  C   UNL d   1      27.464 -16.669  -0.752  0.00  0.00     0.029 A 
ENDROOT
BRANCH   1   7
ATOM      7  N   UNL d   1      29.278 -15.370  -1.752  0.00  0.00    -0.381 N 
ATOM      8  H   UNL d   1      29.601 -15.077  -2.679  0.00  0.00     0.160 HD
BRANCH   7   9
ATOM      9  C   UNL d   1      30.135 -14.917  -0.636  0.00  0.00     0.223 C 
BRANCH   9  10
ATOM     10  C   UNL d   1      29.262 -14.348   0.522  0.00  0.00     0.243 C 
ATOM     11  N   UNL d   1      29.525 -14.803   1.823  0.00  0.00    -0.278 N 
ATOM     12  C   UNL d   1      28.808 -14.351   2.920  0.00  0.00     0.322 C 
ATOM     13  H   UNL d   1      30.264 -15.469   1.976  0.00  0.00     0.173 HD
ATOM     14  N   UNL d   1      29.170 -14.874   4.154  0.00  0.00    -0.343 N 
ATOM     15  O   UNL d   1      27.889 -13.533   2.860  0.00  0.00    -0.247 OA
ATOM     16  H   UNL d   1      29.915 -15.544   4.265  0.00  0.00     0.164 HD
ATOM     17  O   UNL d   1      28.370 -13.540   0.243  0.00  0.00    -0.271 OA
BRANCH  14  18
ATOM     18  C   UNL d   1      28.438 -14.424   5.352  0.00  0.00     0.124 C 
BRANCH  18  19
ATOM     19  C   UNL d   1      29.217 -13.478   6.270  0.00  0.00     0.015 C 
ATOM     20  C   UNL d   1      28.508 -13.258   7.609  0.00  0.00     0.006 C 
ENDBRANCH  18  19
ENDBRANCH  14  18
ENDBRANCH   9  10
ENDBRANCH   7   9
ENDBRANCH   1   7
BRANCH   4  21
ATOM     21  C   UNL d   1      23.710 -16.923  -1.647  0.00  0.00     0.061 C 
BRANCH  21  22
ATOM     22  C   UNL d   1      23.184 -17.609  -0.379  0.00  0.00     0.174 C 
BRANCH  22  23
ATOM     23  N   UNL d   1      21.831 -18.118  -0.462  0.00  0.00    -0.191 N 
ATOM     24  N   UNL d   1      20.971 -17.805  -1.447  0.00  0.00     0.024 NA
ATOM     25  N   UNL d   1      19.905 -18.575  -1.224  0.00  0.00    -0.136 NA
ATOM     26  C   UNL d   1      20.192 -19.339  -0.113  0.00  0.00     0.198 A 
ATOM     27  N   UNL d   1      21.411 -19.075   0.385  0.00  0.00    -0.136 NA
BRANCH  26  28
ATOM     28  C   UNL d   1      19.258 -20.251   0.540  0.00  0.00     0.015 A 
ATOM     29  C   UNL d   1      19.334 -20.563   1.904  0.00  0.00     0.015 A 
ATOM     30  C   UNL d   1      18.410 -21.453   2.478  0.00  0.00     0.001 A 
ATOM     31  C   UNL d   1      17.374 -21.987   1.713  0.00  0.00     0.000 A 
ATOM     32  C   UNL d   1      17.278 -21.666   0.363  0.00  0.00     0.001 A 
ATOM     33  C   UNL d   1      18.218 -20.808  -0.219  0.00  0.00     0.015 A 
ENDBRANCH  26  28
ENDBRANCH  22  23
ENDBRANCH  21  22
ENDBRANCH   4  21
TORSDOF 9
ENDMDL
MODEL 2
REMARK VINA RESULT:   -27.344      3.168      3.550
REMARK INTER + INTRA:         -31.030
REMARK INTER:                 -30.028
REMARK INTRA:                  -1.002
REMARK CONF_INDEPENDENT:        2.685
REMARK UNBOUND:                -1.002
REMARK  9 active torsions:
REMARK  status: ('A' for Active; 'I' for Inactive)
REMARK    1  A    between atoms: C_2  and  C_3 
REMARK    2  A    between atoms: C_3  and  N_4 
REMARK       I    between atoms: N_4  and  C_5 
REMARK       I    between atoms: C_5  and  N_7 
REMARK       I    between atoms: N_7  and  C_8 
REMARK    3  A    between atoms: C_8  and  C_10 
REMARK    4  A    between atoms: C_10  and  N_11 
REMARK    5  A    between atoms: N_11  and  C_12 
REMARK    6  A    between atoms: C_15  and  C_16 
REMARK    7  A    between atoms: C_16  and  C_17 
REMARK    8  A    between atoms: C_17  and  N_18 
REMARK    9  A    between atoms: C_21  and  C_22 
ROOT
ATOM      1  C   UNL d   1      28.194 -16.243  -0.872  0.00  0.00     0.028 A 
ATOM      2  C   UNL d   1      27.192 -15.695  -1.690  0.00  0.00     0.029 A 
ATOM      3  C   UNL d   1      25.879 -16.214  -1.714  0.00  0.00     0.009 A 
ATOM      4  C   UNL d   1      25.539 -17.345  -0.960  0.00  0.00    -0.056 A 
ATOM      5  C   UNL d   1      26.530 -17.867  -0.117  0.00  0.00     0.009 A 
ATOM      6  C   UNL d   1      27.829 -17.331  -0.085  0.00  0.00     0.029 A 
ENDROOT
BRANCH   1   7
ATOM      7  N   UNL d   1      29.473 -15.714  -0.898  0.00  0.00    -0.381 N 
ATOM      8  H   UNL d   1      29.673 -14.979  -0.213  0.00  0.00     0.160 HD
BRANCH   7   9
ATOM      9  C   UNL d   1      30.672 -16.390  -1.435  0.00  0.00     0.223 C 
BRANCH   9  10
ATOM     10  C   UNL d   1      31.739 -16.576  -0.314  0.00  0.00     0.243 C 
ATOM     11  N   UNL d   1      31.712 -17.769   0.423  0.00  0.00    -0.278 N 
ATOM     12  C   UNL d   1      32.623 -18.030   1.434  0.00  0.00     0.322 C 
ATOM     13  H   UNL d   1      31.021 -18.469   0.209  0.00  0.00     0.173 HD
ATOM     14  N   UNL d   1      32.493 -19.251   2.084  0.00  0.00    -0.343 N 
ATOM     15  O   UNL d   1      33.517 -17.256   1.781  0.00  0.00    -0.247 OA
ATOM     16  H   UNL d   1      31.783 -19.924   1.842  0.00  0.00     0.164 HD
ATOM     17  O   UNL d   1      32.544 -15.661  -0.113  0.00  0.00    -0.271 OA
BRANCH  14  18
ATOM     18  C   UNL d   1      33.439 -19.575   3.167  0.00  0.00     0.124 C 
BRANCH  18  19
ATOM     19  C   UNL d   1      32.967 -20.667   4.132  0.00  0.00     0.015 C 
ATOM     20  C   UNL d   1      31.445 -20.831   4.118  0.00  0.00     0.006 C 
ENDBRANCH  18  19
ENDBRANCH  14  18
ENDBRANCH   9  10
ENDBRANCH   7   9
ENDBRANCH   1   7
BRANCH   4  21
ATOM     21  C   UNL d   1      24.160 -17.982  -1.118  0.00  0.00     0.061 C 
BRANCH  21  22
ATOM     22  C   UNL d   1      23.047 -17.340  -0.278  0.00  0.00     0.174 C 
BRANCH  22  23
ATOM     23  N   UNL d   1      21.738 -17.944  -0.415  0.00  0.00    -0.191 N 
ATOM     24  N   UNL d   1      20.928 -17.751  -1.470  0.00  0.00     0.024 NA
ATOM     25  N   UNL d   1      19.901 -18.579  -1.267  0.00  0.00    -0.136 NA
ATOM     26  C   UNL d   1      20.161 -19.253  -0.092  0.00  0.00     0.198 A 
ATOM     27  N   UNL d   1      21.324 -18.876   0.464  0.00  0.00    -0.136 NA
BRANCH  26  28
ATOM     28  C   UNL d   1      19.247 -20.186   0.558  0.00  0.00     0.015 A 
ATOM     29  C   UNL d   1      19.357 -20.536   1.910  0.00  0.00     0.015 A 
ATOM     30  C   UNL d   1      18.450 -21.445   2.481  0.00  0.00     0.001 A 
ATOM     31  C   UNL d   1      17.396 -21.961   1.726  0.00  0.00     0.000 A 
ATOM     32  C   UNL d   1      17.266 -21.601   0.389  0.00  0.00     0.001 A 
ATOM     33  C   UNL d   1      18.189 -20.725  -0.191  0.00  0.00     0.015 A 
ENDBRANCH  26  28
ENDBRANCH  22  23
ENDBRANCH  21  22
ENDBRANCH   4  21
TORSDOF 9
ENDMDL
MODEL 3
REMARK VINA RESULT:   -27.297      1.327      1.667
REMARK INTER + INTRA:         -30.947
REMARK INTER:                 -29.981
REMARK INTRA:                  -0.966
REMARK CONF_INDEPENDENT:        2.685
REMARK UNBOUND:                -0.966
REMARK  9 active torsions:
REMARK  status: ('A' for Active; 'I' for Inactive)
REMARK    1  A    between atoms: C_2  and  C_3 
REMARK    2  A    between atoms: C_3  and  N_4 
REMARK       I    between atoms: N_4  and  C_5 
REMARK       I    between atoms: C_5  and  N_7 
REMARK       I    between atoms: N_7  and  C_8 
REMARK    3  A    between atoms: C_8  and  C_10 
REMARK    4  A    between atoms: C_10  and  N_11 
REMARK    5  A    between atoms: N_11  and  C_12 
REMARK    6  A    between atoms: C_15  and  C_16 
REMARK    7  A    between atoms: C_16  and  C_17 
REMARK    8  A    between atoms: C_17  and  N_18 
REMARK    9  A    between atoms: C_21  and  C_22 
ROOT
ATOM      1  C   UNL d   1      27.810 -15.969   0.126  0.00  0.00     0.028 A 
ATOM      2  C   UNL d   1      27.114 -17.100   0.581  0.00  0.00     0.029 A 
ATOM      3  C   UNL d   1      25.874 -17.487   0.029  0.00  0.00     0.009 A 
ATOM      4  C   UNL d   1      25.255 -16.714  -0.963  0.00  0.00    -0.056 A 
ATOM      5  C   UNL d   1      25.969 -15.607  -1.441  0.00  0.00     0.009 A 
ATOM      6  C   UNL d   1      27.213 -15.241  -0.899  0.00  0.00     0.029 A 
ENDROOT
BRANCH   1   7
ATOM      7  N   UNL d   1      29.014 -15.616   0.711  0.00  0.00    -0.381 N 
ATOM      8  H   UNL d   1      29.624 -16.389   0.994  0.00  0.00     0.160 HD
BRANCH   7   9
ATOM      9  C   UNL d   1      29.709 -14.323   0.537  0.00  0.00     0.223 C 
BRANCH   9  10
ATOM     10  C   UNL d   1      30.190 -13.775   1.915  0.00  0.00     0.243 C 
ATOM     11  N   UNL d   1      29.749 -14.435   3.071  0.00  0.00    -0.278 N 
ATOM     12  C   UNL d   1      30.129 -14.028   4.341  0.00  0.00     0.322 C 
ATOM     13  H   UNL d   1      29.149 -15.239   2.986  0.00  0.00     0.173 HD
ATOM     14  N   UNL d   1      29.629 -14.769   5.403  0.00  0.00    -0.343 N 
ATOM     15  O   UNL d   1      30.863 -13.066   4.571  0.00  0.00    -0.247 OA
ATOM     16  H   UNL d   1      29.026 -15.566   5.276  0.00  0.00     0.164 HD
ATOM     17  O   UNL d   1      30.918 -12.778   1.927  0.00  0.00    -0.271 OA
BRANCH  14  18
ATOM     18  C   UNL d   1      30.004 -14.376   6.774  0.00  0.00     0.124 C 
BRANCH  18  19
ATOM     19  C   UNL d   1      29.518 -12.989   7.205  0.00  0.00     0.015 C 
ATOM     20  C   UNL d   1      29.207 -12.926   8.702  0.00  0.00     0.006 C 
ENDBRANCH  18  19
ENDBRANCH  14  18
ENDBRANCH   9  10
ENDBRANCH   7   9
ENDBRANCH   1   7
BRANCH   4  21
ATOM     21  C   UNL d   1      23.845 -17.063  -1.435  0.00  0.00     0.061 C 
BRANCH  21  22
ATOM     22  C   UNL d   1      23.403 -18.506  -1.152  0.00  0.00     0.174 C 
BRANCH  22  23
ATOM     23  N   UNL d   1      21.980 -18.693  -0.957  0.00  0.00    -0.191 N 
ATOM     24  N   UNL d   1      21.034 -18.015  -1.629  0.00  0.00     0.024 NA
ATOM     25  N   UNL d   1      19.883 -18.575  -1.254  0.00  0.00    -0.136 NA
ATOM     26  C   UNL d   1      20.202 -19.591  -0.378  0.00  0.00     0.198 A 
ATOM     27  N   UNL d   1      21.527 -19.693  -0.179  0.00  0.00    -0.136 NA
BRANCH  26  28
ATOM     28  C   UNL d   1      19.234 -20.401   0.354  0.00  0.00     0.015 A 
ATOM     29  C   UNL d   1      19.401 -20.747   1.701  0.00  0.00     0.015 A 
ATOM     30  C   UNL d   1      18.437 -21.535   2.353  0.00  0.00     0.001 A 
ATOM     31  C   UNL d   1      17.278 -21.930   1.686  0.00  0.00     0.000 A 
ATOM     32  C   UNL d   1      17.094 -21.573   0.355  0.00  0.00     0.001 A 
ATOM     33  C   UNL d   1      18.068 -20.819  -0.307  0.00  0.00     0.015 A 
ENDBRANCH  26  28
ENDBRANCH  22  23
ENDBRANCH  21  22
ENDBRANCH   4  21
TORSDOF 9
ENDMDL
MODEL 4
REMARK VINA RESULT:   -27.288      3.450      4.745
REMARK INTER + INTRA:         -31.131
REMARK INTER:                 -29.973
REMARK INTRA:                  -1.158
REMARK CONF_INDEPENDENT:        2.685
REMARK UNBOUND:                -1.158
REMARK  9 active torsions:
REMARK  status: ('A' for Active; 'I' for Inactive)
REMARK    1  A    between atoms: C_2  and  C_3 
REMARK    2  A    between atoms: C_3  and  N_4 
REMARK       I    between atoms: N_4  and  C_5 
REMARK       I    between atoms: C_5  and  N_7 
REMARK       I    between atoms: N_7  and  C_8 
REMARK    3  A    between atoms: C_8  and  C_10 
REMARK    4  A    between atoms: C_10  and  N_11 
REMARK    5  A    between atoms: N_11  and  C_12 
REMARK    6  A    between atoms: C_15  and  C_16 
REMARK    7  A    between atoms: C_16  and  C_17 
REMARK    8  A    between atoms: C_17  and  N_18 
REMARK    9  A    between atoms: C_21  and  C_22 
ROOT
ATOM      1  C   UNL d   1      28.149 -16.495  -0.340  0.00  0.00     0.028 A 
ATOM      2  C   UNL d   1      27.514 -17.591   0.265  0.00  0.00     0.029 A 
ATOM      3  C   UNL d   1      26.219 -18.007  -0.114  0.00  0.00     0.009 A 
ATOM      4  C   UNL d   1      25.488 -17.298  -1.076  0.00  0.00    -0.056 A 
ATOM      5  C   UNL d   1      26.139 -16.229  -1.705  0.00  0.00     0.009 A 
ATOM      6  C   UNL d   1      27.436 -15.833  -1.335  0.00  0.00     0.029 A 
ENDROOT
BRANCH   1   7
ATOM      7  N   UNL d   1      29.411 -16.110   0.079  0.00  0.00    -0.381 N 
ATOM      8  H   UNL d   1      29.631 -16.272   1.066  0.00  0.00     0.160 HD
BRANCH   7   9
ATOM      9  C   UNL d   1      30.596 -15.956  -0.792  0.00  0.00     0.223 C 
BRANCH   9  10
ATOM     10  C   UNL d   1      31.088 -17.348  -1.292  0.00  0.00     0.243 C 
ATOM     11  N   UNL d   1      30.757 -18.473  -0.523  0.00  0.00    -0.278 N 
ATOM     12  C   UNL d   1      31.142 -19.754  -0.888  0.00  0.00     0.322 C 
ATOM     13  H   UNL d   1      30.211 -18.359   0.316  0.00  0.00     0.173 HD
ATOM     14  N   UNL d   1      30.745 -20.783  -0.044  0.00  0.00    -0.343 N 
ATOM     15  O   UNL d   1      31.803 -20.020  -1.893  0.00  0.00    -0.247 OA
ATOM     16  H   UNL d   1      30.202 -20.626   0.790  0.00  0.00     0.164 HD
ATOM     17  O   UNL d   1      31.760 -17.396  -2.326  0.00  0.00    -0.271 OA
BRANCH  14  18
ATOM     18  C   UNL d   1      31.130 -22.164  -0.390  0.00  0.00     0.124 C 
BRANCH  18  19
ATOM     19  C   UNL d   1      31.852 -22.932   0.721  0.00  0.00     0.015 C 
ATOM     20  C   UNL d   1      33.333 -22.553   0.816  0.00  0.00     0.006 C 
ENDBRANCH  18  19
ENDBRANCH  14  18
ENDBRANCH   9  10
ENDBRANCH   7   9
ENDBRANCH   1   7
BRANCH   4  21
ATOM     21  C   UNL d   1      24.034 -17.672  -1.359  0.00  0.00     0.061 C 
BRANCH  21  22
ATOM     22  C   UNL d   1      23.081 -17.526  -0.165  0.00  0.00     0.174 C 
BRANCH  22  23
ATOM     23  N   UNL d   1      21.756 -18.078  -0.357  0.00  0.00    -0.191 N 
ATOM     24  N   UNL d   1      20.956 -17.770  -1.393  0.00  0.00     0.024 NA
ATOM     25  N   UNL d   1      19.906 -18.582  -1.264  0.00  0.00    -0.136 NA
ATOM     26  C   UNL d   1      20.141 -19.364  -0.153  0.00  0.00     0.198 A 
ATOM     27  N   UNL d   1      21.312 -19.071   0.436  0.00  0.00    -0.136 NA
BRANCH  26  28
ATOM     28  C   UNL d   1      19.197 -20.323   0.411  0.00  0.00     0.015 A 
ATOM     29  C   UNL d   1      19.369 -20.901   1.676  0.00  0.00     0.015 A 
ATOM     30  C   UNL d   1      18.430 -21.824   2.165  0.00  0.00     0.001 A 
ATOM     31  C   UNL d   1      17.287 -22.129   1.426  0.00  0.00     0.000 A 
ATOM     32  C   UNL d   1      17.097 -21.544   0.179  0.00  0.00     0.001 A 
ATOM     33  C   UNL d   1      18.048 -20.652  -0.326  0.00  0.00     0.015 A 
ENDBRANCH  26  28
ENDBRANCH  22  23
ENDBRANCH  21  22
ENDBRANCH   4  21
TORSDOF 9
ENDMDL
MODEL 5
REMARK VINA RESULT:   -27.148      3.430      4.877
REMARK INTER + INTRA:         -30.886
REMARK INTER:                 -29.833
REMARK INTRA:                  -1.054
REMARK CONF_INDEPENDENT:        2.685
REMARK UNBOUND:                -1.054
REMARK  9 active torsions:
REMARK  status: ('A' for Active; 'I' for Inactive)
REMARK    1  A    between atoms: C_2  and  C_3 
REMARK    2  A    between atoms: C_3  and  N_4 
REMARK       I    between atoms: N_4  and  C_5 
REMARK       I    between atoms: C_5  and  N_7 
REMARK       I    between atoms: N_7  and  C_8 
REMARK    3  A    between atoms: C_8  and  C_10 
REMARK    4  A    between atoms: C_10  and  N_11 
REMARK    5  A    between atoms: N_11  and  C_12 
REMARK    6  A    between atoms: C_15  and  C_16 
REMARK    7  A    between atoms: C_16  and  C_17 
REMARK    8  A    between atoms: C_17  and  N_18 
REMARK    9  A    between atoms: C_21  and  C_22 
ROOT
ATOM      1  C   UNL d   1      28.163 -16.082  -0.661  0.00  0.00     0.028 A 
ATOM      2  C   UNL d   1      27.215 -15.716  -1.630  0.00  0.00     0.029 A 
ATOM      3  C   UNL d   1      25.919 -16.275  -1.658  0.00  0.00     0.009 A 
ATOM      4  C   UNL d   1      25.546 -17.272  -0.747  0.00  0.00    -0.056 A 
ATOM      5  C   UNL d   1      26.480 -17.608   0.242  0.00  0.00     0.009 A 
ATOM      6  C   UNL d   1      27.762 -17.031   0.274  0.00  0.00     0.029 A 
ENDROOT
BRANCH   1   7
ATOM      7  N   UNL d   1      29.429 -15.522  -0.686  0.00  0.00    -0.381 N 
ATOM      8  H   UNL d   1      29.474 -14.501  -0.615  0.00  0.00     0.160 HD
BRANCH   7   9
ATOM      9  C   UNL d   1      30.682 -16.215  -0.322  0.00  0.00     0.223 C 
BRANCH   9  10
ATOM     10  C   UNL d   1      30.822 -17.544  -1.125  0.00  0.00     0.243 C 
ATOM     11  N   UNL d   1      30.827 -18.746  -0.403  0.00  0.00    -0.278 N 
ATOM     12  C   UNL d   1      30.939 -19.979  -1.027  0.00  0.00     0.322 C 
ATOM     13  H   UNL d   1      30.734 -18.725   0.599  0.00  0.00     0.173 HD
ATOM     14  N   UNL d   1      30.925 -21.095  -0.200  0.00  0.00    -0.343 N 
ATOM     15  O   UNL d   1      31.051 -20.134  -2.244  0.00  0.00    -0.247 OA
ATOM     16  H   UNL d   1      30.834 -21.030   0.801  0.00  0.00     0.164 HD
ATOM     17  O   UNL d   1      30.940 -17.478  -2.352  0.00  0.00    -0.271 OA
BRANCH  14  18
ATOM     18  C   UNL d   1      31.041 -22.429  -0.817  0.00  0.00     0.124 C 
BRANCH  18  19
ATOM     19  C   UNL d   1      29.962 -23.432  -0.397  0.00  0.00     0.015 C 
ATOM     20  C   UNL d   1      30.558 -24.675   0.270  0.00  0.00     0.006 C 
ENDBRANCH  18  19
ENDBRANCH  14  18
ENDBRANCH   9  10
ENDBRANCH   7   9
ENDBRANCH   1   7
BRANCH   4  21
ATOM     21  C   UNL d   1      24.197 -17.972  -0.891  0.00  0.00     0.061 C 
BRANCH  21  22
ATOM     22  C   UNL d   1      23.003 -17.215  -0.293  0.00  0.00     0.174 C 
BRANCH  22  23
ATOM     23  N   UNL d   1      21.720 -17.872  -0.425  0.00  0.00    -0.191 N 
ATOM     24  N   UNL d   1      20.894 -17.704  -1.472  0.00  0.00     0.024 NA
ATOM     25  N   UNL d   1      19.905 -18.576  -1.269  0.00  0.00    -0.136 NA
ATOM     26  C   UNL d   1      20.202 -19.249  -0.103  0.00  0.00     0.198 A 
ATOM     27  N   UNL d   1      21.353 -18.828   0.448  0.00  0.00    -0.136 NA
BRANCH  26  28
ATOM     28  C   UNL d   1      19.333 -20.225   0.545  0.00  0.00     0.015 A 
ATOM     29  C   UNL d   1      19.437 -20.548   1.904  0.00  0.00     0.015 A 
ATOM     30  C   UNL d   1      18.576 -21.501   2.474  0.00  0.00     0.001 A 
ATOM     31  C   UNL d   1      17.570 -22.091   1.708  0.00  0.00     0.000 A 
ATOM     32  C   UNL d   1      17.445 -21.761   0.363  0.00  0.00     0.001 A 
ATOM     33  C   UNL d   1      18.324 -20.839  -0.215  0.00  0.00     0.015 A 
ENDBRANCH  26  28
ENDBRANCH  22  23
ENDBRANCH  21  22
ENDBRANCH   4  21
TORSDOF 9
ENDMDL
MODEL 6
REMARK VINA RESULT:   -26.786      3.690      6.380
REMARK INTER + INTRA:         -30.438
REMARK INTER:                 -29.471
REMARK INTRA:                  -0.967
REMARK CONF_INDEPENDENT:        2.685
REMARK UNBOUND:                -0.967
REMARK  9 active torsions:
REMARK  status: ('A' for Active; 'I' for Inactive)
REMARK    1  A    between atoms: C_2  and  C_3 
REMARK    2  A    between atoms: C_3  and  N_4 
REMARK       I    between atoms: N_4  and  C_5 
REMARK       I    between atoms: C_5  and  N_7 
REMARK       I    between atoms: N_7  and  C_8 
REMARK    3  A    between atoms: C_8  and  C_10 
REMARK    4  A    between atoms: C_10  and  N_11 
REMARK    5  A    between atoms: N_11  and  C_12 
REMARK    6  A    between atoms: C_15  and  C_16 
REMARK    7  A    between atoms: C_16  and  C_17 
REMARK    8  A    between atoms: C_17  and  N_18 
REMARK    9  A    between atoms: C_21  and  C_22 
ROOT
ATOM      1  C   UNL d   1      28.233 -16.840  -1.176  0.00  0.00     0.028 A 
ATOM      2  C   UNL d   1      27.518 -16.240  -2.225  0.00  0.00     0.029 A 
ATOM      3  C   UNL d   1      26.110 -16.314  -2.309  0.00  0.00     0.009 A 
ATOM      4  C   UNL d   1      25.371 -17.047  -1.371  0.00  0.00    -0.056 A 
ATOM      5  C   UNL d   1      26.083 -17.613  -0.305  0.00  0.00     0.009 A 
ATOM      6  C   UNL d   1      27.483 -17.518  -0.219  0.00  0.00     0.029 A 
ENDROOT
BRANCH   1   7
ATOM      7  N   UNL d   1      29.614 -16.759  -1.147  0.00  0.00    -0.381 N 
ATOM      8  H   UNL d   1      30.020 -16.192  -0.397  0.00  0.00     0.160 HD
BRANCH   7   9
ATOM      9  C   UNL d   1      30.546 -17.743  -1.738  0.00  0.00     0.223 C 
BRANCH   9  10
ATOM     10  C   UNL d   1      31.082 -17.230  -3.108  0.00  0.00     0.243 C 
ATOM     11  N   UNL d   1      30.721 -17.943  -4.260  0.00  0.00    -0.278 N 
ATOM     12  C   UNL d   1      31.142 -17.561  -5.525  0.00  0.00     0.322 C 
ATOM     13  H   UNL d   1      30.127 -18.751  -4.179  0.00  0.00     0.173 HD
ATOM     14  N   UNL d   1      30.710 -18.347  -6.585  0.00  0.00    -0.343 N 
ATOM     15  O   UNL d   1      31.863 -16.588  -5.752  0.00  0.00    -0.247 OA
ATOM     16  H   UNL d   1      30.118 -19.153  -6.460  0.00  0.00     0.164 HD
ATOM     17  O   UNL d   1      31.814 -16.235  -3.116  0.00  0.00    -0.271 OA
BRANCH  14  18
ATOM     18  C   UNL d   1      31.131 -17.981  -7.949  0.00  0.00     0.124 C 
BRANCH  18  19
ATOM     19  C   UNL d   1      31.921 -19.061  -8.694  0.00  0.00     0.015 C 
ATOM     20  C   UNL d   1      31.196 -20.409  -8.697  0.00  0.00     0.006 C 
ENDBRANCH  18  19
ENDBRANCH  14  18
ENDBRANCH   9  10
ENDBRANCH   7   9
ENDBRANCH   1   7
BRANCH   4  21
ATOM     21  C   UNL d   1      23.869 -17.243  -1.567  0.00  0.00     0.061 C 
BRANCH  21  22
ATOM     22  C   UNL d   1      23.053 -17.355  -0.271  0.00  0.00     0.174 C 
BRANCH  22  23
ATOM     23  N   UNL d   1      21.742 -17.952  -0.412  0.00  0.00    -0.191 N 
ATOM     24  N   UNL d   1      20.935 -17.753  -1.470  0.00  0.00     0.024 NA
ATOM     25  N   UNL d   1      19.904 -18.576  -1.270  0.00  0.00    -0.136 NA
ATOM     26  C   UNL d   1      20.157 -19.252  -0.096  0.00  0.00     0.198 A 
ATOM     27  N   UNL d   1      21.321 -18.882   0.464  0.00  0.00    -0.136 NA
BRANCH  26  28
ATOM     28  C   UNL d   1      19.236 -20.181   0.551  0.00  0.00     0.015 A 
ATOM     29  C   UNL d   1      19.315 -20.501   1.913  0.00  0.00     0.015 A 
ATOM     30  C   UNL d   1      18.403 -21.408   2.480  0.00  0.00     0.001 A 
ATOM     31  C   UNL d   1      17.374 -21.951   1.710  0.00  0.00     0.000 A 
ATOM     32  C   UNL d   1      17.276 -21.622   0.362  0.00  0.00     0.001 A 
ATOM     33  C   UNL d   1      18.204 -20.748  -0.213  0.00  0.00     0.015 A 
ENDBRANCH  26  28
ENDBRANCH  22  23
ENDBRANCH  21  22
ENDBRANCH   4  21
TORSDOF 9
ENDMDL
MODEL 7
REMARK VINA RESULT:   -26.677      4.041      6.326
REMARK INTER + INTRA:         -30.365
REMARK INTER:                 -29.361
REMARK INTRA:                  -1.004
REMARK CONF_INDEPENDENT:        2.685
REMARK UNBOUND:                -1.004
REMARK  9 active torsions:
REMARK  status: ('A' for Active; 'I' for Inactive)
REMARK    1  A    between atoms: C_2  and  C_3 
REMARK    2  A    between atoms: C_3  and  N_4 
REMARK       I    between atoms: N_4  and  C_5 
REMARK       I    between atoms: C_5  and  N_7 
REMARK       I    between atoms: N_7  and  C_8 
REMARK    3  A    between atoms: C_8  and  C_10 
REMARK    4  A    between atoms: C_10  and  N_11 
REMARK    5  A    between atoms: N_11  and  C_12 
REMARK    6  A    between atoms: C_15  and  C_16 
REMARK    7  A    between atoms: C_16  and  C_17 
REMARK    8  A    between atoms: C_17  and  N_18 
REMARK    9  A    between atoms: C_21  and  C_22 
ROOT
ATOM      1  C   UNL d   1      26.803 -14.818  -2.748  0.00  0.00     0.028 A 
ATOM      2  C   UNL d   1      25.453 -14.915  -3.120  0.00  0.00     0.029 A 
ATOM      3  C   UNL d   1      24.489 -15.523  -2.286  0.00  0.00     0.009 A 
ATOM      4  C   UNL d   1      24.860 -16.112  -1.069  0.00  0.00    -0.056 A 
ATOM      5  C   UNL d   1      26.201 -15.980  -0.684  0.00  0.00     0.009 A 
ATOM      6  C   UNL d   1      27.149 -15.356  -1.512  0.00  0.00     0.029 A 
ENDROOT
BRANCH   1   7
ATOM      7  N   UNL d   1      27.716 -14.232  -3.608  0.00  0.00    -0.381 N 
ATOM      8  H   UNL d   1      28.705 -14.407  -3.408  0.00  0.00     0.160 HD
BRANCH   7   9
ATOM      9  C   UNL d   1      27.440 -13.813  -4.999  0.00  0.00     0.223 C 
BRANCH   9  10
ATOM     10  C   UNL d   1      28.507 -14.407  -5.967  0.00  0.00     0.243 C 
ATOM     11  N   UNL d   1      28.937 -15.723  -5.737  0.00  0.00    -0.278 N 
ATOM     12  C   UNL d   1      29.876 -16.342  -6.548  0.00  0.00     0.322 C 
ATOM     13  H   UNL d   1      28.548 -16.246  -4.971  0.00  0.00     0.173 HD
ATOM     14  N   UNL d   1      30.213 -17.648  -6.218  0.00  0.00    -0.343 N 
ATOM     15  O   UNL d   1      30.417 -15.808  -7.518  0.00  0.00    -0.247 OA
ATOM     16  H   UNL d   1      29.803 -18.136  -5.437  0.00  0.00     0.164 HD
ATOM     17  O   UNL d   1      28.937 -13.692  -6.877  0.00  0.00    -0.271 OA
BRANCH  14  18
ATOM     18  C   UNL d   1      31.208 -18.350  -7.050  0.00  0.00     0.124 C 
BRANCH  18  19
ATOM     19  C   UNL d   1      30.782 -19.739  -7.533  0.00  0.00     0.015 C 
ATOM     20  C   UNL d   1      30.898 -20.794  -6.430  0.00  0.00     0.006 C 
ENDBRANCH  18  19
ENDBRANCH  14  18
ENDBRANCH   9  10
ENDBRANCH   7   9
ENDBRANCH   1   7
BRANCH   4  21
ATOM     21  C   UNL d   1      23.833 -16.898  -0.257  0.00  0.00     0.061 C 
BRANCH  21  22
ATOM     22  C   UNL d   1      23.388 -18.227  -0.882  0.00  0.00     0.174 C 
BRANCH  22  23
ATOM     23  N   UNL d   1      21.971 -18.513  -0.792  0.00  0.00    -0.191 N 
ATOM     24  N   UNL d   1      21.041 -17.958  -1.589  0.00  0.00     0.024 NA
ATOM     25  N   UNL d   1      19.905 -18.582  -1.270  0.00  0.00    -0.136 NA
ATOM     26  C   UNL d   1      20.220 -19.508  -0.298  0.00  0.00     0.198 A 
ATOM     27  N   UNL d   1      21.525 -19.492   0.017  0.00  0.00    -0.136 NA
BRANCH  26  28
ATOM     28  C   UNL d   1      19.253 -20.342   0.409  0.00  0.00     0.015 A 
ATOM     29  C   UNL d   1      19.365 -20.641   1.773  0.00  0.00     0.015 A 
ATOM     30  C   UNL d   1      18.406 -21.455   2.399  0.00  0.00     0.001 A 
ATOM     31  C   UNL d   1      17.301 -21.922   1.687  0.00  0.00     0.000 A 
ATOM     32  C   UNL d   1      17.170 -21.612   0.338  0.00  0.00     0.001 A 
ATOM     33  C   UNL d   1      18.142 -20.832  -0.297  0.00  0.00     0.015 A 
ENDBRANCH  26  28
ENDBRANCH  22  23
ENDBRANCH  21  22
ENDBRANCH   4  21
TORSDOF 9
ENDMDL
MODEL 8
REMARK VINA RESULT:   -26.542      4.417      6.664
REMARK INTER + INTRA:         -30.186
REMARK INTER:                 -29.227
REMARK INTRA:                  -0.959
REMARK CONF_INDEPENDENT:        2.685
REMARK UNBOUND:                -0.959
REMARK  9 active torsions:
REMARK  status: ('A' for Active; 'I' for Inactive)
REMARK    1  A    between atoms: C_2  and  C_3 
REMARK    2  A    between atoms: C_3  and  N_4 
REMARK       I    between atoms: N_4  and  C_5 
REMARK       I    between atoms: C_5  and  N_7 
REMARK       I    between atoms: N_7  and  C_8 
REMARK    3  A    between atoms: C_8  and  C_10 
REMARK    4  A    between atoms: C_10  and  N_11 
REMARK    5  A    between atoms: N_11  and  C_12 
REMARK    6  A    between atoms: C_15  and  C_16 
REMARK    7  A    between atoms: C_16  and  C_17 
REMARK    8  A    between atoms: C_17  and  N_18 
REMARK    9  A    between atoms: C_21  and  C_22 
ROOT
ATOM      1  C   UNL d   1      26.403 -14.324  -2.452  0.00  0.00     0.028 A 
ATOM      2  C   UNL d   1      25.092 -14.664  -2.825  0.00  0.00     0.029 A 
ATOM      3  C   UNL d   1      24.302 -15.548  -2.059  0.00  0.00     0.009 A 
ATOM      4  C   UNL d   1      24.823 -16.173  -0.917  0.00  0.00    -0.056 A 
ATOM      5  C   UNL d   1      26.116 -15.802  -0.526  0.00  0.00     0.009 A 
ATOM      6  C   UNL d   1      26.889 -14.906  -1.285  0.00  0.00     0.029 A 
ENDROOT
BRANCH   1   7
ATOM      7  N   UNL d   1      27.147 -13.469  -3.246  0.00  0.00    -0.381 N 
ATOM      8  H   UNL d   1      28.057 -13.182  -2.874  0.00  0.00     0.160 HD
BRANCH   7   9
ATOM      9  C   UNL d   1      27.013 -13.321  -4.711  0.00  0.00     0.223 C 
BRANCH   9  10
ATOM     10  C   UNL d   1      27.108 -11.819  -5.116  0.00  0.00     0.243 C 
ATOM     11  N   UNL d   1      25.912 -11.140  -5.392  0.00  0.00    -0.278 N 
ATOM     12  C   UNL d   1      25.892  -9.801  -5.754  0.00  0.00     0.322 C 
ATOM     13  H   UNL d   1      25.035 -11.627  -5.315  0.00  0.00     0.173 HD
ATOM     14  N   UNL d   1      24.643  -9.244  -5.994  0.00  0.00    -0.343 N 
ATOM     15  O   UNL d   1      26.898  -9.099  -5.873  0.00  0.00    -0.247 OA
ATOM     16  H   UNL d   1      23.787  -9.769  -5.910  0.00  0.00     0.164 HD
ATOM     17  O   UNL d   1      28.226 -11.302  -5.195  0.00  0.00    -0.271 OA
BRANCH  14  18
ATOM     18  C   UNL d   1      24.570  -7.823  -6.382  0.00  0.00     0.124 C 
BRANCH  18  19
ATOM     19  C   UNL d   1      23.179  -7.339  -6.801  0.00  0.00     0.015 C 
ATOM     20  C   UNL d   1      23.242  -6.331  -7.953  0.00  0.00     0.006 C 
ENDBRANCH  18  19
ENDBRANCH  14  18
ENDBRANCH   9  10
ENDBRANCH   7   9
ENDBRANCH   1   7
BRANCH   4  21
ATOM     21  C   UNL d   1      24.007 -17.241  -0.192  0.00  0.00     0.061 C 
BRANCH  21  22
ATOM     22  C   UNL d   1      23.414 -18.332  -1.095  0.00  0.00     0.174 C 
BRANCH  22  23
ATOM     23  N   UNL d   1      21.998 -18.582  -0.921  0.00  0.00    -0.191 N 
ATOM     24  N   UNL d   1      21.035 -17.979  -1.639  0.00  0.00     0.024 NA
ATOM     25  N   UNL d   1      19.905 -18.581  -1.264  0.00  0.00    -0.136 NA
ATOM     26  C   UNL d   1      20.255 -19.544  -0.342  0.00  0.00     0.198 A 
ATOM     27  N   UNL d   1      21.578 -19.572  -0.112  0.00  0.00    -0.136 NA
BRANCH  26  28
ATOM     28  C   UNL d   1      19.312 -20.372   0.403  0.00  0.00     0.015 A 
ATOM     29  C   UNL d   1      19.414 -20.581   1.785  0.00  0.00     0.015 A 
ATOM     30  C   UNL d   1      18.480 -21.394   2.449  0.00  0.00     0.001 A 
ATOM     31  C   UNL d   1      17.407 -21.951   1.752  0.00  0.00     0.000 A 
ATOM     32  C   UNL d   1      17.285 -21.732   0.384  0.00  0.00     0.001 A 
ATOM     33  C   UNL d   1      18.235 -20.952  -0.285  0.00  0.00     0.015 A 
ENDBRANCH  26  28
ENDBRANCH  22  23
ENDBRANCH  21  22
ENDBRANCH   4  21
TORSDOF 9
ENDMDL
MODEL 9
REMARK VINA RESULT:   -26.390      3.180      5.451
REMARK INTER + INTRA:         -29.966
REMARK INTER:                 -29.075
REMARK INTRA:                  -0.891
REMARK CONF_INDEPENDENT:        2.685
REMARK UNBOUND:                -0.891
REMARK  9 active torsions:
REMARK  status: ('A' for Active; 'I' for Inactive)
REMARK    1  A    between atoms: C_2  and  C_3 
REMARK    2  A    between atoms: C_3  and  N_4 
REMARK       I    between atoms: N_4  and  C_5 
REMARK       I    between atoms: C_5  and  N_7 
REMARK       I    between atoms: N_7  and  C_8 
REMARK    3  A    between atoms: C_8  and  C_10 
REMARK    4  A    between atoms: C_10  and  N_11 
REMARK    5  A    between atoms: N_11  and  C_12 
REMARK    6  A    between atoms: C_15  and  C_16 
REMARK    7  A    between atoms: C_16  and  C_17 
REMARK    8  A    between atoms: C_17  and  N_18 
REMARK    9  A    between atoms: C_21  and  C_22 
ROOT
ATOM      1  C   UNL d   1      28.196 -16.484  -0.352  0.00  0.00     0.028 A 
ATOM      2  C   UNL d   1      27.455 -15.616  -1.171  0.00  0.00     0.029 A 
ATOM      3  C   UNL d   1      26.056 -15.739  -1.318  0.00  0.00     0.009 A 
ATOM      4  C   UNL d   1      25.356 -16.781  -0.694  0.00  0.00    -0.056 A 
ATOM      5  C   UNL d   1      26.092 -17.622   0.151  0.00  0.00     0.009 A 
ATOM      6  C   UNL d   1      27.482 -17.479   0.308  0.00  0.00     0.029 A 
ENDROOT
BRANCH   1   7
ATOM      7  N   UNL d   1      29.569 -16.337  -0.255  0.00  0.00    -0.381 N 
ATOM      8  H   UNL d   1      30.057 -17.017   0.335  0.00  0.00     0.160 HD
BRANCH   7   9
ATOM      9  C   UNL d   1      30.433 -15.655  -1.242  0.00  0.00     0.223 C 
BRANCH   9  10
ATOM     10  C   UNL d   1      29.900 -15.893  -2.687  0.00  0.00     0.243 C 
ATOM     11  N   UNL d   1      29.521 -14.770  -3.437  0.00  0.00    -0.278 N 
ATOM     12  C   UNL d   1      29.042 -14.878  -4.734  0.00  0.00     0.322 C 
ATOM     13  H   UNL d   1      29.608 -13.851  -3.035  0.00  0.00     0.173 HD
ATOM     14  N   UNL d   1      28.707 -13.691  -5.371  0.00  0.00    -0.343 N 
ATOM     15  O   UNL d   1      28.897 -15.944  -5.334  0.00  0.00    -0.247 OA
ATOM     16  H   UNL d   1      28.806 -12.789  -4.931  0.00  0.00     0.164 HD
ATOM     17  O   UNL d   1      29.816 -17.054  -3.098  0.00  0.00    -0.271 OA
BRANCH  14  18
ATOM     18  C   UNL d   1      28.193 -13.753  -6.751  0.00  0.00     0.124 C 
BRANCH  18  19
ATOM     19  C   UNL d   1      28.130 -12.408  -7.480  0.00  0.00     0.015 C 
ATOM     20  C   UNL d   1      29.514 -11.925  -7.921  0.00  0.00     0.006 C 
ENDBRANCH  18  19
ENDBRANCH  14  18
ENDBRANCH   9  10
ENDBRANCH   7   9
ENDBRANCH   1   7
BRANCH   4  21
ATOM     21  C   UNL d   1      23.872 -16.988  -0.990  0.00  0.00     0.061 C 
BRANCH  21  22
ATOM     22  C   UNL d   1      23.416 -18.453  -1.036  0.00  0.00     0.174 C 
BRANCH  22  23
ATOM     23  N   UNL d   1      21.991 -18.666  -0.893  0.00  0.00    -0.191 N 
ATOM     24  N   UNL d   1      21.058 -18.010  -1.606  0.00  0.00     0.024 NA
ATOM     25  N   UNL d   1      19.905 -18.589  -1.270  0.00  0.00    -0.136 NA
ATOM     26  C   UNL d   1      20.209 -19.593  -0.375  0.00  0.00     0.198 A 
ATOM     27  N   UNL d   1      21.527 -19.669  -0.126  0.00  0.00    -0.136 NA
BRANCH  26  28
ATOM     28  C   UNL d   1      19.229 -20.416   0.325  0.00  0.00     0.015 A 
ATOM     29  C   UNL d   1      19.383 -20.802   1.663  0.00  0.00     0.015 A 
ATOM     30  C   UNL d   1      18.408 -21.601   2.285  0.00  0.00     0.001 A 
ATOM     31  C   UNL d   1      17.251 -21.967   1.598  0.00  0.00     0.000 A 
ATOM     32  C   UNL d   1      17.080 -21.570   0.276  0.00  0.00     0.001 A 
ATOM     33  C   UNL d   1      18.065 -20.805  -0.356  0.00  0.00     0.015 A 
ENDBRANCH  26  28
ENDBRANCH  22  23
ENDBRANCH  21  22
ENDBRANCH   4  21
TORSDOF 9
ENDMDL
