MODEL 1
REMARK VINA RESULT:    -6.482      0.000      0.000
REMARK INTER + INTRA:         -10.853
REMARK INTER:                  -9.167
REMARK INTRA:                  -1.686
REMARK CONF_INDEPENDENT:        2.685
REMARK UNBOUND:                -1.686
REMARK  9 active torsions:
REMARK  status: ('A' for Active; 'I' for Inactive)
REMARK    1  A    between atoms: C_2  and  C_15 
REMARK    2  A    between atoms: C_2  and  N_3 
REMARK       I    between atoms: N_3  and  C_4 
REMARK    3  A    between atoms: C_4  and  C_6 
REMARK       I    between atoms: C_6  and  N_8 
REMARK    4  A    between atoms: N_8  and  C_9 
REMARK    5  A    between atoms: C_9  and  C_10 
REMARK    6  A    between atoms: C_10  and  C_11 
REMARK    7  A    between atoms: C_11  and  C_12 
REMARK    8  A    between atoms: C_12  and  C_13 
REMARK    9  A    between atoms: C_13  and  O_14 
ROOT
ATOM      1  N   UNL d   1      26.281 -16.306  -0.619  0.00  0.00    -0.345 N 
ATOM      2  C   UNL d   1      24.987 -16.503  -1.076  0.00  0.00     0.309 C 
ATOM      3  O   UNL d   1      24.417 -15.897  -1.983  0.00  0.00    -0.262 OA
ATOM      4  H   UNL d   1      26.488 -16.720   0.286  0.00  0.00     0.163 HD
ENDROOT
BRANCH   2   5
ATOM      5  C   UNL d   1      24.146 -17.598  -0.393  0.00  0.00     0.309 C 
ATOM      6  O   UNL d   1      24.667 -18.396   0.376  0.00  0.00    -0.262 OA
ATOM      7  N   UNL d   1      22.796 -17.528  -0.714  0.00  0.00    -0.353 N 
ATOM      8  H   UNL d   1      22.520 -16.774  -1.341  0.00  0.00     0.162 HD
BRANCH   7   9
ATOM      9  C   UNL d   1      21.803 -18.301  -0.007  0.00  0.00     0.123 C 
BRANCH   9  10
ATOM     10  C   UNL d   1      20.972 -19.213  -0.909  0.00  0.00     0.020 C 
BRANCH  10  11
ATOM     11  C   UNL d   1      19.582 -19.429  -0.304  0.00  0.00     0.004 C 
BRANCH  11  12
ATOM     12  C   UNL d   1      19.510 -20.717   0.510  0.00  0.00     0.026 C 
BRANCH  12  13
ATOM     13  C   UNL d   1      18.080 -21.007   0.948  0.00  0.00     0.164 C 
BRANCH  13  14
ATOM     14  O   UNL d   1      17.720 -22.330   0.574  0.00  0.00    -0.401 OA
ATOM     15  H   UNL d   1      16.827 -22.293   0.192  0.00  0.00     0.209 HD
ENDBRANCH  13  14
ENDBRANCH  12  13
ENDBRANCH  11  12
ENDBRANCH  10  11
ENDBRANCH   9  10
ENDBRANCH   7   9
ENDBRANCH   2   5
BRANCH   1  16
ATOM     16  C   UNL d   1      27.300 -15.415  -1.240  0.00  0.00     0.114 C 
ATOM     17  C   UNL d   1      28.564 -16.237  -1.592  0.00  0.00     0.037 C 
BRANCH  16  18
ATOM     18  C   UNL d   1      26.752 -14.711  -2.494  0.00  0.00    -0.036 C 
ATOM     19  C   UNL d   1      26.112 -13.471  -2.389  0.00  0.00     0.009 C 
ATOM     20  C   UNL d   1      25.315 -12.951  -3.399  0.00  0.00     0.001 C 
ATOM     21  C   UNL d   1      25.362 -13.526  -4.652  0.00  0.00     0.000 C 
ATOM     22  C   UNL d   1      26.158 -14.646  -4.859  0.00  0.00     0.001 C 
ATOM     23  C   UNL d   1      26.825 -15.249  -3.787  0.00  0.00     0.009 C 
ENDBRANCH  16  18
ENDBRANCH   1  16
TORSDOF 9
ENDMDL
MODEL 2
REMARK VINA RESULT:    -6.085      3.658      7.598
REMARK INTER + INTRA:         -12.128
REMARK INTER:                  -8.769
REMARK INTRA:                  -3.359
REMARK CONF_INDEPENDENT:        2.685
REMARK UNBOUND:                -3.359
REMARK  9 active torsions:
REMARK  status: ('A' for Active; 'I' for Inactive)
REMARK    1  A    between atoms: C_2  and  C_15 
REMARK    2  A    between atoms: C_2  and  N_3 
REMARK       I    between atoms: N_3  and  C_4 
REMARK    3  A    between atoms: C_4  and  C_6 
REMARK       I    between atoms: C_6  and  N_8 
REMARK    4  A    between atoms: N_8  and  C_9 
REMARK    5  A    between atoms: C_9  and  C_10 
REMARK    6  A    between atoms: C_10  and  C_11 
REMARK    7  A    between atoms: C_11  and  C_12 
REMARK    8  A    between atoms: C_12  and  C_13 
REMARK    9  A    between atoms: C_13  and  O_14 
ROOT
ATOM      1  N   UNL d   1      26.207 -16.044  -2.613  0.00  0.00    -0.345 N 
ATOM      2  C   UNL d   1      27.363 -15.594  -3.234  0.00  0.00     0.309 C 
ATOM      3  O   UNL d   1      28.469 -15.431  -2.722  0.00  0.00    -0.262 OA
ATOM      4  H   UNL d   1      25.347 -15.877  -3.127  0.00  0.00     0.163 HD
ENDROOT
BRANCH   2   5
ATOM      5  C   UNL d   1      27.282 -15.255  -4.735  0.00  0.00     0.309 C 
ATOM      6  O   UNL d   1      26.301 -15.576  -5.394  0.00  0.00    -0.262 OA
ATOM      7  N   UNL d   1      28.383 -14.542  -5.193  0.00  0.00    -0.353 N 
ATOM      8  H   UNL d   1      29.096 -14.320  -4.500  0.00  0.00     0.162 HD
BRANCH   7   9
ATOM      9  C   UNL d   1      28.401 -13.922  -6.496  0.00  0.00     0.123 C 
BRANCH   9  10
ATOM     10  C   UNL d   1      27.700 -12.565  -6.545  0.00  0.00     0.020 C 
BRANCH  10  11
ATOM     11  C   UNL d   1      27.180 -12.188  -5.155  0.00  0.00     0.004 C 
BRANCH  11  12
ATOM     12  C   UNL d   1      25.655 -12.182  -5.101  0.00  0.00     0.026 C 
BRANCH  12  13
ATOM     13  C   UNL d   1      25.149 -12.909  -3.862  0.00  0.00     0.164 C 
BRANCH  13  14
ATOM     14  O   UNL d   1      24.594 -14.164  -4.231  0.00  0.00    -0.401 OA
ATOM     15  H   UNL d   1      24.620 -14.223  -5.201  0.00  0.00     0.209 HD
ENDBRANCH  13  14
ENDBRANCH  12  13
ENDBRANCH  11  12
ENDBRANCH  10  11
ENDBRANCH   9  10
ENDBRANCH   7   9
ENDBRANCH   2   5
BRANCH   1  16
ATOM     16  C   UNL d   1      26.113 -16.567  -1.222  0.00  0.00     0.114 C 
ATOM     17  C   UNL d   1      26.507 -15.454  -0.221  0.00  0.00     0.037 C 
BRANCH  16  18
ATOM     18  C   UNL d   1      24.703 -17.096  -0.906  0.00  0.00    -0.036 C 
ATOM     19  C   UNL d   1      24.517 -18.422  -0.498  0.00  0.00     0.009 C 
ATOM     20  C   UNL d   1      23.279 -19.048  -0.525  0.00  0.00     0.001 C 
ATOM     21  C   UNL d   1      22.145 -18.282  -0.693  0.00  0.00     0.000 C 
ATOM     22  C   UNL d   1      22.270 -16.912  -0.892  0.00  0.00     0.001 C 
ATOM     23  C   UNL d   1      23.535 -16.328  -1.025  0.00  0.00     0.009 C 
ENDBRANCH  16  18
ENDBRANCH   1  16
TORSDOF 9
ENDMDL
MODEL 3
REMARK VINA RESULT:    -6.020      4.596      8.202
REMARK INTER + INTRA:         -11.050
REMARK INTER:                  -8.705
REMARK INTRA:                  -2.345
REMARK CONF_INDEPENDENT:        2.685
REMARK UNBOUND:                -2.345
REMARK  9 active torsions:
REMARK  status: ('A' for Active; 'I' for Inactive)
REMARK    1  A    between atoms: C_2  and  C_15 
REMARK    2  A    between atoms: C_2  and  N_3 
REMARK       I    between atoms: N_3  and  C_4 
REMARK    3  A    between atoms: C_4  and  C_6 
REMARK       I    between atoms: C_6  and  N_8 
REMARK    4  A    between atoms: N_8  and  C_9 
REMARK    5  A    between atoms: C_9  and  C_10 
REMARK    6  A    between atoms: C_10  and  C_11 
REMARK    7  A    between atoms: C_11  and  C_12 
REMARK    8  A    between atoms: C_12  and  C_13 
REMARK    9  A    between atoms: C_13  and  O_14 
ROOT
ATOM      1  N   UNL d   1      27.844 -15.507   1.034  0.00  0.00    -0.345 N 
ATOM      2  C   UNL d   1      27.262 -14.316   1.441  0.00  0.00     0.309 C 
ATOM      3  O   UNL d   1      26.629 -13.520   0.748  0.00  0.00    -0.262 OA
ATOM      4  H   UNL d   1      28.527 -15.897   1.678  0.00  0.00     0.163 HD
ENDROOT
BRANCH   2   5
ATOM      5  C   UNL d   1      27.405 -13.921   2.923  0.00  0.00     0.309 C 
ATOM      6  O   UNL d   1      26.846 -12.922   3.360  0.00  0.00    -0.262 OA
ATOM      7  N   UNL d   1      28.169 -14.821   3.656  0.00  0.00    -0.353 N 
ATOM      8  H   UNL d   1      28.530 -15.625   3.146  0.00  0.00     0.162 HD
BRANCH   7   9
ATOM      9  C   UNL d   1      28.233 -14.771   5.096  0.00  0.00     0.123 C 
BRANCH   9  10
ATOM     10  C   UNL d   1      28.827 -13.473   5.645  0.00  0.00     0.020 C 
BRANCH  10  11
ATOM     11  C   UNL d   1      30.330 -13.419   5.357  0.00  0.00     0.004 C 
BRANCH  11  12
ATOM     12  C   UNL d   1      30.617 -13.199   3.875  0.00  0.00     0.026 C 
BRANCH  12  13
ATOM     13  C   UNL d   1      31.152 -14.469   3.228  0.00  0.00     0.164 C 
BRANCH  13  14
ATOM     14  O   UNL d   1      30.340 -14.826   2.118  0.00  0.00    -0.401 OA
ATOM     15  H   UNL d   1      30.272 -15.795   2.104  0.00  0.00     0.209 HD
ENDBRANCH  13  14
ENDBRANCH  12  13
ENDBRANCH  11  12
ENDBRANCH  10  11
ENDBRANCH   9  10
ENDBRANCH   7   9
ENDBRANCH   2   5
BRANCH   1  16
ATOM     16  C   UNL d   1      27.690 -16.140  -0.305  0.00  0.00     0.114 C 
ATOM     17  C   UNL d   1      28.798 -17.202  -0.508  0.00  0.00     0.037 C 
BRANCH  16  18
ATOM     18  C   UNL d   1      26.300 -16.775  -0.479  0.00  0.00    -0.036 C 
ATOM     19  C   UNL d   1      25.357 -16.198  -1.337  0.00  0.00     0.009 C 
ATOM     20  C   UNL d   1      24.006 -16.511  -1.286  0.00  0.00     0.001 C 
ATOM     21  C   UNL d   1      23.601 -17.617  -0.567  0.00  0.00     0.000 C 
ATOM     22  C   UNL d   1      24.545 -18.354   0.138  0.00  0.00     0.001 C 
ATOM     23  C   UNL d   1      25.875 -17.925   0.204  0.00  0.00     0.009 C 
ENDBRANCH  16  18
ENDBRANCH   1  16
TORSDOF 9
ENDMDL
MODEL 4
REMARK VINA RESULT:    -6.012      3.499      7.890
REMARK INTER + INTRA:         -12.178
REMARK INTER:                  -8.696
REMARK INTRA:                  -3.482
REMARK CONF_INDEPENDENT:        2.685
REMARK UNBOUND:                -3.482
REMARK  9 active torsions:
REMARK  status: ('A' for Active; 'I' for Inactive)
REMARK    1  A    between atoms: C_2  and  C_15 
REMARK    2  A    between atoms: C_2  and  N_3 
REMARK       I    between atoms: N_3  and  C_4 
REMARK    3  A    between atoms: C_4  and  C_6 
REMARK       I    between atoms: C_6  and  N_8 
REMARK    4  A    between atoms: N_8  and  C_9 
REMARK    5  A    between atoms: C_9  and  C_10 
REMARK    6  A    between atoms: C_10  and  C_11 
REMARK    7  A    between atoms: C_11  and  C_12 
REMARK    8  A    between atoms: C_12  and  C_13 
REMARK    9  A    between atoms: C_13  and  O_14 
ROOT
ATOM      1  N   UNL d   1      26.089 -15.486  -1.740  0.00  0.00    -0.345 N 
ATOM      2  C   UNL d   1      25.798 -15.041  -3.022  0.00  0.00     0.309 C 
ATOM      3  O   UNL d   1      25.530 -15.729  -4.006  0.00  0.00    -0.262 OA
ATOM      4  H   UNL d   1      26.524 -14.797  -1.132  0.00  0.00     0.163 HD
ENDROOT
BRANCH   2   5
ATOM      5  C   UNL d   1      25.800 -13.520  -3.268  0.00  0.00     0.309 C 
ATOM      6  O   UNL d   1      25.936 -12.738  -2.336  0.00  0.00    -0.262 OA
ATOM      7  N   UNL d   1      25.681 -13.186  -4.611  0.00  0.00    -0.353 N 
ATOM      8  H   UNL d   1      25.617 -13.964  -5.266  0.00  0.00     0.162 HD
BRANCH   7   9
ATOM      9  C   UNL d   1      25.897 -11.840  -5.084  0.00  0.00     0.123 C 
BRANCH   9  10
ATOM     10  C   UNL d   1      27.317 -11.583  -5.590  0.00  0.00     0.020 C 
BRANCH  10  11
ATOM     11  C   UNL d   1      27.780 -12.745  -6.474  0.00  0.00     0.004 C 
BRANCH  11  12
ATOM     12  C   UNL d   1      28.900 -13.546  -5.817  0.00  0.00     0.026 C 
BRANCH  12  13
ATOM     13  C   UNL d   1      28.435 -14.956  -5.475  0.00  0.00     0.164 C 
BRANCH  13  14
ATOM     14  O   UNL d   1      27.164 -15.200  -6.061  0.00  0.00    -0.401 OA
ATOM     15  H   UNL d   1      26.555 -15.450  -5.346  0.00  0.00     0.209 HD
ENDBRANCH  13  14
ENDBRANCH  12  13
ENDBRANCH  11  12
ENDBRANCH  10  11
ENDBRANCH   9  10
ENDBRANCH   7   9
ENDBRANCH   2   5
BRANCH   1  16
ATOM     16  C   UNL d   1      25.988 -16.892  -1.262  0.00  0.00     0.114 C 
ATOM     17  C   UNL d   1      26.934 -17.098  -0.053  0.00  0.00     0.037 C 
BRANCH  16  18
ATOM     18  C   UNL d   1      24.544 -17.263  -0.882  0.00  0.00    -0.036 C 
ATOM     19  C   UNL d   1      24.220 -18.575  -0.520  0.00  0.00     0.009 C 
ATOM     20  C   UNL d   1      22.915 -19.046  -0.496  0.00  0.00     0.001 C 
ATOM     21  C   UNL d   1      21.876 -18.141  -0.561  0.00  0.00     0.000 C 
ATOM     22  C   UNL d   1      22.157 -16.789  -0.710  0.00  0.00     0.001 C 
ATOM     23  C   UNL d   1      23.475 -16.355  -0.895  0.00  0.00     0.009 C 
ENDBRANCH  16  18
ENDBRANCH   1  16
TORSDOF 9
ENDMDL
MODEL 5
REMARK VINA RESULT:    -5.777      9.945     12.932
REMARK INTER + INTRA:         -11.619
REMARK INTER:                  -8.461
REMARK INTRA:                  -3.158
REMARK CONF_INDEPENDENT:        2.685
REMARK UNBOUND:                -3.158
REMARK  9 active torsions:
REMARK  status: ('A' for Active; 'I' for Inactive)
REMARK    1  A    between atoms: C_2  and  C_15 
REMARK    2  A    between atoms: C_2  and  N_3 
REMARK       I    between atoms: N_3  and  C_4 
REMARK    3  A    between atoms: C_4  and  C_6 
REMARK       I    between atoms: C_6  and  N_8 
REMARK    4  A    between atoms: N_8  and  C_9 
REMARK    5  A    between atoms: C_9  and  C_10 
REMARK    6  A    between atoms: C_10  and  C_11 
REMARK    7  A    between atoms: C_11  and  C_12 
REMARK    8  A    between atoms: C_12  and  C_13 
REMARK    9  A    between atoms: C_13  and  O_14 
ROOT
ATOM      1  N   UNL d   1      33.155 -21.516   4.607  0.00  0.00    -0.345 N 
ATOM      2  C   UNL d   1      32.477 -20.915   3.556  0.00  0.00     0.309 C 
ATOM      3  O   UNL d   1      31.530 -20.134   3.629  0.00  0.00    -0.262 OA
ATOM      4  H   UNL d   1      33.734 -22.311   4.350  0.00  0.00     0.163 HD
ENDROOT
BRANCH   2   5
ATOM      5  C   UNL d   1      32.944 -21.243   2.125  0.00  0.00     0.309 C 
ATOM      6  O   UNL d   1      34.007 -21.821   1.932  0.00  0.00    -0.262 OA
ATOM      7  N   UNL d   1      32.030 -20.859   1.152  0.00  0.00    -0.353 N 
ATOM      8  H   UNL d   1      31.171 -20.424   1.487  0.00  0.00     0.162 HD
BRANCH   7   9
ATOM      9  C   UNL d   1      32.156 -21.280  -0.222  0.00  0.00     0.123 C 
BRANCH   9  10
ATOM     10  C   UNL d   1      32.203 -22.798  -0.402  0.00  0.00     0.020 C 
BRANCH  10  11
ATOM     11  C   UNL d   1      31.280 -23.478   0.614  0.00  0.00     0.004 C 
BRANCH  11  12
ATOM     12  C   UNL d   1      29.808 -23.276   0.267  0.00  0.00     0.026 C 
BRANCH  12  13
ATOM     13  C   UNL d   1      29.230 -22.081   1.014  0.00  0.00     0.164 C 
BRANCH  13  14
ATOM     14  O   UNL d   1      29.861 -21.952   2.281  0.00  0.00    -0.401 OA
ATOM     15  H   UNL d   1      29.875 -21.007   2.507  0.00  0.00     0.209 HD
ENDBRANCH  13  14
ENDBRANCH  12  13
ENDBRANCH  11  12
ENDBRANCH  10  11
ENDBRANCH   9  10
ENDBRANCH   7   9
ENDBRANCH   2   5
BRANCH   1  16
ATOM     16  C   UNL d   1      32.964 -21.215   6.052  0.00  0.00     0.114 C 
ATOM     17  C   UNL d   1      31.523 -21.592   6.475  0.00  0.00     0.037 C 
BRANCH  16  18
ATOM     18  C   UNL d   1      33.990 -21.953   6.929  0.00  0.00    -0.036 C 
ATOM     19  C   UNL d   1      34.148 -23.339   6.824  0.00  0.00     0.009 C 
ATOM     20  C   UNL d   1      34.791 -24.097   7.793  0.00  0.00     0.001 C 
ATOM     21  C   UNL d   1      35.540 -23.455   8.756  0.00  0.00     0.000 C 
ATOM     22  C   UNL d   1      35.586 -22.066   8.772  0.00  0.00     0.001 C 
ATOM     23  C   UNL d   1      34.799 -21.321   7.886  0.00  0.00     0.009 C 
ENDBRANCH  16  18
ENDBRANCH   1  16
TORSDOF 9
ENDMDL
MODEL 6
REMARK VINA RESULT:    -5.475      4.443      7.944
REMARK INTER + INTRA:         -11.412
REMARK INTER:                  -8.159
REMARK INTRA:                  -3.253
REMARK CONF_INDEPENDENT:        2.685
REMARK UNBOUND:                -3.253
REMARK  9 active torsions:
REMARK  status: ('A' for Active; 'I' for Inactive)
REMARK    1  A    between atoms: C_2  and  C_15 
REMARK    2  A    between atoms: C_2  and  N_3 
REMARK       I    between atoms: N_3  and  C_4 
REMARK    3  A    between atoms: C_4  and  C_6 
REMARK       I    between atoms: C_6  and  N_8 
REMARK    4  A    between atoms: N_8  and  C_9 
REMARK    5  A    between atoms: C_9  and  C_10 
REMARK    6  A    between atoms: C_10  and  C_11 
REMARK    7  A    between atoms: C_11  and  C_12 
REMARK    8  A    between atoms: C_12  and  C_13 
REMARK    9  A    between atoms: C_13  and  O_14 
ROOT
ATOM      1  N   UNL d   1      26.228 -15.367   0.286  0.00  0.00    -0.345 N 
ATOM      2  C   UNL d   1      27.282 -14.879   1.044  0.00  0.00     0.309 C 
ATOM      3  O   UNL d   1      28.340 -15.451   1.305  0.00  0.00    -0.262 OA
ATOM      4  H   UNL d   1      25.352 -14.862   0.388  0.00  0.00     0.163 HD
ENDROOT
BRANCH   2   5
ATOM      5  C   UNL d   1      27.142 -13.463   1.635  0.00  0.00     0.309 C 
ATOM      6  O   UNL d   1      26.115 -12.817   1.469  0.00  0.00    -0.262 OA
ATOM      7  N   UNL d   1      28.252 -13.068   2.372  0.00  0.00    -0.353 N 
ATOM      8  H   UNL d   1      29.009 -13.746   2.445  0.00  0.00     0.162 HD
BRANCH   7   9
ATOM      9  C   UNL d   1      28.235 -11.888   3.201  0.00  0.00     0.123 C 
BRANCH   9  10
ATOM     10  C   UNL d   1      28.739 -12.126   4.625  0.00  0.00     0.020 C 
BRANCH  10  11
ATOM     11  C   UNL d   1      27.779 -13.052   5.377  0.00  0.00     0.004 C 
BRANCH  11  12
ATOM     12  C   UNL d   1      28.014 -14.518   5.027  0.00  0.00     0.026 C 
BRANCH  12  13
ATOM     13  C   UNL d   1      29.503 -14.833   4.963  0.00  0.00     0.164 C 
BRANCH  13  14
ATOM     14  O   UNL d   1      29.943 -14.814   3.613  0.00  0.00    -0.401 OA
ATOM     15  H   UNL d   1      29.510 -15.552   3.152  0.00  0.00     0.209 HD
ENDBRANCH  13  14
ENDBRANCH  12  13
ENDBRANCH  11  12
ENDBRANCH  10  11
ENDBRANCH   9  10
ENDBRANCH   7   9
ENDBRANCH   2   5
BRANCH   1  16
ATOM     16  C   UNL d   1      26.229 -16.635  -0.494  0.00  0.00     0.114 C 
ATOM     17  C   UNL d   1      27.159 -17.666   0.192  0.00  0.00     0.037 C 
BRANCH  16  18
ATOM     18  C   UNL d   1      24.810 -17.212  -0.647  0.00  0.00    -0.036 C 
ATOM     19  C   UNL d   1      23.724 -16.367  -0.902  0.00  0.00     0.009 C 
ATOM     20  C   UNL d   1      22.407 -16.763  -0.719  0.00  0.00     0.001 C 
ATOM     21  C   UNL d   1      22.129 -18.103  -0.545  0.00  0.00     0.000 C 
ATOM     22  C   UNL d   1      23.175 -19.016  -0.497  0.00  0.00     0.001 C 
ATOM     23  C   UNL d   1      24.503 -18.575  -0.520  0.00  0.00     0.009 C 
ENDBRANCH  16  18
ENDBRANCH   1  16
TORSDOF 9
ENDMDL
MODEL 7
REMARK VINA RESULT:    -5.114      3.773      8.334
REMARK INTER + INTRA:         -10.978
REMARK INTER:                  -7.799
REMARK INTRA:                  -3.179
REMARK CONF_INDEPENDENT:        2.685
REMARK UNBOUND:                -3.179
REMARK  9 active torsions:
REMARK  status: ('A' for Active; 'I' for Inactive)
REMARK    1  A    between atoms: C_2  and  C_15 
REMARK    2  A    between atoms: C_2  and  N_3 
REMARK       I    between atoms: N_3  and  C_4 
REMARK    3  A    between atoms: C_4  and  C_6 
REMARK       I    between atoms: C_6  and  N_8 
REMARK    4  A    between atoms: N_8  and  C_9 
REMARK    5  A    between atoms: C_9  and  C_10 
REMARK    6  A    between atoms: C_10  and  C_11 
REMARK    7  A    between atoms: C_11  and  C_12 
REMARK    8  A    between atoms: C_12  and  C_13 
REMARK    9  A    between atoms: C_13  and  O_14 
ROOT
ATOM      1  N   UNL d   1      25.920 -16.140  -2.531  0.00  0.00    -0.345 N 
ATOM      2  C   UNL d   1      27.006 -15.575  -3.183  0.00  0.00     0.309 C 
ATOM      3  O   UNL d   1      28.135 -15.392  -2.730  0.00  0.00    -0.262 OA
ATOM      4  H   UNL d   1      25.019 -15.982  -2.973  0.00  0.00     0.163 HD
ENDROOT
BRANCH   2   5
ATOM      5  C   UNL d   1      26.806 -15.120  -4.642  0.00  0.00     0.309 C 
ATOM      6  O   UNL d   1      25.694 -15.140  -5.154  0.00  0.00    -0.262 OA
ATOM      7  N   UNL d   1      27.977 -14.671  -5.238  0.00  0.00    -0.353 N 
ATOM      8  H   UNL d   1      28.813 -14.683  -4.655  0.00  0.00     0.162 HD
BRANCH   7   9
ATOM      9  C   UNL d   1      27.972 -13.984  -6.506  0.00  0.00     0.123 C 
BRANCH   9  10
ATOM     10  C   UNL d   1      29.296 -14.077  -7.266  0.00  0.00     0.020 C 
BRANCH  10  11
ATOM     11  C   UNL d   1      30.346 -14.792  -6.410  0.00  0.00     0.004 C 
BRANCH  11  12
ATOM     12  C   UNL d   1      30.387 -16.290  -6.698  0.00  0.00     0.026 C 
BRANCH  12  13
ATOM     13  C   UNL d   1      30.475 -17.091  -5.405  0.00  0.00     0.164 C 
BRANCH  13  14
ATOM     14  O   UNL d   1      29.368 -16.784  -4.570  0.00  0.00    -0.401 OA
ATOM     15  H   UNL d   1      29.720 -16.508  -3.707  0.00  0.00     0.209 HD
ENDBRANCH  13  14
ENDBRANCH  12  13
ENDBRANCH  11  12
ENDBRANCH  10  11
ENDBRANCH   9  10
ENDBRANCH   7   9
ENDBRANCH   2   5
BRANCH   1  16
ATOM     16  C   UNL d   1      25.947 -16.780  -1.186  0.00  0.00     0.114 C 
ATOM     17  C   UNL d   1      26.431 -15.753  -0.133  0.00  0.00     0.037 C 
BRANCH  16  18
ATOM     18  C   UNL d   1      24.569 -17.341  -0.794  0.00  0.00    -0.036 C 
ATOM     19  C   UNL d   1      24.410 -18.703  -0.518  0.00  0.00     0.009 C 
ATOM     20  C   UNL d   1      23.169 -19.323  -0.492  0.00  0.00     0.001 C 
ATOM     21  C   UNL d   1      22.031 -18.543  -0.462  0.00  0.00     0.000 C 
ATOM     22  C   UNL d   1      22.152 -17.160  -0.520  0.00  0.00     0.001 C 
ATOM     23  C   UNL d   1      23.404 -16.564  -0.711  0.00  0.00     0.009 C 
ENDBRANCH  16  18
ENDBRANCH   1  16
TORSDOF 9
ENDMDL
MODEL 8
REMARK VINA RESULT:    -4.992      4.254      7.923
REMARK INTER + INTRA:         -11.047
REMARK INTER:                  -7.677
REMARK INTRA:                  -3.370
REMARK CONF_INDEPENDENT:        2.685
REMARK UNBOUND:                -3.370
REMARK  9 active torsions:
REMARK  status: ('A' for Active; 'I' for Inactive)
REMARK    1  A    between atoms: C_2  and  C_15 
REMARK    2  A    between atoms: C_2  and  N_3 
REMARK       I    between atoms: N_3  and  C_4 
REMARK    3  A    between atoms: C_4  and  C_6 
REMARK       I    between atoms: C_6  and  N_8 
REMARK    4  A    between atoms: N_8  and  C_9 
REMARK    5  A    between atoms: C_9  and  C_10 
REMARK    6  A    between atoms: C_10  and  C_11 
REMARK    7  A    between atoms: C_11  and  C_12 
REMARK    8  A    between atoms: C_12  and  C_13 
REMARK    9  A    between atoms: C_13  and  O_14 
ROOT
ATOM      1  N   UNL d   1      28.392 -17.173  -0.442  0.00  0.00    -0.345 N 
ATOM      2  C   UNL d   1      28.474 -16.743  -1.758  0.00  0.00     0.309 C 
ATOM      3  O   UNL d   1      27.626 -16.115  -2.391  0.00  0.00    -0.262 OA
ATOM      4  H   UNL d   1      29.071 -17.881  -0.176  0.00  0.00     0.163 HD
ENDROOT
BRANCH   2   5
ATOM      5  C   UNL d   1      29.760 -17.073  -2.540  0.00  0.00     0.309 C 
ATOM      6  O   UNL d   1      30.733 -17.548  -1.967  0.00  0.00    -0.262 OA
ATOM      7  N   UNL d   1      29.652 -16.815  -3.901  0.00  0.00    -0.353 N 
ATOM      8  H   UNL d   1      28.754 -16.456  -4.222  0.00  0.00     0.162 HD
BRANCH   7   9
ATOM      9  C   UNL d   1      30.645 -17.270  -4.843  0.00  0.00     0.123 C 
BRANCH   9  10
ATOM     10  C   UNL d   1      30.935 -16.272  -5.965  0.00  0.00     0.020 C 
BRANCH  10  11
ATOM     11  C   UNL d   1      29.625 -15.775  -6.581  0.00  0.00     0.004 C 
BRANCH  11  12
ATOM     12  C   UNL d   1      29.291 -14.354  -6.136  0.00  0.00     0.026 C 
BRANCH  12  13
ATOM     13  C   UNL d   1      27.866 -14.269  -5.605  0.00  0.00     0.164 C 
BRANCH  13  14
ATOM     14  O   UNL d   1      27.332 -15.575  -5.443  0.00  0.00    -0.401 OA
ATOM     15  H   UNL d   1      27.265 -15.748  -4.489  0.00  0.00     0.209 HD
ENDBRANCH  13  14
ENDBRANCH  12  13
ENDBRANCH  11  12
ENDBRANCH  10  11
ENDBRANCH   9  10
ENDBRANCH   7   9
ENDBRANCH   2   5
BRANCH   1  16
ATOM     16  C   UNL d   1      27.313 -16.826   0.523  0.00  0.00     0.114 C 
ATOM     17  C   UNL d   1      27.403 -15.323   0.885  0.00  0.00     0.037 C 
BRANCH  16  18
ATOM     18  C   UNL d   1      25.919 -17.160  -0.036  0.00  0.00    -0.036 C 
ATOM     19  C   UNL d   1      25.209 -16.215  -0.786  0.00  0.00     0.009 C 
ATOM     20  C   UNL d   1      23.847 -16.319  -1.026  0.00  0.00     0.001 C 
ATOM     21  C   UNL d   1      23.209 -17.513  -0.763  0.00  0.00     0.000 C 
ATOM     22  C   UNL d   1      23.931 -18.563  -0.209  0.00  0.00     0.001 C 
ATOM     23  C   UNL d   1      25.264 -18.382   0.176  0.00  0.00     0.009 C 
ENDBRANCH  16  18
ENDBRANCH   1  16
TORSDOF 9
ENDMDL
MODEL 9
REMARK VINA RESULT:    -4.983      3.428      7.215
REMARK INTER + INTRA:         -10.819
REMARK INTER:                  -7.668
REMARK INTRA:                  -3.151
REMARK CONF_INDEPENDENT:        2.685
REMARK UNBOUND:                -3.151
REMARK  9 active torsions:
REMARK  status: ('A' for Active; 'I' for Inactive)
REMARK    1  A    between atoms: C_2  and  C_15 
REMARK    2  A    between atoms: C_2  and  N_3 
REMARK       I    between atoms: N_3  and  C_4 
REMARK    3  A    between atoms: C_4  and  C_6 
REMARK       I    between atoms: C_6  and  N_8 
REMARK    4  A    between atoms: N_8  and  C_9 
REMARK    5  A    between atoms: C_9  and  C_10 
REMARK    6  A    between atoms: C_10  and  C_11 
REMARK    7  A    between atoms: C_11  and  C_12 
REMARK    8  A    between atoms: C_12  and  C_13 
REMARK    9  A    between atoms: C_13  and  O_14 
ROOT
ATOM      1  N   UNL d   1      26.453 -16.393  -0.194  0.00  0.00    -0.345 N 
ATOM      2  C   UNL d   1      26.662 -15.590  -1.305  0.00  0.00     0.309 C 
ATOM      3  O   UNL d   1      26.569 -15.915  -2.488  0.00  0.00    -0.262 OA
ATOM      4  H   UNL d   1      26.815 -16.024   0.681  0.00  0.00     0.163 HD
ENDROOT
BRANCH   2   5
ATOM      5  C   UNL d   1      27.052 -14.119  -1.061  0.00  0.00     0.309 C 
ATOM      6  O   UNL d   1      27.268 -13.712   0.074  0.00  0.00    -0.262 OA
ATOM      7  N   UNL d   1      27.162 -13.383  -2.233  0.00  0.00    -0.353 N 
ATOM      8  H   UNL d   1      26.987 -13.887  -3.101  0.00  0.00     0.162 HD
BRANCH   7   9
ATOM      9  C   UNL d   1      27.743 -12.062  -2.252  0.00  0.00     0.123 C 
BRANCH   9  10
ATOM     10  C   UNL d   1      26.824 -10.991  -2.841  0.00  0.00     0.020 C 
BRANCH  10  11
ATOM     11  C   UNL d   1      25.540 -11.632  -3.374  0.00  0.00     0.004 C 
BRANCH  11  12
ATOM     12  C   UNL d   1      25.811 -12.539  -4.570  0.00  0.00     0.026 C 
BRANCH  12  13
ATOM     13  C   UNL d   1      24.820 -13.694  -4.616  0.00  0.00     0.164 C 
BRANCH  13  14
ATOM     14  O   UNL d   1      25.517 -14.931  -4.560  0.00  0.00    -0.401 OA
ATOM     15  H   UNL d   1      25.717 -15.113  -3.627  0.00  0.00     0.209 HD
ENDBRANCH  13  14
ENDBRANCH  12  13
ENDBRANCH  11  12
ENDBRANCH  10  11
ENDBRANCH   9  10
ENDBRANCH   7   9
ENDBRANCH   2   5
BRANCH   1  16
ATOM     16  C   UNL d   1      25.923 -17.785  -0.212  0.00  0.00     0.114 C 
ATOM     17  C   UNL d   1      26.386 -18.532   1.063  0.00  0.00     0.037 C 
BRANCH  16  18
ATOM     18  C   UNL d   1      24.389 -17.810  -0.321  0.00  0.00    -0.036 C 
ATOM     19  C   UNL d   1      23.685 -19.007  -0.152  0.00  0.00     0.009 C 
ATOM     20  C   UNL d   1      22.369 -19.167  -0.562  0.00  0.00     0.001 C 
ATOM     21  C   UNL d   1      21.631 -18.051  -0.896  0.00  0.00     0.000 C 
ATOM     22  C   UNL d   1      22.237 -16.801  -0.873  0.00  0.00     0.001 C 
ATOM     23  C   UNL d   1      23.608 -16.683  -0.615  0.00  0.00     0.009 C 
ENDBRANCH  16  18
ENDBRANCH   1  16
TORSDOF 9
ENDMDL
