MODEL 1
REMARK VINA RESULT:    -8.275      0.000      0.000
REMARK INTER + INTRA:         -10.952
REMARK INTER:                 -10.064
REMARK INTRA:                  -0.888
REMARK CONF_INDEPENDENT:        1.790
REMARK UNBOUND:                -0.888
REMARK  6 active torsions:
REMARK  status: ('A' for Active; 'I' for Inactive)
REMARK    1  A    between atoms: O_2  and  C_3 
REMARK    2  A    between atoms: C_3  and  C_5 
REMARK    3  A    between atoms: C_7  and  N_8 
REMARK       I    between atoms: N_8  and  C_9 
REMARK    4  A    between atoms: C_11  and  C_9 
REMARK    5  A    between atoms: C_11  and  N_13 
REMARK       I    between atoms: N_13  and  C_14 
REMARK       I    between atoms: C_14  and  N_16 
REMARK    6  A    between atoms: N_16  and  C_17 
ROOT
ATOM      1  N   UNL d   1      26.096 -15.066  -1.603  0.00  0.00    -0.325 N 
ATOM      2  C   UNL d   1      25.463 -16.320  -1.618  0.00  0.00     0.244 C 
ATOM      3  O   UNL d   1      24.804 -16.780  -2.553  0.00  0.00    -0.271 OA
ATOM      4  H   UNL d   1      26.570 -14.806  -0.745  0.00  0.00     0.169 HD
ENDROOT
BRANCH   2   5
ATOM      5  C   UNL d   1      25.416 -17.101  -0.287  0.00  0.00     0.174 C 
ATOM      6  C   UNL d   1      26.847 -17.249   0.230  0.00  0.00     0.042 C 
BRANCH   5   7
ATOM      7  N   UNL d   1      24.698 -18.376  -0.408  0.00  0.00    -0.330 N 
ATOM      8  C   UNL d   1      23.334 -18.333  -0.168  0.00  0.00     0.321 C 
ATOM      9  O   UNL d   1      22.747 -17.262  -0.048  0.00  0.00    -0.247 OA
ATOM     10  N   UNL d   1      22.717 -19.568  -0.145  0.00  0.00    -0.309 N 
ATOM     11  H   UNL d   1      23.263 -20.392   0.051  0.00  0.00     0.170 HD
ATOM     12  H   UNL d   1      25.198 -19.219  -0.166  0.00  0.00     0.165 HD
BRANCH  10  13
ATOM     13  C   UNL d   1      21.301 -19.700  -0.129  0.00  0.00     0.036 A 
ATOM     14  C   UNL d   1      20.648 -20.364   0.916  0.00  0.00     0.029 A 
ATOM     15  C   UNL d   1      19.259 -20.563   0.868  0.00  0.00     0.002 A 
ATOM     16  C   UNL d   1      18.511 -20.075  -0.205  0.00  0.00     0.000 A 
ATOM     17  C   UNL d   1      19.155 -19.415  -1.246  0.00  0.00     0.002 A 
ATOM     18  C   UNL d   1      20.539 -19.228  -1.204  0.00  0.00     0.029 A 
ENDBRANCH  10  13
ENDBRANCH   5   7
ENDBRANCH   2   5
BRANCH   1  19
ATOM     19  C   UNL d   1      26.206 -14.195  -2.732  0.00  0.00     0.035 A 
ATOM     20  C   UNL d   1      26.984 -14.524  -3.866  0.00  0.00     0.049 A 
ATOM     21  C   UNL d   1      27.082 -13.628  -4.977  0.00  0.00     0.063 A 
ATOM     22  C   UNL d   1      26.361 -12.427  -4.957  0.00  0.00     0.050 A 
ATOM     23  C   UNL d   1      25.598 -12.108  -3.843  0.00  0.00     0.027 A 
ATOM     24 CL   UNL d   1      26.280 -11.308  -6.271  0.00  0.00    -0.083 Cl
ATOM     25  C   UNL d   1      25.531 -12.974  -2.757  0.00  0.00     0.031 A 
BRANCH  21  26
ATOM     26  C   UNL d   1      27.890 -14.021  -6.165  0.00  0.00     0.294 C 
ATOM     27  O   UNL d   1      28.219 -13.218  -7.035  0.00  0.00    -0.259 OA
BRANCH  26  28
ATOM     28  O   UNL d   1      28.149 -15.352  -6.184  0.00  0.00    -0.322 OA
ATOM     29  C   UNL d   1      29.526 -15.726  -6.010  0.00  0.00     0.213 C 
ENDBRANCH  26  28
ENDBRANCH  21  26
ENDBRANCH   1  19
TORSDOF 6
ENDMDL
MODEL 2
REMARK VINA RESULT:    -7.865      1.771      2.602
REMARK INTER + INTRA:         -10.532
REMARK INTER:                  -9.655
REMARK INTRA:                  -0.877
REMARK CONF_INDEPENDENT:        1.790
REMARK UNBOUND:                -0.877
REMARK  6 active torsions:
REMARK  status: ('A' for Active; 'I' for Inactive)
REMARK    1  A    between atoms: O_2  and  C_3 
REMARK    2  A    between atoms: C_3  and  C_5 
REMARK    3  A    between atoms: C_7  and  N_8 
REMARK       I    between atoms: N_8  and  C_9 
REMARK    4  A    between atoms: C_11  and  C_9 
REMARK    5  A    between atoms: C_11  and  N_13 
REMARK       I    between atoms: N_13  and  C_14 
REMARK       I    between atoms: C_14  and  N_16 
REMARK    6  A    between atoms: N_16  and  C_17 
ROOT
ATOM      1  N   UNL d   1      26.443 -15.511  -3.120  0.00  0.00    -0.325 N 
ATOM      2  C   UNL d   1      25.167 -15.472  -2.533  0.00  0.00     0.244 C 
ATOM      3  O   UNL d   1      24.291 -14.639  -2.776  0.00  0.00    -0.271 OA
ATOM      4  H   UNL d   1      27.074 -16.234  -2.791  0.00  0.00     0.169 HD
ENDROOT
BRANCH   2   5
ATOM      5  C   UNL d   1      24.911 -16.423  -1.343  0.00  0.00     0.174 C 
ATOM      6  C   UNL d   1      26.263 -16.857  -0.780  0.00  0.00     0.042 C 
BRANCH   5   7
ATOM      7  N   UNL d   1      24.032 -17.544  -1.698  0.00  0.00    -0.330 N 
ATOM      8  C   UNL d   1      23.012 -17.827  -0.803  0.00  0.00     0.321 C 
ATOM      9  O   UNL d   1      22.757 -17.066   0.125  0.00  0.00    -0.247 OA
ATOM     10  N   UNL d   1      22.298 -18.973  -1.091  0.00  0.00    -0.309 N 
ATOM     11  H   UNL d   1      22.722 -19.692  -1.656  0.00  0.00     0.170 HD
ATOM     12  H   UNL d   1      24.437 -18.309  -2.216  0.00  0.00     0.165 HD
BRANCH  10  13
ATOM     13  C   UNL d   1      21.091 -19.297  -0.413  0.00  0.00     0.036 A 
ATOM     14  C   UNL d   1      21.030 -19.312   0.986  0.00  0.00     0.029 A 
ATOM     15  C   UNL d   1      19.855 -19.722   1.637  0.00  0.00     0.002 A 
ATOM     16  C   UNL d   1      18.729 -20.089   0.899  0.00  0.00     0.000 A 
ATOM     17  C   UNL d   1      18.785 -20.076  -0.491  0.00  0.00     0.002 A 
ATOM     18  C   UNL d   1      19.957 -19.679  -1.138  0.00  0.00     0.029 A 
ENDBRANCH  10  13
ENDBRANCH   5   7
ENDBRANCH   2   5
BRANCH   1  19
ATOM     19  C   UNL d   1      26.865 -14.684  -4.208  0.00  0.00     0.035 A 
ATOM     20  C   UNL d   1      26.263 -13.435  -4.485  0.00  0.00     0.049 A 
ATOM     21  C   UNL d   1      26.701 -12.635  -5.586  0.00  0.00     0.063 A 
ATOM     22  C   UNL d   1      27.773 -13.075  -6.374  0.00  0.00     0.050 A 
ATOM     23  C   UNL d   1      28.363 -14.301  -6.098  0.00  0.00     0.027 A 
ATOM     24 CL   UNL d   1      28.493 -12.163  -7.652  0.00  0.00    -0.083 Cl
ATOM     25  C   UNL d   1      27.910 -15.084  -5.042  0.00  0.00     0.031 A 
BRANCH  21  26
ATOM     26  C   UNL d   1      26.060 -11.312  -5.831  0.00  0.00     0.294 C 
ATOM     27  O   UNL d   1      25.153 -11.158  -6.646  0.00  0.00    -0.259 OA
BRANCH  26  28
ATOM     28  O   UNL d   1      26.639 -10.326  -5.101  0.00  0.00    -0.322 OA
ATOM     29  C   UNL d   1      26.122 -10.145  -3.771  0.00  0.00     0.213 C 
ENDBRANCH  26  28
ENDBRANCH  21  26
ENDBRANCH   1  19
TORSDOF 6
ENDMDL
MODEL 3
REMARK VINA RESULT:    -7.812      1.676      2.107
REMARK INTER + INTRA:         -10.410
REMARK INTER:                  -9.602
REMARK INTRA:                  -0.808
REMARK CONF_INDEPENDENT:        1.790
REMARK UNBOUND:                -0.808
REMARK  6 active torsions:
REMARK  status: ('A' for Active; 'I' for Inactive)
REMARK    1  A    between atoms: O_2  and  C_3 
REMARK    2  A    between atoms: C_3  and  C_5 
REMARK    3  A    between atoms: C_7  and  N_8 
REMARK       I    between atoms: N_8  and  C_9 
REMARK    4  A    between atoms: C_11  and  C_9 
REMARK    5  A    between atoms: C_11  and  N_13 
REMARK       I    between atoms: N_13  and  C_14 
REMARK       I    between atoms: C_14  and  N_16 
REMARK    6  A    between atoms: N_16  and  C_17 
ROOT
ATOM      1  N   UNL d   1      26.664 -15.801  -2.994  0.00  0.00    -0.325 N 
ATOM      2  C   UNL d   1      25.329 -15.571  -2.622  0.00  0.00     0.244 C 
ATOM      3  O   UNL d   1      24.585 -14.719  -3.111  0.00  0.00    -0.271 OA
ATOM      4  H   UNL d   1      27.166 -16.513  -2.474  0.00  0.00     0.169 HD
ENDROOT
BRANCH   2   5
ATOM      5  C   UNL d   1      24.814 -16.304  -1.364  0.00  0.00     0.174 C 
ATOM      6  C   UNL d   1      26.014 -16.631  -0.477  0.00  0.00     0.042 C 
BRANCH   5   7
ATOM      7  N   UNL d   1      23.987 -17.472  -1.693  0.00  0.00    -0.330 N 
ATOM      8  C   UNL d   1      22.956 -17.758  -0.812  0.00  0.00     0.321 C 
ATOM      9  O   UNL d   1      22.648 -16.969   0.077  0.00  0.00    -0.247 OA
ATOM     10  N   UNL d   1      22.294 -18.941  -1.068  0.00  0.00    -0.309 N 
ATOM     11  H   UNL d   1      22.758 -19.666  -1.592  0.00  0.00     0.170 HD
ATOM     12  H   UNL d   1      24.434 -18.241  -2.168  0.00  0.00     0.165 HD
BRANCH  10  13
ATOM     13  C   UNL d   1      21.083 -19.283  -0.406  0.00  0.00     0.036 A 
ATOM     14  C   UNL d   1      21.010 -19.325   0.991  0.00  0.00     0.029 A 
ATOM     15  C   UNL d   1      19.831 -19.752   1.625  0.00  0.00     0.002 A 
ATOM     16  C   UNL d   1      18.714 -20.111   0.870  0.00  0.00     0.000 A 
ATOM     17  C   UNL d   1      18.782 -20.073  -0.518  0.00  0.00     0.002 A 
ATOM     18  C   UNL d   1      19.957 -19.658  -1.148  0.00  0.00     0.029 A 
ENDBRANCH  10  13
ENDBRANCH   5   7
ENDBRANCH   2   5
BRANCH   1  19
ATOM     19  C   UNL d   1      27.316 -15.188  -4.110  0.00  0.00     0.035 A 
ATOM     20  C   UNL d   1      28.494 -15.720  -4.682  0.00  0.00     0.049 A 
ATOM     21  C   UNL d   1      29.129 -15.079  -5.792  0.00  0.00     0.063 A 
ATOM     22  C   UNL d   1      28.549 -13.930  -6.346  0.00  0.00     0.050 A 
ATOM     23  C   UNL d   1      27.392 -13.411  -5.782  0.00  0.00     0.027 A 
ATOM     24 CL   UNL d   1      29.127 -13.122  -7.759  0.00  0.00    -0.083 Cl
ATOM     25  C   UNL d   1      26.798 -14.028  -4.686  0.00  0.00     0.031 A 
BRANCH  21  26
ATOM     26  C   UNL d   1      30.354 -15.684  -6.385  0.00  0.00     0.294 C 
ATOM     27  O   UNL d   1      31.414 -15.070  -6.484  0.00  0.00    -0.259 OA
BRANCH  26  28
ATOM     28  O   UNL d   1      30.128 -16.942  -6.841  0.00  0.00    -0.322 OA
ATOM     29  C   UNL d   1      31.244 -17.590  -7.473  0.00  0.00     0.213 C 
ENDBRANCH  26  28
ENDBRANCH  21  26
ENDBRANCH   1  19
TORSDOF 6
ENDMDL
MODEL 4
REMARK VINA RESULT:    -7.294      3.192      5.733
REMARK INTER + INTRA:         -10.080
REMARK INTER:                  -9.084
REMARK INTRA:                  -0.996
REMARK CONF_INDEPENDENT:        1.790
REMARK UNBOUND:                -0.996
REMARK  6 active torsions:
REMARK  status: ('A' for Active; 'I' for Inactive)
REMARK    1  A    between atoms: O_2  and  C_3 
REMARK    2  A    between atoms: C_3  and  C_5 
REMARK    3  A    between atoms: C_7  and  N_8 
REMARK       I    between atoms: N_8  and  C_9 
REMARK    4  A    between atoms: C_11  and  C_9 
REMARK    5  A    between atoms: C_11  and  N_13 
REMARK       I    between atoms: N_13  and  C_14 
REMARK       I    between atoms: C_14  and  N_16 
REMARK    6  A    between atoms: N_16  and  C_17 
ROOT
ATOM      1  N   UNL d   1      28.932 -14.446  -5.248  0.00  0.00    -0.325 N 
ATOM      2  C   UNL d   1      27.533 -14.564  -5.281  0.00  0.00     0.244 C 
ATOM      3  O   UNL d   1      26.893 -15.299  -6.036  0.00  0.00    -0.271 OA
ATOM      4  H   UNL d   1      29.317 -13.768  -4.598  0.00  0.00     0.169 HD
ENDROOT
BRANCH   2   5
ATOM      5  C   UNL d   1      26.721 -13.548  -4.449  0.00  0.00     0.174 C 
ATOM      6  C   UNL d   1      27.334 -12.163  -4.657  0.00  0.00     0.042 C 
BRANCH   5   7
ATOM      7  N   UNL d   1      26.610 -13.937  -3.038  0.00  0.00    -0.330 N 
ATOM      8  C   UNL d   1      25.695 -14.938  -2.751  0.00  0.00     0.321 C 
ATOM      9  O   UNL d   1      25.157 -15.578  -3.650  0.00  0.00    -0.247 OA
ATOM     10  N   UNL d   1      25.509 -15.177  -1.405  0.00  0.00    -0.309 N 
ATOM     11  H   UNL d   1      25.729 -14.454  -0.738  0.00  0.00     0.170 HD
ATOM     12  H   UNL d   1      26.768 -13.224  -2.342  0.00  0.00     0.165 HD
BRANCH  10  13
ATOM     13  C   UNL d   1      24.779 -16.303  -0.935  0.00  0.00     0.036 A 
ATOM     14  C   UNL d   1      25.436 -17.436  -0.441  0.00  0.00     0.029 A 
ATOM     15  C   UNL d   1      24.700 -18.572  -0.066  0.00  0.00     0.002 A 
ATOM     16  C   UNL d   1      23.308 -18.573  -0.154  0.00  0.00     0.000 A 
ATOM     17  C   UNL d   1      22.650 -17.451  -0.645  0.00  0.00     0.002 A 
ATOM     18  C   UNL d   1      23.383 -16.325  -1.028  0.00  0.00     0.029 A 
ENDBRANCH  10  13
ENDBRANCH   5   7
ENDBRANCH   2   5
BRANCH   1  19
ATOM     19  C   UNL d   1      29.838 -15.279  -5.977  0.00  0.00     0.035 A 
ATOM     20  C   UNL d   1      29.845 -16.686  -5.843  0.00  0.00     0.049 A 
ATOM     21  C   UNL d   1      30.769 -17.492  -6.579  0.00  0.00     0.063 A 
ATOM     22  C   UNL d   1      31.651 -16.879  -7.479  0.00  0.00     0.050 A 
ATOM     23  C   UNL d   1      31.641 -15.498  -7.609  0.00  0.00     0.027 A 
ATOM     24 CL   UNL d   1      32.732 -17.727  -8.526  0.00  0.00    -0.083 Cl
ATOM     25  C   UNL d   1      30.756 -14.722  -6.868  0.00  0.00     0.031 A 
BRANCH  21  26
ATOM     26  C   UNL d   1      30.728 -18.974  -6.431  0.00  0.00     0.294 C 
ATOM     27  O   UNL d   1      30.714 -19.734  -7.395  0.00  0.00    -0.259 OA
BRANCH  26  28
ATOM     28  O   UNL d   1      30.648 -19.351  -5.130  0.00  0.00    -0.322 OA
ATOM     29  C   UNL d   1      30.717 -20.765  -4.881  0.00  0.00     0.213 C 
ENDBRANCH  26  28
ENDBRANCH  21  26
ENDBRANCH   1  19
TORSDOF 6
ENDMDL
MODEL 5
REMARK VINA RESULT:    -7.258      5.228      7.724
REMARK INTER + INTRA:         -10.064
REMARK INTER:                  -9.048
REMARK INTRA:                  -1.016
REMARK CONF_INDEPENDENT:        1.790
REMARK UNBOUND:                -1.016
REMARK  6 active torsions:
REMARK  status: ('A' for Active; 'I' for Inactive)
REMARK    1  A    between atoms: O_2  and  C_3 
REMARK    2  A    between atoms: C_3  and  C_5 
REMARK    3  A    between atoms: C_7  and  N_8 
REMARK       I    between atoms: N_8  and  C_9 
REMARK    4  A    between atoms: C_11  and  C_9 
REMARK    5  A    between atoms: C_11  and  N_13 
REMARK       I    between atoms: N_13  and  C_14 
REMARK       I    between atoms: C_14  and  N_16 
REMARK    6  A    between atoms: N_16  and  C_17 
ROOT
ATOM      1  N   UNL d   1      28.978 -17.578  -0.505  0.00  0.00    -0.325 N 
ATOM      2  C   UNL d   1      29.912 -17.371  -1.533  0.00  0.00     0.244 C 
ATOM      3  O   UNL d   1      29.641 -17.105  -2.706  0.00  0.00    -0.271 OA
ATOM      4  H   UNL d   1      29.350 -17.830   0.405  0.00  0.00     0.169 HD
ENDROOT
BRANCH   2   5
ATOM      5  C   UNL d   1      31.388 -17.702  -1.220  0.00  0.00     0.174 C 
ATOM      6  C   UNL d   1      32.072 -18.109  -2.524  0.00  0.00     0.042 C 
BRANCH   5   7
ATOM      7  N   UNL d   1      31.527 -18.694  -0.147  0.00  0.00    -0.330 N 
ATOM      8  C   UNL d   1      31.152 -19.991  -0.462  0.00  0.00     0.321 C 
ATOM      9  O   UNL d   1      30.902 -20.312  -1.620  0.00  0.00    -0.247 OA
ATOM     10  N   UNL d   1      31.155 -20.864   0.606  0.00  0.00    -0.309 N 
ATOM     11  H   UNL d   1      31.072 -20.502   1.543  0.00  0.00     0.170 HD
ATOM     12  H   UNL d   1      31.393 -18.377   0.802  0.00  0.00     0.165 HD
BRANCH  10  13
ATOM     13  C   UNL d   1      31.011 -22.268   0.430  0.00  0.00     0.036 A 
ATOM     14  C   UNL d   1      29.768 -22.892   0.589  0.00  0.00     0.029 A 
ATOM     15  C   UNL d   1      29.664 -24.290   0.500  0.00  0.00     0.002 A 
ATOM     16  C   UNL d   1      30.789 -25.067   0.222  0.00  0.00     0.000 A 
ATOM     17  C   UNL d   1      32.026 -24.451   0.064  0.00  0.00     0.002 A 
ATOM     18  C   UNL d   1      32.132 -23.062   0.164  0.00  0.00     0.029 A 
ENDBRANCH  10  13
ENDBRANCH   5   7
ENDBRANCH   2   5
BRANCH   1  19
ATOM     19  C   UNL d   1      27.571 -17.354  -0.625  0.00  0.00     0.035 A 
ATOM     20  C   UNL d   1      27.022 -16.505  -1.613  0.00  0.00     0.049 A 
ATOM     21  C   UNL d   1      25.611 -16.294  -1.703  0.00  0.00     0.063 A 
ATOM     22  C   UNL d   1      24.756 -16.975  -0.826  0.00  0.00     0.050 A 
ATOM     23  C   UNL d   1      25.298 -17.809   0.142  0.00  0.00     0.027 A 
ATOM     24 CL   UNL d   1      23.031 -16.920  -0.895  0.00  0.00    -0.083 Cl
ATOM     25  C   UNL d   1      26.674 -17.986   0.238  0.00  0.00     0.031 A 
BRANCH  21  26
ATOM     26  C   UNL d   1      25.069 -15.412  -2.774  0.00  0.00     0.294 C 
ATOM     27  O   UNL d   1      24.257 -14.518  -2.547  0.00  0.00    -0.259 OA
BRANCH  26  28
ATOM     28  O   UNL d   1      25.531 -15.762  -4.000  0.00  0.00    -0.322 OA
ATOM     29  C   UNL d   1      26.483 -14.861  -4.592  0.00  0.00     0.213 C 
ENDBRANCH  26  28
ENDBRANCH  21  26
ENDBRANCH   1  19
TORSDOF 6
ENDMDL
MODEL 6
REMARK VINA RESULT:    -7.011      5.039      8.124
REMARK INTER + INTRA:         -10.451
REMARK INTER:                  -8.801
REMARK INTRA:                  -1.650
REMARK CONF_INDEPENDENT:        1.790
REMARK UNBOUND:                -1.650
REMARK  6 active torsions:
REMARK  status: ('A' for Active; 'I' for Inactive)
REMARK    1  A    between atoms: O_2  and  C_3 
REMARK    2  A    between atoms: C_3  and  C_5 
REMARK    3  A    between atoms: C_7  and  N_8 
REMARK       I    between atoms: N_8  and  C_9 
REMARK    4  A    between atoms: C_11  and  C_9 
REMARK    5  A    between atoms: C_11  and  N_13 
REMARK       I    between atoms: N_13  and  C_14 
REMARK       I    between atoms: C_14  and  N_16 
REMARK    6  A    between atoms: N_16  and  C_17 
ROOT
ATOM      1  N   UNL d   1      28.976 -16.015   0.455  0.00  0.00    -0.325 N 
ATOM      2  C   UNL d   1      30.007 -15.594  -0.402  0.00  0.00     0.244 C 
ATOM      3  O   UNL d   1      29.989 -15.663  -1.633  0.00  0.00    -0.271 OA
ATOM      4  H   UNL d   1      29.150 -15.933   1.451  0.00  0.00     0.169 HD
ENDROOT
BRANCH   2   5
ATOM      5  C   UNL d   1      31.350 -15.202   0.252  0.00  0.00     0.174 C 
ATOM      6  C   UNL d   1      32.465 -15.976  -0.449  0.00  0.00     0.042 C 
BRANCH   5   7
ATOM      7  N   UNL d   1      31.337 -15.376   1.710  0.00  0.00    -0.330 N 
ATOM      8  C   UNL d   1      30.488 -14.539   2.417  0.00  0.00     0.321 C 
ATOM      9  O   UNL d   1      29.669 -13.834   1.836  0.00  0.00    -0.247 OA
ATOM     10  N   UNL d   1      30.608 -14.626   3.789  0.00  0.00    -0.309 N 
ATOM     11  H   UNL d   1      31.464 -14.973   4.191  0.00  0.00     0.170 HD
ATOM     12  H   UNL d   1      32.194 -15.668   2.154  0.00  0.00     0.165 HD
BRANCH  10  13
ATOM     13  C   UNL d   1      29.675 -14.007   4.666  0.00  0.00     0.036 A 
ATOM     14  C   UNL d   1      28.327 -14.385   4.671  0.00  0.00     0.029 A 
ATOM     15  C   UNL d   1      27.405 -13.700   5.480  0.00  0.00     0.002 A 
ATOM     16  C   UNL d   1      27.826 -12.658   6.306  0.00  0.00     0.000 A 
ATOM     17  C   UNL d   1      29.164 -12.278   6.303  0.00  0.00     0.002 A 
ATOM     18  C   UNL d   1      30.079 -12.952   5.491  0.00  0.00     0.029 A 
ENDBRANCH  10  13
ENDBRANCH   5   7
ENDBRANCH   2   5
BRANCH   1  19
ATOM     19  C   UNL d   1      27.681 -16.442   0.023  0.00  0.00     0.035 A 
ATOM     20  C   UNL d   1      26.986 -15.802  -1.028  0.00  0.00     0.049 A 
ATOM     21  C   UNL d   1      25.688 -16.246  -1.431  0.00  0.00     0.063 A 
ATOM     22  C   UNL d   1      25.116 -17.360  -0.802  0.00  0.00     0.050 A 
ATOM     23  C   UNL d   1      25.802 -17.987   0.229  0.00  0.00     0.027 A 
ATOM     24 CL   UNL d   1      23.619 -18.087  -1.264  0.00  0.00    -0.083 Cl
ATOM     25  C   UNL d   1      27.052 -17.530   0.630  0.00  0.00     0.031 A 
BRANCH  21  26
ATOM     26  C   UNL d   1      24.998 -15.562  -2.561  0.00  0.00     0.294 C 
ATOM     27  O   UNL d   1      24.030 -14.825  -2.395  0.00  0.00    -0.259 OA
BRANCH  26  28
ATOM     28  O   UNL d   1      25.530 -15.906  -3.761  0.00  0.00    -0.322 OA
ATOM     29  C   UNL d   1      26.012 -14.818  -4.568  0.00  0.00     0.213 C 
ENDBRANCH  26  28
ENDBRANCH  21  26
ENDBRANCH   1  19
TORSDOF 6
ENDMDL
MODEL 7
REMARK VINA RESULT:    -6.965      4.013      9.090
REMARK INTER + INTRA:         -10.344
REMARK INTER:                  -8.755
REMARK INTRA:                  -1.589
REMARK CONF_INDEPENDENT:        1.790
REMARK UNBOUND:                -1.589
REMARK  6 active torsions:
REMARK  status: ('A' for Active; 'I' for Inactive)
REMARK    1  A    between atoms: O_2  and  C_3 
REMARK    2  A    between atoms: C_3  and  C_5 
REMARK    3  A    between atoms: C_7  and  N_8 
REMARK       I    between atoms: N_8  and  C_9 
REMARK    4  A    between atoms: C_11  and  C_9 
REMARK    5  A    between atoms: C_11  and  N_13 
REMARK       I    between atoms: N_13  and  C_14 
REMARK       I    between atoms: C_14  and  N_16 
REMARK    6  A    between atoms: N_16  and  C_17 
ROOT
ATOM      1  N   UNL d   1      26.453 -13.599  -3.200  0.00  0.00    -0.325 N 
ATOM      2  C   UNL d   1      25.491 -13.151  -4.121  0.00  0.00     0.244 C 
ATOM      3  O   UNL d   1      24.413 -13.700  -4.357  0.00  0.00    -0.271 OA
ATOM      4  H   UNL d   1      27.313 -13.064  -3.143  0.00  0.00     0.169 HD
ENDROOT
BRANCH   2   5
ATOM      5  C   UNL d   1      25.901 -11.995  -5.059  0.00  0.00     0.174 C 
ATOM      6  C   UNL d   1      27.404 -12.096  -5.313  0.00  0.00     0.042 C 
BRANCH   5   7
ATOM      7  N   UNL d   1      25.474 -10.683  -4.555  0.00  0.00    -0.330 N 
ATOM      8  C   UNL d   1      25.969 -10.317  -3.313  0.00  0.00     0.321 C 
ATOM      9  O   UNL d   1      26.853 -10.971  -2.767  0.00  0.00    -0.247 OA
ATOM     10  N   UNL d   1      25.435  -9.150  -2.805  0.00  0.00    -0.309 N 
ATOM     11  H   UNL d   1      24.536  -8.833  -3.130  0.00  0.00     0.170 HD
ATOM     12  H   UNL d   1      24.556 -10.358  -4.816  0.00  0.00     0.165 HD
BRANCH  10  13
ATOM     13  C   UNL d   1      25.978  -8.514  -1.654  0.00  0.00     0.036 A 
ATOM     14  C   UNL d   1      25.152  -7.863  -0.731  0.00  0.00     0.029 A 
ATOM     15  C   UNL d   1      25.714  -7.164   0.350  0.00  0.00     0.002 A 
ATOM     16  C   UNL d   1      27.098  -7.136   0.531  0.00  0.00     0.000 A 
ATOM     17  C   UNL d   1      27.922  -7.780  -0.385  0.00  0.00     0.002 A 
ATOM     18  C   UNL d   1      27.364  -8.466  -1.466  0.00  0.00     0.029 A 
ENDBRANCH  10  13
ENDBRANCH   5   7
ENDBRANCH   2   5
BRANCH   1  19
ATOM     19  C   UNL d   1      26.259 -14.675  -2.278  0.00  0.00     0.035 A 
ATOM     20  C   UNL d   1      24.987 -15.245  -2.039  0.00  0.00     0.049 A 
ATOM     21  C   UNL d   1      24.824 -16.314  -1.103  0.00  0.00     0.063 A 
ATOM     22  C   UNL d   1      25.948 -16.833  -0.448  0.00  0.00     0.050 A 
ATOM     23  C   UNL d   1      27.195 -16.272  -0.686  0.00  0.00     0.027 A 
ATOM     24 CL   UNL d   1      25.926 -18.200   0.608  0.00  0.00    -0.083 Cl
ATOM     25  C   UNL d   1      27.338 -15.215  -1.578  0.00  0.00     0.031 A 
BRANCH  21  26
ATOM     26  C   UNL d   1      23.472 -16.906  -0.897  0.00  0.00     0.294 C 
ATOM     27  O   UNL d   1      22.543 -16.275  -0.399  0.00  0.00    -0.259 OA
BRANCH  26  28
ATOM     28  O   UNL d   1      23.430 -18.211  -1.264  0.00  0.00    -0.322 OA
ATOM     29  C   UNL d   1      22.272 -18.947  -0.834  0.00  0.00     0.213 C 
ENDBRANCH  26  28
ENDBRANCH  21  26
ENDBRANCH   1  19
TORSDOF 6
ENDMDL
MODEL 8
REMARK VINA RESULT:    -6.906      3.400      5.941
REMARK INTER + INTRA:          -9.836
REMARK INTER:                  -8.695
REMARK INTRA:                  -1.140
REMARK CONF_INDEPENDENT:        1.790
REMARK UNBOUND:                -1.140
REMARK  6 active torsions:
REMARK  status: ('A' for Active; 'I' for Inactive)
REMARK    1  A    between atoms: O_2  and  C_3 
REMARK    2  A    between atoms: C_3  and  C_5 
REMARK    3  A    between atoms: C_7  and  N_8 
REMARK       I    between atoms: N_8  and  C_9 
REMARK    4  A    between atoms: C_11  and  C_9 
REMARK    5  A    between atoms: C_11  and  N_13 
REMARK       I    between atoms: N_13  and  C_14 
REMARK       I    between atoms: C_14  and  N_16 
REMARK    6  A    between atoms: N_16  and  C_17 
ROOT
ATOM      1  N   UNL d   1      28.783 -15.645  -4.405  0.00  0.00    -0.325 N 
ATOM      2  C   UNL d   1      27.853 -15.012  -5.246  0.00  0.00     0.244 C 
ATOM      3  O   UNL d   1      27.740 -15.200  -6.459  0.00  0.00    -0.271 OA
ATOM      4  H   UNL d   1      28.785 -15.359  -3.431  0.00  0.00     0.169 HD
ENDROOT
BRANCH   2   5
ATOM      5  C   UNL d   1      27.043 -13.842  -4.646  0.00  0.00     0.174 C 
ATOM      6  C   UNL d   1      27.820 -12.549  -4.894  0.00  0.00     0.042 C 
BRANCH   5   7
ATOM      7  N   UNL d   1      26.698 -14.062  -3.236  0.00  0.00    -0.330 N 
ATOM      8  C   UNL d   1      25.831 -15.113  -2.977  0.00  0.00     0.321 C 
ATOM      9  O   UNL d   1      25.530 -15.914  -3.856  0.00  0.00    -0.247 OA
ATOM     10  N   UNL d   1      25.412 -15.200  -1.665  0.00  0.00    -0.309 N 
ATOM     11  H   UNL d   1      25.440 -14.380  -1.080  0.00  0.00     0.170 HD
ATOM     12  H   UNL d   1      26.660 -13.254  -2.633  0.00  0.00     0.165 HD
BRANCH  10  13
ATOM     13  C   UNL d   1      24.702 -16.331  -1.177  0.00  0.00     0.036 A 
ATOM     14  C   UNL d   1      23.305 -16.325  -1.089  0.00  0.00     0.029 A 
ATOM     15  C   UNL d   1      22.629 -17.417  -0.520  0.00  0.00     0.002 A 
ATOM     16  C   UNL d   1      23.338 -18.528  -0.065  0.00  0.00     0.000 A 
ATOM     17  C   UNL d   1      24.726 -18.539  -0.149  0.00  0.00     0.002 A 
ATOM     18  C   UNL d   1      25.399 -17.449  -0.704  0.00  0.00     0.029 A 
ENDBRANCH  10  13
ENDBRANCH   5   7
ENDBRANCH   2   5
BRANCH   1  19
ATOM     19  C   UNL d   1      29.636 -16.723  -4.798  0.00  0.00     0.035 A 
ATOM     20  C   UNL d   1      30.030 -16.923  -6.141  0.00  0.00     0.049 A 
ATOM     21  C   UNL d   1      30.877 -18.016  -6.505  0.00  0.00     0.063 A 
ATOM     22  C   UNL d   1      31.360 -18.874  -5.508  0.00  0.00     0.050 A 
ATOM     23  C   UNL d   1      30.973 -18.674  -4.191  0.00  0.00     0.027 A 
ATOM     24 CL   UNL d   1      32.488 -20.155  -5.776  0.00  0.00    -0.083 Cl
ATOM     25  C   UNL d   1      30.126 -17.624  -3.852  0.00  0.00     0.031 A 
BRANCH  21  26
ATOM     26  C   UNL d   1      31.292 -18.179  -7.927  0.00  0.00     0.294 C 
ATOM     27  O   UNL d   1      32.032 -17.381  -8.496  0.00  0.00    -0.259 OA
BRANCH  26  28
ATOM     28  O   UNL d   1      30.708 -19.260  -8.504  0.00  0.00    -0.322 OA
ATOM     29  C   UNL d   1      31.513 -19.974  -9.457  0.00  0.00     0.213 C 
ENDBRANCH  26  28
ENDBRANCH  21  26
ENDBRANCH   1  19
TORSDOF 6
ENDMDL
MODEL 9
REMARK VINA RESULT:    -6.549      3.335      9.270
REMARK INTER + INTRA:          -9.894
REMARK INTER:                  -8.338
REMARK INTRA:                  -1.556
REMARK CONF_INDEPENDENT:        1.790
REMARK UNBOUND:                -1.556
REMARK  6 active torsions:
REMARK  status: ('A' for Active; 'I' for Inactive)
REMARK    1  A    between atoms: O_2  and  C_3 
REMARK    2  A    between atoms: C_3  and  C_5 
REMARK    3  A    between atoms: C_7  and  N_8 
REMARK       I    between atoms: N_8  and  C_9 
REMARK    4  A    between atoms: C_11  and  C_9 
REMARK    5  A    between atoms: C_11  and  N_13 
REMARK       I    between atoms: N_13  and  C_14 
REMARK       I    between atoms: C_14  and  N_16 
REMARK    6  A    between atoms: N_16  and  C_17 
ROOT
ATOM      1  N   UNL d   1      27.252 -14.337  -3.153  0.00  0.00    -0.325 N 
ATOM      2  C   UNL d   1      26.364 -13.927  -4.161  0.00  0.00     0.244 C 
ATOM      3  O   UNL d   1      25.273 -14.443  -4.410  0.00  0.00    -0.271 OA
ATOM      4  H   UNL d   1      28.134 -13.840  -3.092  0.00  0.00     0.169 HD
ENDROOT
BRANCH   2   5
ATOM      5  C   UNL d   1      26.882 -12.877  -5.170  0.00  0.00     0.174 C 
ATOM      6  C   UNL d   1      25.722 -11.949  -5.529  0.00  0.00     0.042 C 
BRANCH   5   7
ATOM      7  N   UNL d   1      27.530 -13.490  -6.336  0.00  0.00    -0.330 N 
ATOM      8  C   UNL d   1      28.730 -14.140  -6.095  0.00  0.00     0.321 C 
ATOM      9  O   UNL d   1      29.118 -14.345  -4.949  0.00  0.00    -0.247 OA
ATOM     10  N   UNL d   1      29.385 -14.576  -7.229  0.00  0.00    -0.309 N 
ATOM     11  H   UNL d   1      29.190 -14.134  -8.114  0.00  0.00     0.170 HD
ATOM     12  H   UNL d   1      27.403 -13.042  -7.231  0.00  0.00     0.165 HD
BRANCH  10  13
ATOM     13  C   UNL d   1      30.509 -15.444  -7.162  0.00  0.00     0.036 A 
ATOM     14  C   UNL d   1      31.724 -15.102  -7.768  0.00  0.00     0.029 A 
ATOM     15  C   UNL d   1      32.794 -16.012  -7.767  0.00  0.00     0.002 A 
ATOM     16  C   UNL d   1      32.667 -17.251  -7.140  0.00  0.00     0.000 A 
ATOM     17  C   UNL d   1      31.462 -17.596  -6.538  0.00  0.00     0.002 A 
ATOM     18  C   UNL d   1      30.394 -16.696  -6.548  0.00  0.00     0.029 A 
ENDBRANCH  10  13
ENDBRANCH   5   7
ENDBRANCH   2   5
BRANCH   1  19
ATOM     19  C   UNL d   1      26.955 -15.318  -2.155  0.00  0.00     0.035 A 
ATOM     20  C   UNL d   1      25.632 -15.724  -1.866  0.00  0.00     0.049 A 
ATOM     21  C   UNL d   1      25.365 -16.700  -0.856  0.00  0.00     0.063 A 
ATOM     22  C   UNL d   1      26.436 -17.295  -0.174  0.00  0.00     0.050 A 
ATOM     23  C   UNL d   1      27.733 -16.895  -0.462  0.00  0.00     0.027 A 
ATOM     24 CL   UNL d   1      26.279 -18.574   0.976  0.00  0.00    -0.083 Cl
ATOM     25  C   UNL d   1      27.979 -15.925  -1.427  0.00  0.00     0.031 A 
BRANCH  21  26
ATOM     26  C   UNL d   1      23.960 -17.122  -0.597  0.00  0.00     0.294 C 
ATOM     27  O   UNL d   1      23.059 -16.317  -0.373  0.00  0.00    -0.259 OA
BRANCH  26  28
ATOM     28  O   UNL d   1      23.831 -18.472  -0.582  0.00  0.00    -0.322 OA
ATOM     29  C   UNL d   1      22.484 -18.974  -0.571  0.00  0.00     0.213 C 
ENDBRANCH  26  28
ENDBRANCH  21  26
ENDBRANCH   1  19
TORSDOF 6
ENDMDL
