MODEL 1
REMARK VINA RESULT:    -8.587      0.000      0.000
REMARK INTER + INTRA:         -11.673
REMARK INTER:                 -10.676
REMARK INTRA:                  -0.998
REMARK CONF_INDEPENDENT:        2.088
REMARK UNBOUND:                -0.998
REMARK  7 active torsions:
REMARK  status: ('A' for Active; 'I' for Inactive)
REMARK    1  A    between atoms: C_2  and  C_3 
REMARK       I    between atoms: C_3  and  N_5 
REMARK    2  A    between atoms: N_5  and  C_6 
REMARK    3  A    between atoms: C_9  and  N_10 
REMARK    4  A    between atoms: C_11  and  N_10 
REMARK    5  A    between atoms: C_11  and  C_13 
REMARK       I    between atoms: C_13  and  N_15 
REMARK    6  A    between atoms: N_15  and  C_16 
REMARK    7  A    between atoms: C_20  and  S_21 
ROOT
ATOM      1  N   UNL d   1      27.020 -15.716  -1.618  0.00  0.00    -0.377 N 
ATOM      2  H   UNL d   1      26.771 -15.022  -2.321  0.00  0.00     0.160 HD
ENDROOT
BRANCH   1   3
ATOM      3  C   UNL d   1      25.951 -16.436  -1.078  0.00  0.00     0.029 A 
ATOM      4  C   UNL d   1      26.079 -17.704  -0.498  0.00  0.00     0.031 A 
ATOM      5  C   UNL d   1      24.977 -18.421  -0.001  0.00  0.00     0.032 A 
ATOM      6  C   UNL d   1      23.680 -17.924  -0.152  0.00  0.00     0.040 A 
ATOM      7  C   UNL d   1      23.511 -16.666  -0.760  0.00  0.00    -0.033 A 
ATOM      8  C   UNL d   1      24.647 -15.944  -1.207  0.00  0.00     0.038 A 
ATOM      9  C   UNL d   1      22.165 -16.006  -0.892  0.00  0.00     0.050 C 
BRANCH   6  10
ATOM     10  N   UNL d   1      22.596 -18.686   0.369  0.00  0.00    -0.327 N 
ATOM     11  C   UNL d   1      21.532 -19.094  -0.420  0.00  0.00     0.221 C 
ATOM     12  O   UNL d   1      21.494 -18.960  -1.647  0.00  0.00    -0.273 OA
ATOM     13  H   UNL d   1      22.775 -19.226   1.208  0.00  0.00     0.169 HD
BRANCH  11  14
ATOM     14  C   UNL d   1      20.404 -19.809   0.302  0.00  0.00     0.098 C 
ATOM     15  C   UNL d   1      19.133 -19.730  -0.545  0.00  0.00     0.014 C 
ENDBRANCH  11  14
ENDBRANCH   6  10
ENDBRANCH   1   3
BRANCH   1  16
ATOM     16  C   UNL d   1      28.246 -15.435  -0.846  0.00  0.00     0.170 C 
ATOM     17  C   UNL d   1      28.920 -16.710  -0.311  0.00  0.00     0.042 C 
BRANCH  16  18
ATOM     18  C   UNL d   1      27.965 -14.528   0.379  0.00  0.00     0.244 C 
ATOM     19  O   UNL d   1      27.230 -13.543   0.274  0.00  0.00    -0.271 OA
ATOM     20  N   UNL d   1      28.564 -14.895   1.580  0.00  0.00    -0.325 N 
ATOM     21  H   UNL d   1      29.319 -15.572   1.563  0.00  0.00     0.169 HD
BRANCH  20  22
ATOM     22  C   UNL d   1      28.299 -14.182   2.777  0.00  0.00     0.036 A 
ATOM     23  C   UNL d   1      28.251 -14.830   4.010  0.00  0.00     0.029 A 
ATOM     24  C   UNL d   1      27.978 -14.091   5.168  0.00  0.00     0.004 A 
ATOM     25  C   UNL d   1      27.771 -12.707   5.096  0.00  0.00     0.018 A 
ATOM     26  C   UNL d   1      27.787 -12.048   3.864  0.00  0.00     0.002 A 
ATOM     27  C   UNL d   1      28.056 -12.802   2.722  0.00  0.00     0.048 A 
BRANCH  26  28
ATOM     28  S   UNL d   1      27.425 -10.296   3.830  0.00  0.00    -0.134 SA
ATOM     29  C   UNL d   1      26.261 -10.134   2.439  0.00  0.00     0.095 C 
ENDBRANCH  26  28
ENDBRANCH  20  22
ENDBRANCH  16  18
ENDBRANCH   1  16
TORSDOF 7
ENDMDL
MODEL 2
REMARK VINA RESULT:    -8.508      4.787      7.364
REMARK INTER + INTRA:         -11.443
REMARK INTER:                 -10.596
REMARK INTRA:                  -0.848
REMARK CONF_INDEPENDENT:        2.088
REMARK UNBOUND:                -0.848
REMARK  7 active torsions:
REMARK  status: ('A' for Active; 'I' for Inactive)
REMARK    1  A    between atoms: C_2  and  C_3 
REMARK       I    between atoms: C_3  and  N_5 
REMARK    2  A    between atoms: N_5  and  C_6 
REMARK    3  A    between atoms: C_9  and  N_10 
REMARK    4  A    between atoms: C_11  and  N_10 
REMARK    5  A    between atoms: C_11  and  C_13 
REMARK       I    between atoms: C_13  and  N_15 
REMARK    6  A    between atoms: N_15  and  C_16 
REMARK    7  A    between atoms: C_20  and  S_21 
ROOT
ATOM      1  N   UNL d   1      26.939 -14.570  -2.444  0.00  0.00    -0.377 N 
ATOM      2  H   UNL d   1      27.870 -14.631  -2.037  0.00  0.00     0.160 HD
ENDROOT
BRANCH   1   3
ATOM      3  C   UNL d   1      25.987 -15.439  -1.903  0.00  0.00     0.029 A 
ATOM      4  C   UNL d   1      24.605 -15.229  -1.985  0.00  0.00     0.031 A 
ATOM      5  C   UNL d   1      23.674 -16.100  -1.394  0.00  0.00     0.032 A 
ATOM      6  C   UNL d   1      24.103 -17.177  -0.614  0.00  0.00     0.040 A 
ATOM      7  C   UNL d   1      25.488 -17.398  -0.482  0.00  0.00    -0.033 A 
ATOM      8  C   UNL d   1      26.402 -16.530  -1.132  0.00  0.00     0.038 A 
ATOM      9  C   UNL d   1      26.051 -18.577   0.264  0.00  0.00     0.050 C 
BRANCH   6  10
ATOM     10  N   UNL d   1      23.123 -18.031  -0.036  0.00  0.00    -0.327 N 
ATOM     11  C   UNL d   1      22.318 -18.858  -0.803  0.00  0.00     0.221 C 
ATOM     12  O   UNL d   1      22.468 -19.033  -2.016  0.00  0.00    -0.273 OA
ATOM     13  H   UNL d   1      23.258 -18.296   0.933  0.00  0.00     0.169 HD
BRANCH  11  14
ATOM     14  C   UNL d   1      21.249 -19.631  -0.051  0.00  0.00     0.098 C 
ATOM     15  C   UNL d   1      19.884 -19.347  -0.679  0.00  0.00     0.014 C 
ENDBRANCH  11  14
ENDBRANCH   6  10
ENDBRANCH   1   3
BRANCH   1  16
ATOM     16  C   UNL d   1      26.882 -14.120  -3.849  0.00  0.00     0.170 C 
ATOM     17  C   UNL d   1      25.443 -14.014  -4.384  0.00  0.00     0.042 C 
BRANCH  16  18
ATOM     18  C   UNL d   1      27.644 -15.080  -4.797  0.00  0.00     0.244 C 
ATOM     19  O   UNL d   1      27.079 -15.574  -5.776  0.00  0.00    -0.271 OA
ATOM     20  N   UNL d   1      28.978 -15.332  -4.493  0.00  0.00    -0.325 N 
ATOM     21  H   UNL d   1      29.326 -15.081  -3.574  0.00  0.00     0.169 HD
BRANCH  20  22
ATOM     22  C   UNL d   1      29.786 -16.125  -5.346  0.00  0.00     0.036 A 
ATOM     23  C   UNL d   1      30.363 -15.594  -6.497  0.00  0.00     0.029 A 
ATOM     24  C   UNL d   1      31.148 -16.414  -7.318  0.00  0.00     0.004 A 
ATOM     25  C   UNL d   1      31.368 -17.756  -6.981  0.00  0.00     0.018 A 
ATOM     26  C   UNL d   1      30.772 -18.311  -5.846  0.00  0.00     0.002 A 
ATOM     27  C   UNL d   1      29.990 -17.479  -5.043  0.00  0.00     0.048 A 
BRANCH  26  28
ATOM     28  S   UNL d   1      31.018 -20.053  -5.520  0.00  0.00    -0.134 SA
ATOM     29  C   UNL d   1      31.153 -20.778  -7.185  0.00  0.00     0.095 C 
ENDBRANCH  26  28
ENDBRANCH  20  22
ENDBRANCH  16  18
ENDBRANCH   1  16
TORSDOF 7
ENDMDL
MODEL 3
REMARK VINA RESULT:    -7.996      4.723      6.999
REMARK INTER + INTRA:         -11.016
REMARK INTER:                 -10.084
REMARK INTRA:                  -0.932
REMARK CONF_INDEPENDENT:        2.088
REMARK UNBOUND:                -0.932
REMARK  7 active torsions:
REMARK  status: ('A' for Active; 'I' for Inactive)
REMARK    1  A    between atoms: C_2  and  C_3 
REMARK       I    between atoms: C_3  and  N_5 
REMARK    2  A    between atoms: N_5  and  C_6 
REMARK    3  A    between atoms: C_9  and  N_10 
REMARK    4  A    between atoms: C_11  and  N_10 
REMARK    5  A    between atoms: C_11  and  C_13 
REMARK       I    between atoms: C_13  and  N_15 
REMARK    6  A    between atoms: N_15  and  C_16 
REMARK    7  A    between atoms: C_20  and  S_21 
ROOT
ATOM      1  N   UNL d   1      26.850 -14.619  -2.508  0.00  0.00    -0.377 N 
ATOM      2  H   UNL d   1      27.785 -14.609  -2.105  0.00  0.00     0.160 HD
ENDROOT
BRANCH   1   3
ATOM      3  C   UNL d   1      25.945 -15.502  -1.913  0.00  0.00     0.029 A 
ATOM      4  C   UNL d   1      24.556 -15.332  -1.942  0.00  0.00     0.031 A 
ATOM      5  C   UNL d   1      23.675 -16.217  -1.297  0.00  0.00     0.032 A 
ATOM      6  C   UNL d   1      24.165 -17.266  -0.516  0.00  0.00     0.040 A 
ATOM      7  C   UNL d   1      25.560 -17.447  -0.438  0.00  0.00    -0.033 A 
ATOM      8  C   UNL d   1      26.422 -16.567  -1.140  0.00  0.00     0.038 A 
ATOM      9  C   UNL d   1      26.185 -18.596   0.306  0.00  0.00     0.050 C 
BRANCH   6  10
ATOM     10  N   UNL d   1      23.233 -18.135   0.117  0.00  0.00    -0.327 N 
ATOM     11  C   UNL d   1      22.308 -18.876  -0.600  0.00  0.00     0.221 C 
ATOM     12  O   UNL d   1      22.298 -18.959  -1.832  0.00  0.00    -0.273 OA
ATOM     13  H   UNL d   1      23.479 -18.480   1.039  0.00  0.00     0.169 HD
BRANCH  11  14
ATOM     14  C   UNL d   1      21.313 -19.676   0.223  0.00  0.00     0.098 C 
ATOM     15  C   UNL d   1      19.916 -19.514  -0.376  0.00  0.00     0.014 C 
ENDBRANCH  11  14
ENDBRANCH   6  10
ENDBRANCH   1   3
BRANCH   1  16
ATOM     16  C   UNL d   1      26.765 -14.253  -3.936  0.00  0.00     0.170 C 
ATOM     17  C   UNL d   1      25.337 -14.363  -4.497  0.00  0.00     0.042 C 
BRANCH  16  18
ATOM     18  C   UNL d   1      27.665 -15.153  -4.820  0.00  0.00     0.244 C 
ATOM     19  O   UNL d   1      27.383 -15.352  -6.004  0.00  0.00    -0.271 OA
ATOM     20  N   UNL d   1      28.794 -15.696  -4.215  0.00  0.00    -0.325 N 
ATOM     21  H   UNL d   1      28.862 -15.681  -3.203  0.00  0.00     0.169 HD
BRANCH  20  22
ATOM     22  C   UNL d   1      29.727 -16.460  -4.960  0.00  0.00     0.036 A 
ATOM     23  C   UNL d   1      30.022 -17.778  -4.618  0.00  0.00     0.029 A 
ATOM     24  C   UNL d   1      30.956 -18.497  -5.375  0.00  0.00     0.004 A 
ATOM     25  C   UNL d   1      31.581 -17.905  -6.480  0.00  0.00     0.018 A 
ATOM     26  C   UNL d   1      31.319 -16.575  -6.818  0.00  0.00     0.002 A 
ATOM     27  C   UNL d   1      30.389 -15.874  -6.049  0.00  0.00     0.048 A 
BRANCH  26  28
ATOM     28  S   UNL d   1      32.219 -15.849  -8.184  0.00  0.00    -0.134 SA
ATOM     29  C   UNL d   1      32.241 -14.074  -7.778  0.00  0.00     0.095 C 
ENDBRANCH  26  28
ENDBRANCH  20  22
ENDBRANCH  16  18
ENDBRANCH   1  16
TORSDOF 7
ENDMDL
MODEL 4
REMARK VINA RESULT:    -7.888      4.853      7.216
REMARK INTER + INTRA:         -11.006
REMARK INTER:                  -9.976
REMARK INTRA:                  -1.030
REMARK CONF_INDEPENDENT:        2.088
REMARK UNBOUND:                -1.030
REMARK  7 active torsions:
REMARK  status: ('A' for Active; 'I' for Inactive)
REMARK    1  A    between atoms: C_2  and  C_3 
REMARK       I    between atoms: C_3  and  N_5 
REMARK    2  A    between atoms: N_5  and  C_6 
REMARK    3  A    between atoms: C_9  and  N_10 
REMARK    4  A    between atoms: C_11  and  N_10 
REMARK    5  A    between atoms: C_11  and  C_13 
REMARK       I    between atoms: C_13  and  N_15 
REMARK    6  A    between atoms: N_15  and  C_16 
REMARK    7  A    between atoms: C_20  and  S_21 
ROOT
ATOM      1  N   UNL d   1      27.382 -15.916  -1.026  0.00  0.00    -0.377 N 
ATOM      2  H   UNL d   1      27.504 -14.977  -0.653  0.00  0.00     0.160 HD
ENDROOT
BRANCH   1   3
ATOM      3  C   UNL d   1      26.220 -16.579  -0.622  0.00  0.00     0.029 A 
ATOM      4  C   UNL d   1      26.212 -17.851  -0.037  0.00  0.00     0.031 A 
ATOM      5  C   UNL d   1      25.022 -18.509   0.319  0.00  0.00     0.032 A 
ATOM      6  C   UNL d   1      23.780 -17.947   0.015  0.00  0.00     0.040 A 
ATOM      7  C   UNL d   1      23.751 -16.682  -0.603  0.00  0.00    -0.033 A 
ATOM      8  C   UNL d   1      24.968 -16.021  -0.906  0.00  0.00     0.038 A 
ATOM      9  C   UNL d   1      22.466 -15.954  -0.894  0.00  0.00     0.050 C 
BRANCH   6  10
ATOM     10  N   UNL d   1      22.603 -18.651   0.397  0.00  0.00    -0.327 N 
ATOM     11  C   UNL d   1      21.652 -19.057  -0.525  0.00  0.00     0.221 C 
ATOM     12  O   UNL d   1      21.800 -18.973  -1.748  0.00  0.00    -0.273 OA
ATOM     13  H   UNL d   1      22.637 -19.161   1.273  0.00  0.00     0.169 HD
BRANCH  11  14
ATOM     14  C   UNL d   1      20.404 -19.705   0.047  0.00  0.00     0.098 C 
ATOM     15  C   UNL d   1      19.226 -19.452  -0.896  0.00  0.00     0.014 C 
ENDBRANCH  11  14
ENDBRANCH   6  10
ENDBRANCH   1   3
BRANCH   1  16
ATOM     16  C   UNL d   1      28.625 -16.642  -1.354  0.00  0.00     0.170 C 
ATOM     17  C   UNL d   1      29.865 -16.043  -0.667  0.00  0.00     0.042 C 
BRANCH  16  18
ATOM     18  C   UNL d   1      28.912 -16.642  -2.876  0.00  0.00     0.244 C 
ATOM     19  O   UNL d   1      28.234 -15.952  -3.643  0.00  0.00    -0.271 OA
ATOM     20  N   UNL d   1      29.967 -17.437  -3.315  0.00  0.00    -0.325 N 
ATOM     21  H   UNL d   1      30.343 -18.139  -2.688  0.00  0.00     0.169 HD
BRANCH  20  22
ATOM     22  C   UNL d   1      30.365 -17.439  -4.676  0.00  0.00     0.036 A 
ATOM     23  C   UNL d   1      30.693 -16.257  -5.336  0.00  0.00     0.029 A 
ATOM     24  C   UNL d   1      31.074 -16.300  -6.683  0.00  0.00     0.004 A 
ATOM     25  C   UNL d   1      31.143 -17.523  -7.363  0.00  0.00     0.018 A 
ATOM     26  C   UNL d   1      30.788 -18.713  -6.723  0.00  0.00     0.002 A 
ATOM     27  C   UNL d   1      30.407 -18.649  -5.383  0.00  0.00     0.048 A 
BRANCH  26  28
ATOM     28  S   UNL d   1      30.809 -20.230  -7.673  0.00  0.00    -0.134 SA
ATOM     29  C   UNL d   1      31.146 -19.660  -9.370  0.00  0.00     0.095 C 
ENDBRANCH  26  28
ENDBRANCH  20  22
ENDBRANCH  16  18
ENDBRANCH   1  16
TORSDOF 7
ENDMDL
MODEL 5
REMARK VINA RESULT:    -7.862      4.404      5.621
REMARK INTER + INTRA:         -11.127
REMARK INTER:                  -9.950
REMARK INTRA:                  -1.177
REMARK CONF_INDEPENDENT:        2.088
REMARK UNBOUND:                -1.177
REMARK  7 active torsions:
REMARK  status: ('A' for Active; 'I' for Inactive)
REMARK    1  A    between atoms: C_2  and  C_3 
REMARK       I    between atoms: C_3  and  N_5 
REMARK    2  A    between atoms: N_5  and  C_6 
REMARK    3  A    between atoms: C_9  and  N_10 
REMARK    4  A    between atoms: C_11  and  N_10 
REMARK    5  A    between atoms: C_11  and  C_13 
REMARK       I    between atoms: C_13  and  N_15 
REMARK    6  A    between atoms: N_15  and  C_16 
REMARK    7  A    between atoms: C_20  and  S_21 
ROOT
ATOM      1  N   UNL d   1      27.165 -15.998  -1.463  0.00  0.00    -0.377 N 
ATOM      2  H   UNL d   1      27.990 -16.011  -0.867  0.00  0.00     0.160 HD
ENDROOT
BRANCH   1   3
ATOM      3  C   UNL d   1      26.038 -16.642  -0.946  0.00  0.00     0.029 A 
ATOM      4  C   UNL d   1      26.069 -17.903  -0.340  0.00  0.00     0.031 A 
ATOM      5  C   UNL d   1      24.910 -18.542   0.132  0.00  0.00     0.032 A 
ATOM      6  C   UNL d   1      23.651 -17.971  -0.070  0.00  0.00     0.040 A 
ATOM      7  C   UNL d   1      23.579 -16.717  -0.706  0.00  0.00    -0.033 A 
ATOM      8  C   UNL d   1      24.771 -16.075  -1.127  0.00  0.00     0.038 A 
ATOM      9  C   UNL d   1      22.281 -15.979  -0.895  0.00  0.00     0.050 C 
BRANCH   6  10
ATOM     10  N   UNL d   1      22.506 -18.656   0.427  0.00  0.00    -0.327 N 
ATOM     11  C   UNL d   1      21.513 -19.140  -0.409  0.00  0.00     0.221 C 
ATOM     12  O   UNL d   1      21.594 -19.148  -1.641  0.00  0.00    -0.273 OA
ATOM     13  H   UNL d   1      22.594 -19.097   1.336  0.00  0.00     0.169 HD
BRANCH  11  14
ATOM     14  C   UNL d   1      20.306 -19.754   0.278  0.00  0.00     0.098 C 
ATOM     15  C   UNL d   1      19.105 -19.700  -0.668  0.00  0.00     0.014 C 
ENDBRANCH  11  14
ENDBRANCH   6  10
ENDBRANCH   1   3
BRANCH   1  16
ATOM     16  C   UNL d   1      27.425 -15.917  -2.914  0.00  0.00     0.170 C 
ATOM     17  C   UNL d   1      28.922 -15.791  -3.248  0.00  0.00     0.042 C 
BRANCH  16  18
ATOM     18  C   UNL d   1      26.716 -14.701  -3.563  0.00  0.00     0.244 C 
ATOM     19  O   UNL d   1      25.604 -14.827  -4.083  0.00  0.00    -0.271 OA
ATOM     20  N   UNL d   1      27.388 -13.484  -3.510  0.00  0.00    -0.325 N 
ATOM     21  H   UNL d   1      28.374 -13.479  -3.272  0.00  0.00     0.169 HD
BRANCH  20  22
ATOM     22  C   UNL d   1      26.787 -12.295  -3.996  0.00  0.00     0.036 A 
ATOM     23  C   UNL d   1      26.116 -11.421  -3.143  0.00  0.00     0.029 A 
ATOM     24  C   UNL d   1      25.529 -10.261  -3.664  0.00  0.00     0.004 A 
ATOM     25  C   UNL d   1      25.627  -9.968  -5.031  0.00  0.00     0.018 A 
ATOM     26  C   UNL d   1      26.270 -10.849  -5.903  0.00  0.00     0.002 A 
ATOM     27  C   UNL d   1      26.844 -12.001  -5.366  0.00  0.00     0.048 A 
BRANCH  26  28
ATOM     28  S   UNL d   1      26.280 -10.462  -7.651  0.00  0.00    -0.134 SA
ATOM     29  C   UNL d   1      26.381  -8.644  -7.679  0.00  0.00     0.095 C 
ENDBRANCH  26  28
ENDBRANCH  20  22
ENDBRANCH  16  18
ENDBRANCH   1  16
TORSDOF 7
ENDMDL
MODEL 6
REMARK VINA RESULT:    -7.805      5.274      7.139
REMARK INTER + INTRA:         -11.001
REMARK INTER:                  -9.893
REMARK INTRA:                  -1.108
REMARK CONF_INDEPENDENT:        2.088
REMARK UNBOUND:                -1.108
REMARK  7 active torsions:
REMARK  status: ('A' for Active; 'I' for Inactive)
REMARK    1  A    between atoms: C_2  and  C_3 
REMARK       I    between atoms: C_3  and  N_5 
REMARK    2  A    between atoms: N_5  and  C_6 
REMARK    3  A    between atoms: C_9  and  N_10 
REMARK    4  A    between atoms: C_11  and  N_10 
REMARK    5  A    between atoms: C_11  and  C_13 
REMARK       I    between atoms: C_13  and  N_15 
REMARK    6  A    between atoms: N_15  and  C_16 
REMARK    7  A    between atoms: C_20  and  S_21 
ROOT
ATOM      1  N   UNL d   1      27.153 -15.054  -2.545  0.00  0.00    -0.377 N 
ATOM      2  H   UNL d   1      27.676 -14.441  -1.923  0.00  0.00     0.160 HD
ENDROOT
BRANCH   1   3
ATOM      3  C   UNL d   1      26.158 -15.824  -1.937  0.00  0.00     0.029 A 
ATOM      4  C   UNL d   1      24.787 -15.629  -2.141  0.00  0.00     0.031 A 
ATOM      5  C   UNL d   1      23.810 -16.394  -1.480  0.00  0.00     0.032 A 
ATOM      6  C   UNL d   1      24.176 -17.331  -0.512  0.00  0.00     0.040 A 
ATOM      7  C   UNL d   1      25.547 -17.530  -0.257  0.00  0.00    -0.033 A 
ATOM      8  C   UNL d   1      26.510 -16.778  -0.975  0.00  0.00     0.038 A 
ATOM      9  C   UNL d   1      26.047 -18.575   0.704  0.00  0.00     0.050 C 
BRANCH   6  10
ATOM     10  N   UNL d   1      23.151 -18.082   0.130  0.00  0.00    -0.327 N 
ATOM     11  C   UNL d   1      22.198 -18.791  -0.583  0.00  0.00     0.221 C 
ATOM     12  O   UNL d   1      22.231 -18.952  -1.807  0.00  0.00    -0.273 OA
ATOM     13  H   UNL d   1      23.330 -18.385   1.080  0.00  0.00     0.169 HD
BRANCH  11  14
ATOM     14  C   UNL d   1      21.108 -19.455   0.241  0.00  0.00     0.098 C 
ATOM     15  C   UNL d   1      19.791 -19.413  -0.536  0.00  0.00     0.014 C 
ENDBRANCH  11  14
ENDBRANCH   6  10
ENDBRANCH   1   3
BRANCH   1  16
ATOM     16  C   UNL d   1      27.876 -15.515  -3.747  0.00  0.00     0.170 C 
ATOM     17  C   UNL d   1      29.405 -15.453  -3.585  0.00  0.00     0.042 C 
BRANCH  16  18
ATOM     18  C   UNL d   1      27.523 -14.669  -4.996  0.00  0.00     0.244 C 
ATOM     19  O   UNL d   1      27.031 -15.200  -5.995  0.00  0.00    -0.271 OA
ATOM     20  N   UNL d   1      27.774 -13.302  -4.919  0.00  0.00    -0.325 N 
ATOM     21  H   UNL d   1      28.370 -12.956  -4.175  0.00  0.00     0.169 HD
BRANCH  20  22
ATOM     22  C   UNL d   1      27.405 -12.430  -5.974  0.00  0.00     0.036 A 
ATOM     23  C   UNL d   1      26.372 -11.507  -5.823  0.00  0.00     0.029 A 
ATOM     24  C   UNL d   1      26.034 -10.668  -6.893  0.00  0.00     0.004 A 
ATOM     25  C   UNL d   1      26.736 -10.740  -8.103  0.00  0.00     0.018 A 
ATOM     26  C   UNL d   1      27.755 -11.680  -8.279  0.00  0.00     0.002 A 
ATOM     27  C   UNL d   1      28.075 -12.510  -7.204  0.00  0.00     0.048 A 
BRANCH  26  28
ATOM     28  S   UNL d   1      28.552 -11.783  -9.878  0.00  0.00    -0.134 SA
ATOM     29  C   UNL d   1      30.275 -12.200  -9.463  0.00  0.00     0.095 C 
ENDBRANCH  26  28
ENDBRANCH  20  22
ENDBRANCH  16  18
ENDBRANCH   1  16
TORSDOF 7
ENDMDL
MODEL 7
REMARK VINA RESULT:    -7.786      3.801      5.243
REMARK INTER + INTRA:         -11.001
REMARK INTER:                  -9.874
REMARK INTRA:                  -1.127
REMARK CONF_INDEPENDENT:        2.088
REMARK UNBOUND:                -1.127
REMARK  7 active torsions:
REMARK  status: ('A' for Active; 'I' for Inactive)
REMARK    1  A    between atoms: C_2  and  C_3 
REMARK       I    between atoms: C_3  and  N_5 
REMARK    2  A    between atoms: N_5  and  C_6 
REMARK    3  A    between atoms: C_9  and  N_10 
REMARK    4  A    between atoms: C_11  and  N_10 
REMARK    5  A    between atoms: C_11  and  C_13 
REMARK       I    between atoms: C_13  and  N_15 
REMARK    6  A    between atoms: N_15  and  C_16 
REMARK    7  A    between atoms: C_20  and  S_21 
ROOT
ATOM      1  N   UNL d   1      26.951 -15.748  -1.788  0.00  0.00    -0.377 N 
ATOM      2  H   UNL d   1      27.826 -15.754  -1.269  0.00  0.00     0.160 HD
ENDROOT
BRANCH   1   3
ATOM      3  C   UNL d   1      25.913 -16.500  -1.230  0.00  0.00     0.029 A 
ATOM      4  C   UNL d   1      26.082 -17.779  -0.688  0.00  0.00     0.031 A 
ATOM      5  C   UNL d   1      25.009 -18.527  -0.173  0.00  0.00     0.032 A 
ATOM      6  C   UNL d   1      23.699 -18.050  -0.266  0.00  0.00     0.040 A 
ATOM      7  C   UNL d   1      23.489 -16.779  -0.836  0.00  0.00    -0.033 A 
ATOM      8  C   UNL d   1      24.597 -16.027  -1.302  0.00  0.00     0.038 A 
ATOM      9  C   UNL d   1      22.129 -16.139  -0.905  0.00  0.00     0.050 C 
BRANCH   6  10
ATOM     10  N   UNL d   1      22.647 -18.843   0.271  0.00  0.00    -0.327 N 
ATOM     11  C   UNL d   1      21.628 -19.352  -0.518  0.00  0.00     0.221 C 
ATOM     12  O   UNL d   1      21.614 -19.287  -1.751  0.00  0.00    -0.273 OA
ATOM     13  H   UNL d   1      22.834 -19.326   1.143  0.00  0.00     0.169 HD
BRANCH  11  14
ATOM     14  C   UNL d   1      20.523 -20.090   0.216  0.00  0.00     0.098 C 
ATOM     15  C   UNL d   1      20.217 -19.367   1.529  0.00  0.00     0.014 C 
ENDBRANCH  11  14
ENDBRANCH   6  10
ENDBRANCH   1   3
BRANCH   1  16
ATOM     16  C   UNL d   1      27.071 -15.538  -3.244  0.00  0.00     0.170 C 
ATOM     17  C   UNL d   1      28.531 -15.390  -3.708  0.00  0.00     0.042 C 
BRANCH  16  18
ATOM     18  C   UNL d   1      26.321 -14.265  -3.711  0.00  0.00     0.244 C 
ATOM     19  O   UNL d   1      25.087 -14.236  -3.730  0.00  0.00    -0.271 OA
ATOM     20  N   UNL d   1      27.104 -13.177  -4.081  0.00  0.00    -0.325 N 
ATOM     21  H   UNL d   1      28.093 -13.322  -4.254  0.00  0.00     0.169 HD
BRANCH  20  22
ATOM     22  C   UNL d   1      26.514 -11.938  -4.438  0.00  0.00     0.036 A 
ATOM     23  C   UNL d   1      26.090 -11.686  -5.741  0.00  0.00     0.029 A 
ATOM     24  C   UNL d   1      25.519 -10.446  -6.055  0.00  0.00     0.004 A 
ATOM     25  C   UNL d   1      25.357  -9.467  -5.066  0.00  0.00     0.018 A 
ATOM     26  C   UNL d   1      25.804  -9.694  -3.762  0.00  0.00     0.002 A 
ATOM     27  C   UNL d   1      26.374 -10.933  -3.470  0.00  0.00     0.048 A 
BRANCH  26  28
ATOM     28  S   UNL d   1      25.652  -8.370  -2.567  0.00  0.00    -0.134 SA
ATOM     29  C   UNL d   1      26.780  -8.877  -1.231  0.00  0.00     0.095 C 
ENDBRANCH  26  28
ENDBRANCH  20  22
ENDBRANCH  16  18
ENDBRANCH   1  16
TORSDOF 7
ENDMDL
MODEL 8
REMARK VINA RESULT:    -7.540      1.464      2.213
REMARK INTER + INTRA:         -10.984
REMARK INTER:                  -9.628
REMARK INTRA:                  -1.356
REMARK CONF_INDEPENDENT:        2.088
REMARK UNBOUND:                -1.356
REMARK  7 active torsions:
REMARK  status: ('A' for Active; 'I' for Inactive)
REMARK    1  A    between atoms: C_2  and  C_3 
REMARK       I    between atoms: C_3  and  N_5 
REMARK    2  A    between atoms: N_5  and  C_6 
REMARK    3  A    between atoms: C_9  and  N_10 
REMARK    4  A    between atoms: C_11  and  N_10 
REMARK    5  A    between atoms: C_11  and  C_13 
REMARK       I    between atoms: C_13  and  N_15 
REMARK    6  A    between atoms: N_15  and  C_16 
REMARK    7  A    between atoms: C_20  and  S_21 
ROOT
ATOM      1  N   UNL d   1      28.586 -17.300  -0.142  0.00  0.00    -0.377 N 
ATOM      2  H   UNL d   1      29.087 -18.183  -0.213  0.00  0.00     0.160 HD
ENDROOT
BRANCH   1   3
ATOM      3  C   UNL d   1      27.192 -17.395  -0.128  0.00  0.00     0.029 A 
ATOM      4  C   UNL d   1      26.483 -18.329   0.637  0.00  0.00     0.031 A 
ATOM      5  C   UNL d   1      25.081 -18.427   0.596  0.00  0.00     0.032 A 
ATOM      6  C   UNL d   1      24.339 -17.644  -0.291  0.00  0.00     0.040 A 
ATOM      7  C   UNL d   1      25.023 -16.717  -1.100  0.00  0.00    -0.033 A 
ATOM      8  C   UNL d   1      26.433 -16.606  -1.000  0.00  0.00     0.038 A 
ATOM      9  C   UNL d   1      24.309 -15.769  -2.025  0.00  0.00     0.050 C 
BRANCH   6  10
ATOM     10  N   UNL d   1      22.922 -17.780  -0.295  0.00  0.00    -0.327 N 
ATOM     11  C   UNL d   1      22.256 -18.570  -1.217  0.00  0.00     0.221 C 
ATOM     12  O   UNL d   1      22.824 -19.325  -2.014  0.00  0.00    -0.273 OA
ATOM     13  H   UNL d   1      22.440 -17.592   0.578  0.00  0.00     0.169 HD
BRANCH  11  14
ATOM     14  C   UNL d   1      20.740 -18.530  -1.159  0.00  0.00     0.098 C 
ATOM     15  C   UNL d   1      20.252 -19.446  -0.036  0.00  0.00     0.014 C 
ENDBRANCH  11  14
ENDBRANCH   6  10
ENDBRANCH   1   3
BRANCH   1  16
ATOM     16  C   UNL d   1      29.286 -16.121  -0.693  0.00  0.00     0.170 C 
ATOM     17  C   UNL d   1      30.816 -16.285  -0.701  0.00  0.00     0.042 C 
BRANCH  16  18
ATOM     18  C   UNL d   1      28.976 -14.835   0.113  0.00  0.00     0.244 C 
ATOM     19  O   UNL d   1      28.993 -13.730  -0.438  0.00  0.00    -0.271 OA
ATOM     20  N   UNL d   1      28.669 -14.998   1.460  0.00  0.00    -0.325 N 
ATOM     21  H   UNL d   1      28.880 -15.884   1.906  0.00  0.00     0.169 HD
BRANCH  20  22
ATOM     22  C   UNL d   1      28.286 -13.893   2.262  0.00  0.00     0.036 A 
ATOM     23  C   UNL d   1      27.381 -12.941   1.799  0.00  0.00     0.029 A 
ATOM     24  C   UNL d   1      27.035 -11.860   2.619  0.00  0.00     0.004 A 
ATOM     25  C   UNL d   1      27.578 -11.740   3.905  0.00  0.00     0.018 A 
ATOM     26  C   UNL d   1      28.510 -12.671   4.373  0.00  0.00     0.002 A 
ATOM     27  C   UNL d   1      28.845 -13.738   3.539  0.00  0.00     0.048 A 
BRANCH  26  28
ATOM     28  S   UNL d   1      29.236 -12.412   5.988  0.00  0.00    -0.134 SA
ATOM     29  C   UNL d   1      28.918 -13.984   6.850  0.00  0.00     0.095 C 
ENDBRANCH  26  28
ENDBRANCH  20  22
ENDBRANCH  16  18
ENDBRANCH   1  16
TORSDOF 7
ENDMDL
MODEL 9
REMARK VINA RESULT:    -7.357      3.002      7.348
REMARK INTER + INTRA:         -11.090
REMARK INTER:                  -9.445
REMARK INTRA:                  -1.644
REMARK CONF_INDEPENDENT:        2.088
REMARK UNBOUND:                -1.644
REMARK  7 active torsions:
REMARK  status: ('A' for Active; 'I' for Inactive)
REMARK    1  A    between atoms: C_2  and  C_3 
REMARK       I    between atoms: C_3  and  N_5 
REMARK    2  A    between atoms: N_5  and  C_6 
REMARK    3  A    between atoms: C_9  and  N_10 
REMARK    4  A    between atoms: C_11  and  N_10 
REMARK    5  A    between atoms: C_11  and  C_13 
REMARK       I    between atoms: C_13  and  N_15 
REMARK    6  A    between atoms: N_15  and  C_16 
REMARK    7  A    between atoms: C_20  and  S_21 
ROOT
ATOM      1  N   UNL d   1      27.521 -13.316  -3.191  0.00  0.00    -0.377 N 
ATOM      2  H   UNL d   1      28.317 -13.245  -3.821  0.00  0.00     0.160 HD
ENDROOT
BRANCH   1   3
ATOM      3  C   UNL d   1      27.825 -13.675  -1.874  0.00  0.00     0.029 A 
ATOM      4  C   UNL d   1      27.708 -12.806  -0.783  0.00  0.00     0.031 A 
ATOM      5  C   UNL d   1      28.062 -13.185   0.524  0.00  0.00     0.032 A 
ATOM      6  C   UNL d   1      28.638 -14.433   0.770  0.00  0.00     0.040 A 
ATOM      7  C   UNL d   1      28.802 -15.321  -0.311  0.00  0.00    -0.033 A 
ATOM      8  C   UNL d   1      28.389 -14.928  -1.609  0.00  0.00     0.038 A 
ATOM      9  C   UNL d   1      29.332 -16.718  -0.137  0.00  0.00     0.050 C 
BRANCH   6  10
ATOM     10  N   UNL d   1      28.980 -14.771   2.110  0.00  0.00    -0.327 N 
ATOM     11  C   UNL d   1      28.166 -14.451   3.184  0.00  0.00     0.221 C 
ATOM     12  O   UNL d   1      27.030 -13.980   3.071  0.00  0.00    -0.273 OA
ATOM     13  H   UNL d   1      29.623 -15.545   2.239  0.00  0.00     0.169 HD
BRANCH  11  14
ATOM     14  C   UNL d   1      28.716 -14.785   4.560  0.00  0.00     0.098 C 
ATOM     15  C   UNL d   1      29.247 -13.509   5.215  0.00  0.00     0.014 C 
ENDBRANCH  11  14
ENDBRANCH   6  10
ENDBRANCH   1   3
BRANCH   1  16
ATOM     16  C   UNL d   1      26.233 -13.666  -3.821  0.00  0.00     0.170 C 
ATOM     17  C   UNL d   1      25.157 -12.584  -3.622  0.00  0.00     0.042 C 
BRANCH  16  18
ATOM     18  C   UNL d   1      25.651 -14.987  -3.257  0.00  0.00     0.244 C 
ATOM     19  O   UNL d   1      25.514 -15.973  -3.985  0.00  0.00    -0.271 OA
ATOM     20  N   UNL d   1      25.317 -14.998  -1.906  0.00  0.00    -0.325 N 
ATOM     21  H   UNL d   1      25.245 -14.114  -1.414  0.00  0.00     0.169 HD
BRANCH  20  22
ATOM     22  C   UNL d   1      24.861 -16.182  -1.275  0.00  0.00     0.036 A 
ATOM     23  C   UNL d   1      25.736 -17.020  -0.587  0.00  0.00     0.029 A 
ATOM     24  C   UNL d   1      25.246 -18.185   0.016  0.00  0.00     0.004 A 
ATOM     25  C   UNL d   1      23.883 -18.504  -0.054  0.00  0.00     0.018 A 
ATOM     26  C   UNL d   1      22.999 -17.690  -0.765  0.00  0.00     0.002 A 
ATOM     27  C   UNL d   1      23.506 -16.536  -1.363  0.00  0.00     0.048 A 
BRANCH  26  28
ATOM     28  S   UNL d   1      21.288 -18.200  -0.895  0.00  0.00    -0.134 SA
ATOM     29  C   UNL d   1      21.076 -19.325   0.521  0.00  0.00     0.095 C 
ENDBRANCH  26  28
ENDBRANCH  20  22
ENDBRANCH  16  18
ENDBRANCH   1  16
TORSDOF 7
ENDMDL
