MODEL 1
REMARK VINA RESULT:    -7.331      0.000      0.000
REMARK INTER + INTRA:         -12.195
REMARK INTER:                  -9.717
REMARK INTRA:                  -2.478
REMARK CONF_INDEPENDENT:        2.386
REMARK UNBOUND:                -2.478
REMARK  8 active torsions:
REMARK  status: ('A' for Active; 'I' for Inactive)
REMARK    1  A    between atoms: O_2  and  C_3 
REMARK    2  A    between atoms: C_6  and  C_5 
REMARK    3  A    between atoms: C_6  and  C_14 
REMARK    4  A    between atoms: C_6  and  C_7 
REMARK    5  A    between atoms: C_8  and  O_9 
REMARK    6  A    between atoms: C_19  and  O_20 
REMARK    7  A    between atoms: C_23  and  O_24 
REMARK    8  A    between atoms: O_24  and  C_25 
ROOT
ATOM      1  C   UNL d   1      26.929 -14.641  -2.168  0.00  0.00     0.097 C 
ENDROOT
BRANCH   1   2
ATOM      2  C   UNL d   1      28.006 -15.471  -2.782  0.00  0.00     0.033 A 
ATOM      3  C   UNL d   1      29.149 -15.962  -2.083  0.00  0.00     0.062 A 
ATOM      4  C   UNL d   1      29.509 -15.714  -0.659  0.00  0.00     0.073 C 
ATOM      5  N   UNL d   1      29.955 -16.676  -2.881  0.00  0.00    -0.177 NA
ATOM      6  N   UNL d   1      29.353 -16.613  -4.076  0.00  0.00    -0.256 N 
ATOM      7  C   UNL d   1      28.214 -15.867  -4.100  0.00  0.00     0.166 A 
ATOM      8  H   UNL d   1      29.806 -17.071  -4.866  0.00  0.00     0.191 HD
BRANCH   7   9
ATOM      9  O   UNL d   1      27.535 -15.576  -5.193  0.00  0.00    -0.345 OA
ATOM     10  H   UNL d   1      27.298 -14.629  -5.229  0.00  0.00     0.219 HD
ENDBRANCH   7   9
ENDBRANCH   1   2
BRANCH   1  11
ATOM     11  C   UNL d   1      26.378 -13.685  -3.167  0.00  0.00     0.033 A 
ATOM     12  C   UNL d   1      25.629 -13.952  -4.328  0.00  0.00     0.190 A 
ATOM     13  N   UNL d   1      25.287 -12.862  -4.999  0.00  0.00    -0.149 NA
ATOM     14  N   UNL d   1      25.871 -11.874  -4.295  0.00  0.00    -0.280 N 
ATOM     15  C   UNL d   1      26.548 -12.311  -3.188  0.00  0.00     0.035 A 
ATOM     16  H   UNL d   1      25.766 -10.927  -4.640  0.00  0.00     0.189 HD
ATOM     17  C   UNL d   1      27.311 -11.442  -2.258  0.00  0.00     0.070 C 
BRANCH  12  18
ATOM     18  O   UNL d   1      25.155 -15.121  -4.772  0.00  0.00    -0.343 OA
ATOM     19  H   UNL d   1      25.884 -15.641  -5.159  0.00  0.00     0.219 HD
ENDBRANCH  12  18
ENDBRANCH   1  11
BRANCH   1  20
ATOM     20  C   UNL d   1      25.807 -15.517  -1.643  0.00  0.00    -0.042 C 
ATOM     21  C   UNL d   1      26.125 -16.527  -0.712  0.00  0.00     0.047 C 
ATOM     22  C   UNL d   1      25.167 -17.380  -0.147  0.00  0.00     0.102 C 
ATOM     23  C   UNL d   1      23.808 -17.088  -0.426  0.00  0.00     0.102 C 
ATOM     24  C   UNL d   1      23.485 -16.138  -1.400  0.00  0.00     0.040 C 
ATOM     25  C   UNL d   1      24.465 -15.377  -2.006  0.00  0.00     0.011 C 
BRANCH  22  26
ATOM     26  O   UNL d   1      25.786 -18.206   0.761  0.00  0.00    -0.353 OA
ATOM     27  C   UNL d   1      27.047 -18.847   0.605  0.00  0.00     0.210 C 
ENDBRANCH  22  26
BRANCH  23  28
ATOM     28  O   UNL d   1      22.638 -17.471   0.206  0.00  0.00    -0.344 OA
BRANCH  28  29
ATOM     29  C   UNL d   1      21.930 -18.436  -0.520  0.00  0.00     0.121 C 
ATOM     30  C   UNL d   1      22.907 -19.325  -1.322  0.00  0.00     0.040 C 
ATOM     31  C   UNL d   1      21.024 -19.350   0.276  0.00  0.00     0.040 C 
ENDBRANCH  28  29
ENDBRANCH  23  28
ENDBRANCH   1  20
TORSDOF 8
ENDMDL
MODEL 2
REMARK VINA RESULT:    -6.946      2.898      5.983
REMARK INTER + INTRA:         -11.966
REMARK INTER:                  -9.333
REMARK INTRA:                  -2.634
REMARK CONF_INDEPENDENT:        2.386
REMARK UNBOUND:                -2.634
REMARK  8 active torsions:
REMARK  status: ('A' for Active; 'I' for Inactive)
REMARK    1  A    between atoms: O_2  and  C_3 
REMARK    2  A    between atoms: C_6  and  C_5 
REMARK    3  A    between atoms: C_6  and  C_14 
REMARK    4  A    between atoms: C_6  and  C_7 
REMARK    5  A    between atoms: C_8  and  O_9 
REMARK    6  A    between atoms: C_19  and  O_20 
REMARK    7  A    between atoms: C_23  and  O_24 
REMARK    8  A    between atoms: O_24  and  C_25 
ROOT
ATOM      1  C   UNL d   1      26.349 -15.256  -0.844  0.00  0.00     0.097 C 
ENDROOT
BRANCH   1   2
ATOM      2  C   UNL d   1      26.597 -16.654  -0.384  0.00  0.00     0.033 A 
ATOM      3  C   UNL d   1      25.577 -17.618  -0.133  0.00  0.00     0.062 A 
ATOM      4  C   UNL d   1      24.104 -17.418  -0.232  0.00  0.00     0.073 C 
ATOM      5  N   UNL d   1      26.085 -18.790   0.273  0.00  0.00    -0.177 NA
ATOM      6  N   UNL d   1      27.405 -18.565   0.314  0.00  0.00    -0.256 N 
ATOM      7  C   UNL d   1      27.776 -17.297  -0.016  0.00  0.00     0.166 A 
ATOM      8  H   UNL d   1      28.011 -19.322   0.629  0.00  0.00     0.191 HD
BRANCH   7   9
ATOM      9  O   UNL d   1      29.006 -16.831   0.075  0.00  0.00    -0.345 OA
ATOM     10  H   UNL d   1      29.286 -16.727   1.005  0.00  0.00     0.219 HD
ENDBRANCH   7   9
ENDBRANCH   1   2
BRANCH   1  11
ATOM     11  C   UNL d   1      27.130 -14.292  -0.022  0.00  0.00     0.033 A 
ATOM     12  C   UNL d   1      27.690 -14.471   1.257  0.00  0.00     0.190 A 
ATOM     13  N   UNL d   1      28.334 -13.403   1.705  0.00  0.00    -0.149 NA
ATOM     14  N   UNL d   1      28.142 -12.497   0.728  0.00  0.00    -0.280 N 
ATOM     15  C   UNL d   1      27.418 -12.974  -0.332  0.00  0.00     0.035 A 
ATOM     16  H   UNL d   1      28.534 -11.572   0.862  0.00  0.00     0.189 HD
ATOM     17  C   UNL d   1      27.030 -12.180  -1.525  0.00  0.00     0.070 C 
BRANCH  12  18
ATOM     18  O   UNL d   1      27.731 -15.575   2.010  0.00  0.00    -0.343 OA
ATOM     19  H   UNL d   1      28.640 -15.928   2.018  0.00  0.00     0.219 HD
ENDBRANCH  12  18
ENDBRANCH   1  11
BRANCH   1  20
ATOM     20  C   UNL d   1      26.731 -15.094  -2.304  0.00  0.00    -0.042 C 
ATOM     21  C   UNL d   1      28.036 -15.454  -2.699  0.00  0.00     0.047 C 
ATOM     22  C   UNL d   1      28.490 -15.364  -4.022  0.00  0.00     0.102 C 
ATOM     23  C   UNL d   1      27.524 -15.040  -5.008  0.00  0.00     0.102 C 
ATOM     24  C   UNL d   1      26.249 -14.612  -4.622  0.00  0.00     0.040 C 
ATOM     25  C   UNL d   1      25.865 -14.626  -3.295  0.00  0.00     0.011 C 
BRANCH  22  26
ATOM     26  O   UNL d   1      29.776 -15.844  -4.086  0.00  0.00    -0.353 OA
ATOM     27  C   UNL d   1      30.255 -17.067  -3.537  0.00  0.00     0.210 C 
ENDBRANCH  22  26
BRANCH  23  28
ATOM     28  O   UNL d   1      27.525 -15.200  -6.383  0.00  0.00    -0.344 OA
BRANCH  28  29
ATOM     29  C   UNL d   1      28.530 -14.452  -7.007  0.00  0.00     0.121 C 
ATOM     30  C   UNL d   1      28.534 -13.005  -6.466  0.00  0.00     0.040 C 
ATOM     31  C   UNL d   1      29.940 -14.989  -6.895  0.00  0.00     0.040 C 
ENDBRANCH  28  29
ENDBRANCH  23  28
ENDBRANCH   1  20
TORSDOF 8
ENDMDL
MODEL 3
REMARK VINA RESULT:    -6.316      3.071      4.953
REMARK INTER + INTRA:         -11.458
REMARK INTER:                  -8.703
REMARK INTRA:                  -2.756
REMARK CONF_INDEPENDENT:        2.386
REMARK UNBOUND:                -2.756
REMARK  8 active torsions:
REMARK  status: ('A' for Active; 'I' for Inactive)
REMARK    1  A    between atoms: O_2  and  C_3 
REMARK    2  A    between atoms: C_6  and  C_5 
REMARK    3  A    between atoms: C_6  and  C_14 
REMARK    4  A    between atoms: C_6  and  C_7 
REMARK    5  A    between atoms: C_8  and  O_9 
REMARK    6  A    between atoms: C_19  and  O_20 
REMARK    7  A    between atoms: C_23  and  O_24 
REMARK    8  A    between atoms: O_24  and  C_25 
ROOT
ATOM      1  C   UNL d   1      28.317 -14.191  -0.217  0.00  0.00     0.097 C 
ENDROOT
BRANCH   1   2
ATOM      2  C   UNL d   1      28.488 -14.056   1.259  0.00  0.00     0.033 A 
ATOM      3  C   UNL d   1      27.587 -13.362   2.120  0.00  0.00     0.062 A 
ATOM      4  C   UNL d   1      26.357 -12.619   1.726  0.00  0.00     0.073 C 
ATOM      5  N   UNL d   1      27.989 -13.396   3.397  0.00  0.00    -0.177 NA
ATOM      6  N   UNL d   1      29.146 -14.070   3.347  0.00  0.00    -0.256 N 
ATOM      7  C   UNL d   1      29.529 -14.448   2.096  0.00  0.00     0.166 A 
ATOM      8  H   UNL d   1      29.663 -14.201   4.216  0.00  0.00     0.191 HD
BRANCH   7   9
ATOM      9  O   UNL d   1      30.686 -15.012   1.808  0.00  0.00    -0.345 OA
ATOM     10  H   UNL d   1      30.616 -15.986   1.783  0.00  0.00     0.219 HD
ENDBRANCH   7   9
ENDBRANCH   1   2
BRANCH   1  11
ATOM     11  C   UNL d   1      29.532 -14.797  -0.828  0.00  0.00     0.033 A 
ATOM     12  C   UNL d   1      30.100 -16.064  -0.596  0.00  0.00     0.190 A 
ATOM     13  N   UNL d   1      31.189 -16.293  -1.316  0.00  0.00    -0.149 NA
ATOM     14  N   UNL d   1      31.364 -15.138  -1.983  0.00  0.00    -0.280 N 
ATOM     15  C   UNL d   1      30.402 -14.198  -1.722  0.00  0.00     0.035 A 
ATOM     16  H   UNL d   1      32.169 -15.066  -2.595  0.00  0.00     0.189 HD
ATOM     17  C   UNL d   1      30.372 -12.829  -2.291  0.00  0.00     0.070 C 
BRANCH  12  18
ATOM     18  O   UNL d   1      29.642 -17.065   0.163  0.00  0.00    -0.343 OA
ATOM     19  H   UNL d   1      29.629 -16.786   1.096  0.00  0.00     0.219 HD
ENDBRANCH  12  18
ENDBRANCH   1  11
BRANCH   1  20
ATOM     20  C   UNL d   1      27.111 -15.053  -0.542  0.00  0.00    -0.042 C 
ATOM     21  C   UNL d   1      26.368 -14.756  -1.702  0.00  0.00     0.047 C 
ATOM     22  C   UNL d   1      25.249 -15.496  -2.109  0.00  0.00     0.102 C 
ATOM     23  C   UNL d   1      24.972 -16.683  -1.385  0.00  0.00     0.102 C 
ATOM     24  C   UNL d   1      25.655 -16.950  -0.194  0.00  0.00     0.040 C 
ATOM     25  C   UNL d   1      26.695 -16.144   0.226  0.00  0.00     0.011 C 
BRANCH  22  26
ATOM     26  O   UNL d   1      24.790 -14.991  -3.302  0.00  0.00    -0.353 OA
ATOM     27  C   UNL d   1      25.578 -14.624  -4.429  0.00  0.00     0.210 C 
ENDBRANCH  22  26
BRANCH  23  28
ATOM     28  O   UNL d   1      24.207 -17.793  -1.700  0.00  0.00    -0.344 OA
BRANCH  28  29
ATOM     29  C   UNL d   1      23.140 -17.976  -0.813  0.00  0.00     0.121 C 
ATOM     30  C   UNL d   1      22.457 -16.623  -0.512  0.00  0.00     0.040 C 
ATOM     31  C   UNL d   1      22.064 -18.949  -1.242  0.00  0.00     0.040 C 
ENDBRANCH  28  29
ENDBRANCH  23  28
ENDBRANCH   1  20
TORSDOF 8
ENDMDL
MODEL 4
REMARK VINA RESULT:    -6.310      1.825      2.323
REMARK INTER + INTRA:         -11.102
REMARK INTER:                  -8.697
REMARK INTRA:                  -2.405
REMARK CONF_INDEPENDENT:        2.386
REMARK UNBOUND:                -2.405
REMARK  8 active torsions:
REMARK  status: ('A' for Active; 'I' for Inactive)
REMARK    1  A    between atoms: O_2  and  C_3 
REMARK    2  A    between atoms: C_6  and  C_5 
REMARK    3  A    between atoms: C_6  and  C_14 
REMARK    4  A    between atoms: C_6  and  C_7 
REMARK    5  A    between atoms: C_8  and  O_9 
REMARK    6  A    between atoms: C_19  and  O_20 
REMARK    7  A    between atoms: C_23  and  O_24 
REMARK    8  A    between atoms: O_24  and  C_25 
ROOT
ATOM      1  C   UNL d   1      27.537 -13.443  -3.272  0.00  0.00     0.097 C 
ENDROOT
BRANCH   1   2
ATOM      2  C   UNL d   1      28.129 -13.981  -4.531  0.00  0.00     0.033 A 
ATOM      3  C   UNL d   1      29.429 -13.656  -5.020  0.00  0.00     0.062 A 
ATOM      4  C   UNL d   1      30.407 -12.708  -4.416  0.00  0.00     0.073 C 
ATOM      5  N   UNL d   1      29.700 -14.279  -6.174  0.00  0.00    -0.177 NA
ATOM      6  N   UNL d   1      28.579 -14.964  -6.435  0.00  0.00    -0.256 N 
ATOM      7  C   UNL d   1      27.582 -14.791  -5.523  0.00  0.00     0.166 A 
ATOM      8  H   UNL d   1      28.537 -15.507  -7.297  0.00  0.00     0.191 HD
BRANCH   7   9
ATOM      9  O   UNL d   1      26.362 -15.274  -5.650  0.00  0.00    -0.345 OA
ATOM     10  H   UNL d   1      25.695 -14.562  -5.700  0.00  0.00     0.219 HD
ENDBRANCH   7   9
ENDBRANCH   1   2
BRANCH   1  11
ATOM     11  C   UNL d   1      26.946 -12.098  -3.509  0.00  0.00     0.033 A 
ATOM     12  C   UNL d   1      26.021 -11.699  -4.491  0.00  0.00     0.190 A 
ATOM     13  N   UNL d   1      25.694 -10.416  -4.420  0.00  0.00    -0.149 NA
ATOM     14  N   UNL d   1      26.462  -9.961  -3.412  0.00  0.00    -0.280 N 
ATOM     15  C   UNL d   1      27.242 -10.926  -2.833  0.00  0.00     0.035 A 
ATOM     16  H   UNL d   1      26.401  -8.976  -3.184  0.00  0.00     0.189 HD
ATOM     17  C   UNL d   1      28.207 -10.694  -1.730  0.00  0.00     0.070 C 
BRANCH  12  18
ATOM     18  O   UNL d   1      25.380 -12.447  -5.396  0.00  0.00    -0.343 OA
ATOM     19  H   UNL d   1      24.445 -12.173  -5.440  0.00  0.00     0.219 HD
ENDBRANCH  12  18
ENDBRANCH   1  11
BRANCH   1  20
ATOM     20  C   UNL d   1      26.463 -14.375  -2.741  0.00  0.00    -0.042 C 
ATOM     21  C   UNL d   1      26.854 -15.444  -1.910  0.00  0.00     0.047 C 
ATOM     22  C   UNL d   1      25.946 -16.353  -1.348  0.00  0.00     0.102 C 
ATOM     23  C   UNL d   1      24.569 -16.064  -1.517  0.00  0.00     0.102 C 
ATOM     24  C   UNL d   1      24.170 -15.052  -2.395  0.00  0.00     0.040 C 
ATOM     25  C   UNL d   1      25.099 -14.232  -3.005  0.00  0.00     0.011 C 
BRANCH  22  26
ATOM     26  O   UNL d   1      26.634 -17.232  -0.546  0.00  0.00    -0.353 OA
ATOM     27  C   UNL d   1      28.033 -17.229  -0.286  0.00  0.00     0.210 C 
ENDBRANCH  22  26
BRANCH  23  28
ATOM     28  O   UNL d   1      23.447 -16.513  -0.841  0.00  0.00    -0.344 OA
BRANCH  28  29
ATOM     29  C   UNL d   1      23.306 -17.904  -0.903  0.00  0.00     0.121 C 
ATOM     30  C   UNL d   1      24.112 -18.575   0.231  0.00  0.00     0.040 C 
ATOM     31  C   UNL d   1      21.893 -18.443  -0.846  0.00  0.00     0.040 C 
ENDBRANCH  28  29
ENDBRANCH  23  28
ENDBRANCH   1  20
TORSDOF 8
ENDMDL
MODEL 5
REMARK VINA RESULT:    -6.154      2.991      6.516
REMARK INTER + INTRA:         -11.036
REMARK INTER:                  -8.541
REMARK INTRA:                  -2.495
REMARK CONF_INDEPENDENT:        2.386
REMARK UNBOUND:                -2.495
REMARK  8 active torsions:
REMARK  status: ('A' for Active; 'I' for Inactive)
REMARK    1  A    between atoms: O_2  and  C_3 
REMARK    2  A    between atoms: C_6  and  C_5 
REMARK    3  A    between atoms: C_6  and  C_14 
REMARK    4  A    between atoms: C_6  and  C_7 
REMARK    5  A    between atoms: C_8  and  O_9 
REMARK    6  A    between atoms: C_19  and  O_20 
REMARK    7  A    between atoms: C_23  and  O_24 
REMARK    8  A    between atoms: O_24  and  C_25 
ROOT
ATOM      1  C   UNL d   1      26.760 -15.652  -1.519  0.00  0.00     0.097 C 
ENDROOT
BRANCH   1   2
ATOM      2  C   UNL d   1      26.634 -16.872  -0.670  0.00  0.00     0.033 A 
ATOM      3  C   UNL d   1      25.397 -17.471  -0.289  0.00  0.00     0.062 A 
ATOM      4  C   UNL d   1      24.025 -16.988  -0.614  0.00  0.00     0.073 C 
ATOM      5  N   UNL d   1      25.579 -18.553   0.479  0.00  0.00    -0.177 NA
ATOM      6  N   UNL d   1      26.911 -18.624   0.614  0.00  0.00    -0.256 N 
ATOM      7  C   UNL d   1      27.598 -17.622  -0.002  0.00  0.00     0.166 A 
ATOM      8  H   UNL d   1      27.295 -19.369   1.193  0.00  0.00     0.191 HD
BRANCH   7   9
ATOM      9  O   UNL d   1      28.899 -17.434   0.105  0.00  0.00    -0.345 OA
ATOM     10  H   UNL d   1      29.141 -17.075   0.980  0.00  0.00     0.219 HD
ENDBRANCH   7   9
ENDBRANCH   1   2
BRANCH   1  11
ATOM     11  C   UNL d   1      27.188 -14.487  -0.696  0.00  0.00     0.033 A 
ATOM     12  C   UNL d   1      27.590 -14.458   0.652  0.00  0.00     0.190 A 
ATOM     13  N   UNL d   1      27.915 -13.246   1.080  0.00  0.00    -0.149 NA
ATOM     14  N   UNL d   1      27.666 -12.467   0.011  0.00  0.00    -0.280 N 
ATOM     15  C   UNL d   1      27.218 -13.159  -1.083  0.00  0.00     0.035 A 
ATOM     16  H   UNL d   1      27.822 -11.471   0.110  0.00  0.00     0.189 HD
ATOM     17  C   UNL d   1      26.835 -12.547  -2.379  0.00  0.00     0.070 C 
BRANCH  12  18
ATOM     18  O   UNL d   1      27.769 -15.477   1.499  0.00  0.00    -0.343 OA
ATOM     19  H   UNL d   1      28.702 -15.758   1.476  0.00  0.00     0.219 HD
ENDBRANCH  12  18
ENDBRANCH   1  11
BRANCH   1  20
ATOM     20  C   UNL d   1      27.766 -15.873  -2.633  0.00  0.00    -0.042 C 
ATOM     21  C   UNL d   1      27.433 -15.439  -3.933  0.00  0.00     0.047 C 
ATOM     22  C   UNL d   1      28.292 -15.575  -5.032  0.00  0.00     0.102 C 
ATOM     23  C   UNL d   1      29.607 -16.031  -4.761  0.00  0.00     0.102 C 
ATOM     24  C   UNL d   1      29.926 -16.530  -3.494  0.00  0.00     0.040 C 
ATOM     25  C   UNL d   1      29.019 -16.464  -2.454  0.00  0.00     0.011 C 
BRANCH  22  26
ATOM     26  O   UNL d   1      27.701 -15.003  -6.133  0.00  0.00    -0.353 OA
ATOM     27  C   UNL d   1      28.155 -13.856  -6.843  0.00  0.00     0.210 C 
ENDBRANCH  22  26
BRANCH  23  28
ATOM     28  O   UNL d   1      30.775 -15.955  -5.500  0.00  0.00    -0.344 OA
BRANCH  28  29
ATOM     29  C   UNL d   1      30.725 -16.732  -6.662  0.00  0.00     0.121 C 
ATOM     30  C   UNL d   1      31.870 -16.335  -7.621  0.00  0.00     0.040 C 
ATOM     31  C   UNL d   1      30.780 -18.232  -6.476  0.00  0.00     0.040 C 
ENDBRANCH  28  29
ENDBRANCH  23  28
ENDBRANCH   1  20
TORSDOF 8
ENDMDL
MODEL 6
REMARK VINA RESULT:    -6.064      3.920      6.070
REMARK INTER + INTRA:         -11.039
REMARK INTER:                  -8.451
REMARK INTRA:                  -2.589
REMARK CONF_INDEPENDENT:        2.386
REMARK UNBOUND:                -2.589
REMARK  8 active torsions:
REMARK  status: ('A' for Active; 'I' for Inactive)
REMARK    1  A    between atoms: O_2  and  C_3 
REMARK    2  A    between atoms: C_6  and  C_5 
REMARK    3  A    between atoms: C_6  and  C_14 
REMARK    4  A    between atoms: C_6  and  C_7 
REMARK    5  A    between atoms: C_8  and  O_9 
REMARK    6  A    between atoms: C_19  and  O_20 
REMARK    7  A    between atoms: C_23  and  O_24 
REMARK    8  A    between atoms: O_24  and  C_25 
ROOT
ATOM      1  C   UNL d   1      25.778 -15.253  -0.883  0.00  0.00     0.097 C 
ENDROOT
BRANCH   1   2
ATOM      2  C   UNL d   1      26.538 -15.293  -2.167  0.00  0.00     0.033 A 
ATOM      3  C   UNL d   1      26.079 -14.739  -3.398  0.00  0.00     0.062 A 
ATOM      4  C   UNL d   1      24.773 -14.070  -3.654  0.00  0.00     0.073 C 
ATOM      5  N   UNL d   1      26.962 -14.923  -4.389  0.00  0.00    -0.177 NA
ATOM      6  N   UNL d   1      27.952 -15.614  -3.807  0.00  0.00    -0.256 N 
ATOM      7  C   UNL d   1      27.739 -15.914  -2.495  0.00  0.00     0.166 A 
ATOM      8  H   UNL d   1      28.742 -15.900  -4.384  0.00  0.00     0.191 HD
BRANCH   7   9
ATOM      9  O   UNL d   1      28.525 -16.685  -1.769  0.00  0.00    -0.345 OA
ATOM     10  H   UNL d   1      28.677 -16.310  -0.880  0.00  0.00     0.219 HD
ENDBRANCH   7   9
ENDBRANCH   1   2
BRANCH   1  11
ATOM     11  C   UNL d   1      25.346 -16.622  -0.491  0.00  0.00     0.033 A 
ATOM     12  C   UNL d   1      26.137 -17.733  -0.143  0.00  0.00     0.190 A 
ATOM     13  N   UNL d   1      25.429 -18.811   0.162  0.00  0.00    -0.149 NA
ATOM     14  N   UNL d   1      24.160 -18.412  -0.046  0.00  0.00    -0.280 N 
ATOM     15  C   UNL d   1      24.050 -17.108  -0.449  0.00  0.00     0.035 A 
ATOM     16  H   UNL d   1      23.424 -19.093   0.103  0.00  0.00     0.189 HD
ATOM     17  C   UNL d   1      22.777 -16.423  -0.782  0.00  0.00     0.070 C 
BRANCH  12  18
ATOM     18  O   UNL d   1      27.464 -17.807   0.005  0.00  0.00    -0.343 OA
ATOM     19  H   UNL d   1      27.881 -17.936  -0.867  0.00  0.00     0.219 HD
ENDBRANCH  12  18
ENDBRANCH   1  11
BRANCH   1  20
ATOM     20  C   UNL d   1      26.626 -14.659   0.226  0.00  0.00    -0.042 C 
ATOM     21  C   UNL d   1      26.284 -13.385   0.723  0.00  0.00     0.047 C 
ATOM     22  C   UNL d   1      26.984 -12.749   1.758  0.00  0.00     0.102 C 
ATOM     23  C   UNL d   1      27.979 -13.514   2.418  0.00  0.00     0.102 C 
ATOM     24  C   UNL d   1      28.375 -14.748   1.890  0.00  0.00     0.040 C 
ATOM     25  C   UNL d   1      27.720 -15.303   0.808  0.00  0.00     0.011 C 
BRANCH  22  26
ATOM     26  O   UNL d   1      26.368 -11.556   2.046  0.00  0.00    -0.353 OA
ATOM     27  C   UNL d   1      26.930 -10.458   2.755  0.00  0.00     0.210 C 
ENDBRANCH  22  26
BRANCH  23  28
ATOM     28  O   UNL d   1      28.595 -13.354   3.647  0.00  0.00    -0.344 OA
BRANCH  28  29
ATOM     29  C   UNL d   1      27.784 -13.765   4.710  0.00  0.00     0.121 C 
ATOM     30  C   UNL d   1      28.161 -15.199   5.147  0.00  0.00     0.040 C 
ATOM     31  C   UNL d   1      27.793 -12.890   5.944  0.00  0.00     0.040 C 
ENDBRANCH  28  29
ENDBRANCH  23  28
ENDBRANCH   1  20
TORSDOF 8
ENDMDL
MODEL 7
REMARK VINA RESULT:    -5.961      3.420      5.666
REMARK INTER + INTRA:         -11.300
REMARK INTER:                  -8.348
REMARK INTRA:                  -2.952
REMARK CONF_INDEPENDENT:        2.386
REMARK UNBOUND:                -2.952
REMARK  8 active torsions:
REMARK  status: ('A' for Active; 'I' for Inactive)
REMARK    1  A    between atoms: O_2  and  C_3 
REMARK    2  A    between atoms: C_6  and  C_5 
REMARK    3  A    between atoms: C_6  and  C_14 
REMARK    4  A    between atoms: C_6  and  C_7 
REMARK    5  A    between atoms: C_8  and  O_9 
REMARK    6  A    between atoms: C_19  and  O_20 
REMARK    7  A    between atoms: C_23  and  O_24 
REMARK    8  A    between atoms: O_24  and  C_25 
ROOT
ATOM      1  C   UNL d   1      27.326 -10.970  -4.564  0.00  0.00     0.097 C 
ENDROOT
BRANCH   1   2
ATOM      2  C   UNL d   1      27.175 -10.449  -5.954  0.00  0.00     0.033 A 
ATOM      3  C   UNL d   1      28.105  -9.582  -6.601  0.00  0.00     0.062 A 
ATOM      4  C   UNL d   1      29.350  -9.003  -6.021  0.00  0.00     0.073 C 
ATOM      5  N   UNL d   1      27.717  -9.269  -7.844  0.00  0.00    -0.177 NA
ATOM      6  N   UNL d   1      26.542  -9.899  -7.977  0.00  0.00    -0.256 N 
ATOM      7  C   UNL d   1      26.134 -10.579  -6.869  0.00  0.00     0.166 A 
ATOM      8  H   UNL d   1      26.031  -9.784  -8.851  0.00  0.00     0.191 HD
BRANCH   7   9
ATOM      9  O   UNL d   1      24.959 -11.165  -6.743  0.00  0.00    -0.345 OA
ATOM     10  H   UNL d   1      24.595 -11.055  -5.843  0.00  0.00     0.219 HD
ENDBRANCH   7   9
ENDBRANCH   1   2
BRANCH   1  11
ATOM     11  C   UNL d   1      26.726 -10.022  -3.586  0.00  0.00     0.033 A 
ATOM     12  C   UNL d   1      25.570  -9.231  -3.717  0.00  0.00     0.190 A 
ATOM     13  N   UNL d   1      25.310  -8.494  -2.646  0.00  0.00    -0.149 NA
ATOM     14  N   UNL d   1      26.344  -8.768  -1.828  0.00  0.00    -0.280 N 
ATOM     15  C   UNL d   1      27.232  -9.674  -2.345  0.00  0.00     0.035 A 
ATOM     16  H   UNL d   1      26.375  -8.290  -0.935  0.00  0.00     0.189 HD
ATOM     17  C   UNL d   1      28.476 -10.125  -1.674  0.00  0.00     0.070 C 
BRANCH  12  18
ATOM     18  O   UNL d   1      24.680  -9.200  -4.715  0.00  0.00    -0.343 OA
ATOM     19  H   UNL d   1      24.407 -10.110  -4.933  0.00  0.00     0.219 HD
ENDBRANCH  12  18
ENDBRANCH   1  11
BRANCH   1  20
ATOM     20  C   UNL d   1      26.658 -12.325  -4.422  0.00  0.00    -0.042 C 
ATOM     21  C   UNL d   1      27.222 -13.425  -5.099  0.00  0.00     0.047 C 
ATOM     22  C   UNL d   1      26.700 -14.724  -5.023  0.00  0.00     0.102 C 
ATOM     23  C   UNL d   1      25.652 -14.937  -4.092  0.00  0.00     0.102 C 
ATOM     24  C   UNL d   1      25.039 -13.845  -3.470  0.00  0.00     0.040 C 
ATOM     25  C   UNL d   1      25.524 -12.563  -3.641  0.00  0.00     0.011 C 
BRANCH  22  26
ATOM     26  O   UNL d   1      27.508 -15.572  -5.743  0.00  0.00    -0.353 OA
ATOM     27  C   UNL d   1      28.908 -15.437  -5.954  0.00  0.00     0.210 C 
ENDBRANCH  22  26
BRANCH  23  28
ATOM     28  O   UNL d   1      25.156 -16.094  -3.517  0.00  0.00    -0.344 OA
BRANCH  28  29
ATOM     29  C   UNL d   1      25.295 -16.101  -2.125  0.00  0.00     0.121 C 
ATOM     30  C   UNL d   1      24.404 -17.201  -1.504  0.00  0.00     0.040 C 
ATOM     31  C   UNL d   1      26.697 -16.285  -1.586  0.00  0.00     0.040 C 
ENDBRANCH  28  29
ENDBRANCH  23  28
ENDBRANCH   1  20
TORSDOF 8
ENDMDL
MODEL 8
REMARK VINA RESULT:    -5.840      3.495      7.047
REMARK INTER + INTRA:         -11.192
REMARK INTER:                  -8.226
REMARK INTRA:                  -2.966
REMARK CONF_INDEPENDENT:        2.386
REMARK UNBOUND:                -2.966
REMARK  8 active torsions:
REMARK  status: ('A' for Active; 'I' for Inactive)
REMARK    1  A    between atoms: O_2  and  C_3 
REMARK    2  A    between atoms: C_6  and  C_5 
REMARK    3  A    between atoms: C_6  and  C_14 
REMARK    4  A    between atoms: C_6  and  C_7 
REMARK    5  A    between atoms: C_8  and  O_9 
REMARK    6  A    between atoms: C_19  and  O_20 
REMARK    7  A    between atoms: C_23  and  O_24 
REMARK    8  A    between atoms: O_24  and  C_25 
ROOT
ATOM      1  C   UNL d   1      27.201 -13.373  -3.406  0.00  0.00     0.097 C 
ENDROOT
BRANCH   1   2
ATOM      2  C   UNL d   1      26.120 -14.238  -2.849  0.00  0.00     0.033 A 
ATOM      3  C   UNL d   1      26.314 -15.234  -1.846  0.00  0.00     0.062 A 
ATOM      4  C   UNL d   1      27.601 -15.628  -1.206  0.00  0.00     0.073 C 
ATOM      5  N   UNL d   1      25.173 -15.862  -1.536  0.00  0.00    -0.177 NA
ATOM      6  N   UNL d   1      24.271 -15.301  -2.354  0.00  0.00    -0.256 N 
ATOM      7  C   UNL d   1      24.779 -14.362  -3.199  0.00  0.00     0.166 A 
ATOM      8  H   UNL d   1      23.312 -15.645  -2.319  0.00  0.00     0.191 HD
BRANCH   7   9
ATOM      9  O   UNL d   1      24.094 -13.776  -4.162  0.00  0.00    -0.345 OA
ATOM     10  H   UNL d   1      24.223 -14.224  -5.021  0.00  0.00     0.219 HD
ENDBRANCH   7   9
ENDBRANCH   1   2
BRANCH   1  11
ATOM     11  C   UNL d   1      27.766 -13.980  -4.643  0.00  0.00     0.033 A 
ATOM     12  C   UNL d   1      27.197 -14.945  -5.494  0.00  0.00     0.190 A 
ATOM     13  N   UNL d   1      27.971 -15.266  -6.520  0.00  0.00    -0.149 NA
ATOM     14  N   UNL d   1      29.084 -14.541  -6.303  0.00  0.00    -0.280 N 
ATOM     15  C   UNL d   1      29.021 -13.755  -5.183  0.00  0.00     0.035 A 
ATOM     16  H   UNL d   1      29.847 -14.643  -6.962  0.00  0.00     0.189 HD
ATOM     17  C   UNL d   1      30.117 -12.886  -4.689  0.00  0.00     0.070 C 
BRANCH  12  18
ATOM     18  O   UNL d   1      25.976 -15.490  -5.450  0.00  0.00    -0.343 OA
ATOM     19  H   UNL d   1      25.308 -14.806  -5.638  0.00  0.00     0.219 HD
ENDBRANCH  12  18
ENDBRANCH   1  11
BRANCH   1  20
ATOM     20  C   UNL d   1      26.670 -11.988  -3.726  0.00  0.00    -0.042 C 
ATOM     21  C   UNL d   1      26.328 -11.693  -5.061  0.00  0.00     0.047 C 
ATOM     22  C   UNL d   1      25.811 -10.454  -5.466  0.00  0.00     0.102 C 
ATOM     23  C   UNL d   1      25.485  -9.533  -4.439  0.00  0.00     0.102 C 
ATOM     24  C   UNL d   1      25.884  -9.785  -3.122  0.00  0.00     0.040 C 
ATOM     25  C   UNL d   1      26.477 -10.983  -2.775  0.00  0.00     0.011 C 
BRANCH  22  26
ATOM     26  O   UNL d   1      25.527 -10.508  -6.809  0.00  0.00    -0.353 OA
ATOM     27  C   UNL d   1      26.458 -10.699  -7.868  0.00  0.00     0.210 C 
ENDBRANCH  22  26
BRANCH  23  28
ATOM     28  O   UNL d   1      24.671  -8.413  -4.435  0.00  0.00    -0.344 OA
BRANCH  28  29
ATOM     29  C   UNL d   1      24.170  -8.111  -5.706  0.00  0.00     0.121 C 
ATOM     30  C   UNL d   1      22.871  -7.282  -5.585  0.00  0.00     0.040 C 
ATOM     31  C   UNL d   1      25.102  -7.374  -6.642  0.00  0.00     0.040 C 
ENDBRANCH  28  29
ENDBRANCH  23  28
ENDBRANCH   1  20
TORSDOF 8
ENDMDL
MODEL 9
REMARK VINA RESULT:    -5.633      2.375      3.558
REMARK INTER + INTRA:         -10.991
REMARK INTER:                  -8.020
REMARK INTRA:                  -2.971
REMARK CONF_INDEPENDENT:        2.386
REMARK UNBOUND:                -2.971
REMARK  8 active torsions:
REMARK  status: ('A' for Active; 'I' for Inactive)
REMARK    1  A    between atoms: O_2  and  C_3 
REMARK    2  A    between atoms: C_6  and  C_5 
REMARK    3  A    between atoms: C_6  and  C_14 
REMARK    4  A    between atoms: C_6  and  C_7 
REMARK    5  A    between atoms: C_8  and  O_9 
REMARK    6  A    between atoms: C_19  and  O_20 
REMARK    7  A    between atoms: C_23  and  O_24 
REMARK    8  A    between atoms: O_24  and  C_25 
ROOT
ATOM      1  C   UNL d   1      28.496 -16.083   0.247  0.00  0.00     0.097 C 
ENDROOT
BRANCH   1   2
ATOM      2  C   UNL d   1      29.476 -16.496  -0.800  0.00  0.00     0.033 A 
ATOM      3  C   UNL d   1      30.852 -16.781  -0.556  0.00  0.00     0.062 A 
ATOM      4  C   UNL d   1      31.575 -16.683   0.744  0.00  0.00     0.073 C 
ATOM      5  N   UNL d   1      31.499 -17.123  -1.677  0.00  0.00    -0.177 NA
ATOM      6  N   UNL d   1      30.559 -17.025  -2.627  0.00  0.00    -0.256 N 
ATOM      7  C   UNL d   1      29.343 -16.604  -2.181  0.00  0.00     0.166 A 
ATOM      8  H   UNL d   1      30.830 -17.215  -3.591  0.00  0.00     0.191 HD
BRANCH   7   9
ATOM      9  O   UNL d   1      28.317 -16.325  -2.962  0.00  0.00    -0.345 OA
ATOM     10  H   UNL d   1      27.940 -15.447  -2.763  0.00  0.00     0.219 HD
ENDBRANCH   7   9
ENDBRANCH   1   2
BRANCH   1  11
ATOM     11  C   UNL d   1      28.415 -14.598   0.326  0.00  0.00     0.033 A 
ATOM     12  C   UNL d   1      28.417 -13.655  -0.719  0.00  0.00     0.190 A 
ATOM     13  N   UNL d   1      28.326 -12.402  -0.299  0.00  0.00    -0.149 NA
ATOM     14  N   UNL d   1      28.322 -12.527   1.042  0.00  0.00    -0.280 N 
ATOM     15  C   UNL d   1      28.383 -13.825   1.474  0.00  0.00     0.035 A 
ATOM     16  H   UNL d   1      28.282 -11.678   1.593  0.00  0.00     0.189 HD
ATOM     17  C   UNL d   1      28.430 -14.248   2.896  0.00  0.00     0.070 C 
BRANCH  12  18
ATOM     18  O   UNL d   1      28.405 -13.864  -2.040  0.00  0.00    -0.343 OA
ATOM     19  H   UNL d   1      29.152 -14.440  -2.284  0.00  0.00     0.219 HD
ENDBRANCH  12  18
ENDBRANCH   1  11
BRANCH   1  20
ATOM     20  C   UNL d   1      27.118 -16.643  -0.054  0.00  0.00    -0.042 C 
ATOM     21  C   UNL d   1      26.325 -15.990  -1.020  0.00  0.00     0.047 C 
ATOM     22  C   UNL d   1      25.047 -16.432  -1.391  0.00  0.00     0.102 C 
ATOM     23  C   UNL d   1      24.626 -17.680  -0.866  0.00  0.00     0.102 C 
ATOM     24  C   UNL d   1      25.370 -18.299   0.144  0.00  0.00     0.040 C 
ATOM     25  C   UNL d   1      26.585 -17.784   0.551  0.00  0.00     0.011 C 
BRANCH  22  26
ATOM     26  O   UNL d   1      24.568 -15.620  -2.391  0.00  0.00    -0.353 OA
ATOM     27  C   UNL d   1      25.263 -14.553  -3.026  0.00  0.00     0.210 C 
ENDBRANCH  22  26
BRANCH  23  28
ATOM     28  O   UNL d   1      23.632 -18.555  -1.266  0.00  0.00    -0.344 OA
BRANCH  28  29
ATOM     29  C   UNL d   1      22.414 -18.313  -0.620  0.00  0.00     0.121 C 
ATOM     30  C   UNL d   1      22.155 -16.793  -0.520  0.00  0.00     0.040 C 
ATOM     31  C   UNL d   1      21.186 -18.950  -1.233  0.00  0.00     0.040 C 
ENDBRANCH  28  29
ENDBRANCH  23  28
ENDBRANCH   1  20
TORSDOF 8
ENDMDL
