MODEL 1
REMARK VINA RESULT:   -11.071      0.000      0.000
REMARK INTER + INTRA:         -14.226
REMARK INTER:                 -12.563
REMARK INTRA:                  -1.663
REMARK CONF_INDEPENDENT:        1.492
REMARK UNBOUND:                -1.663
REMARK  5 active torsions:
REMARK  status: ('A' for Active; 'I' for Inactive)
REMARK    1  A    between atoms: C_7  and  N_8 
REMARK       I    between atoms: N_8  and  C_9 
REMARK       I    between atoms: C_9  and  N_11 
REMARK    2  A    between atoms: N_11  and  C_12 
REMARK    3  A    between atoms: C_14  and  N_15 
REMARK       I    between atoms: N_15  and  C_16 
REMARK    4  A    between atoms: C_16  and  C_18 
REMARK    5  A    between atoms: C_27  and  N_28 
ROOT
ATOM      1  C   UNL d   1      24.741 -15.996  -1.618  0.00  0.00     0.065 A 
ATOM      2  C   UNL d   1      23.658 -16.862  -1.250  0.00  0.00     0.061 A 
ATOM      3  C   UNL d   1      23.874 -18.006  -0.439  0.00  0.00     0.037 A 
ATOM      4  C   UNL d   1      25.190 -18.325  -0.127  0.00  0.00     0.032 A 
ATOM      5  C   UNL d   1      26.246 -17.496  -0.478  0.00  0.00     0.034 A 
ATOM      6  C   UNL d   1      26.066 -16.313  -1.199  0.00  0.00     0.057 A 
ENDROOT
BRANCH   1   7
ATOM      7  N   UNL d   1      24.486 -14.801  -2.395  0.00  0.00    -0.306 N 
ATOM      8  C   UNL d   1      25.242 -14.558  -3.539  0.00  0.00     0.325 C 
ATOM      9  N   UNL d   1      25.156 -13.268  -4.074  0.00  0.00    -0.309 N 
ATOM     10  O   UNL d   1      25.959 -15.439  -4.017  0.00  0.00    -0.247 OA
ATOM     11  H   UNL d   1      24.422 -12.650  -3.757  0.00  0.00     0.170 HD
ATOM     12  H   UNL d   1      23.573 -14.382  -2.324  0.00  0.00     0.170 HD
BRANCH   9  13
ATOM     13  C   UNL d   1      26.065 -12.754  -5.078  0.00  0.00     0.037 A 
ATOM     14  C   UNL d   1      27.127 -13.522  -5.565  0.00  0.00     0.036 A 
ATOM     15  C   UNL d   1      27.996 -13.007  -6.565  0.00  0.00    -0.059 A 
ATOM     16  C   UNL d   1      27.768 -11.738  -7.122  0.00  0.00     0.013 A 
ATOM     17  C   UNL d   1      29.184 -13.805  -7.019  0.00  0.00     0.048 C 
ATOM     18  C   UNL d   1      26.695 -10.977  -6.688  0.00  0.00    -0.059 A 
ATOM     19  C   UNL d   1      26.350  -9.637  -7.271  0.00  0.00     0.048 C 
ATOM     20  C   UNL d   1      25.890 -11.487  -5.664  0.00  0.00     0.036 A 
ENDBRANCH   9  13
ENDBRANCH   1   7
BRANCH   6  21
ATOM     21  N   UNL d   1      27.207 -15.551  -1.370  0.00  0.00    -0.379 N 
ATOM     22  C   UNL d   1      27.336 -14.145  -1.050  0.00  0.00     0.123 C 
ATOM     23  C   UNL d   1      28.055 -13.559  -2.247  0.00  0.00     0.021 C 
ATOM     24  C   UNL d   1      28.919 -14.693  -2.772  0.00  0.00     0.021 C 
ATOM     25  C   UNL d   1      28.199 -15.980  -2.360  0.00  0.00     0.123 C 
ENDBRANCH   6  21
BRANCH   3  26
ATOM     26  N   UNL d   1      22.795 -18.784   0.105  0.00  0.00    -0.323 N 
ATOM     27  C   UNL d   1      21.445 -18.574  -0.200  0.00  0.00     0.256 C 
ATOM     28  O   UNL d   1      20.972 -17.671  -0.899  0.00  0.00    -0.267 OA
ATOM     29  H   UNL d   1      23.043 -19.630   0.602  0.00  0.00     0.169 HD
BRANCH  27  30
ATOM     30  C   UNL d   1      20.422 -19.505   0.329  0.00  0.00     0.032 A 
ATOM     31  C   UNL d   1      19.453 -20.006  -0.567  0.00  0.00     0.020 A 
ATOM     32  C   UNL d   1      18.335 -20.691  -0.093  0.00  0.00     0.043 A 
ATOM     33  C   UNL d   1      18.221 -20.930   1.270  0.00  0.00     0.116 A 
ATOM     34  F   UNL d   1      17.180 -21.637   1.729  0.00  0.00    -0.206 F 
ATOM     35  C   UNL d   1      19.175 -20.449   2.167  0.00  0.00     0.043 A 
ATOM     36  C   UNL d   1      20.277 -19.722   1.700  0.00  0.00     0.020 A 
ENDBRANCH  27  30
ENDBRANCH   3  26
TORSDOF 5
ENDMDL
MODEL 2
REMARK VINA RESULT:   -11.057      0.065      1.498
REMARK INTER + INTRA:         -14.305
REMARK INTER:                 -12.548
REMARK INTRA:                  -1.757
REMARK CONF_INDEPENDENT:        1.492
REMARK UNBOUND:                -1.757
REMARK  5 active torsions:
REMARK  status: ('A' for Active; 'I' for Inactive)
REMARK    1  A    between atoms: C_7  and  N_8 
REMARK       I    between atoms: N_8  and  C_9 
REMARK       I    between atoms: C_9  and  N_11 
REMARK    2  A    between atoms: N_11  and  C_12 
REMARK    3  A    between atoms: C_14  and  N_15 
REMARK       I    between atoms: N_15  and  C_16 
REMARK    4  A    between atoms: C_16  and  C_18 
REMARK    5  A    between atoms: C_27  and  N_28 
ROOT
ATOM      1  C   UNL d   1      24.742 -15.994  -1.615  0.00  0.00     0.065 A 
ATOM      2  C   UNL d   1      23.658 -16.860  -1.247  0.00  0.00     0.061 A 
ATOM      3  C   UNL d   1      23.875 -18.007  -0.441  0.00  0.00     0.037 A 
ATOM      4  C   UNL d   1      25.192 -18.329  -0.134  0.00  0.00     0.032 A 
ATOM      5  C   UNL d   1      26.248 -17.501  -0.484  0.00  0.00     0.034 A 
ATOM      6  C   UNL d   1      26.067 -16.314  -1.201  0.00  0.00     0.057 A 
ENDROOT
BRANCH   1   7
ATOM      7  N   UNL d   1      24.486 -14.796  -2.386  0.00  0.00    -0.306 N 
ATOM      8  C   UNL d   1      25.211 -14.570  -3.554  0.00  0.00     0.325 C 
ATOM      9  N   UNL d   1      25.134 -13.279  -4.089  0.00  0.00    -0.309 N 
ATOM     10  O   UNL d   1      25.896 -15.465  -4.051  0.00  0.00    -0.247 OA
ATOM     11  H   UNL d   1      24.422 -12.646  -3.751  0.00  0.00     0.170 HD
ATOM     12  H   UNL d   1      23.584 -14.359  -2.288  0.00  0.00     0.170 HD
BRANCH   9  13
ATOM     13  C   UNL d   1      26.022 -12.786  -5.121  0.00  0.00     0.037 A 
ATOM     14  C   UNL d   1      25.870 -11.508  -5.668  0.00  0.00     0.036 A 
ATOM     15  C   UNL d   1      26.763 -11.035  -6.666  0.00  0.00    -0.059 A 
ATOM     16  C   UNL d   1      27.851 -11.822  -7.080  0.00  0.00     0.013 A 
ATOM     17  C   UNL d   1      26.540  -9.696  -7.310  0.00  0.00     0.048 C 
ATOM     18  C   UNL d   1      28.050 -13.072  -6.519  0.00  0.00    -0.059 A 
ATOM     19  C   UNL d   1      29.218 -13.950  -6.865  0.00  0.00     0.048 C 
ATOM     20  C   UNL d   1      27.121 -13.534  -5.580  0.00  0.00     0.036 A 
ENDBRANCH   9  13
ENDBRANCH   1   7
BRANCH   6  21
ATOM     21  N   UNL d   1      27.210 -15.554  -1.373  0.00  0.00    -0.379 N 
ATOM     22  C   UNL d   1      27.349 -14.155  -1.025  0.00  0.00     0.123 C 
ATOM     23  C   UNL d   1      28.053 -13.547  -2.220  0.00  0.00     0.021 C 
ATOM     24  C   UNL d   1      28.905 -14.673  -2.780  0.00  0.00     0.021 C 
ATOM     25  C   UNL d   1      28.185 -15.965  -2.385  0.00  0.00     0.123 C 
ENDBRANCH   6  21
BRANCH   3  26
ATOM     26  N   UNL d   1      22.797 -18.785   0.105  0.00  0.00    -0.323 N 
ATOM     27  C   UNL d   1      21.446 -18.575  -0.198  0.00  0.00     0.256 C 
ATOM     28  O   UNL d   1      20.973 -17.670  -0.895  0.00  0.00    -0.267 OA
ATOM     29  H   UNL d   1      23.046 -19.633   0.600  0.00  0.00     0.169 HD
BRANCH  27  30
ATOM     30  C   UNL d   1      20.424 -19.506   0.331  0.00  0.00     0.032 A 
ATOM     31  C   UNL d   1      19.456 -20.008  -0.566  0.00  0.00     0.020 A 
ATOM     32  C   UNL d   1      18.338 -20.694  -0.092  0.00  0.00     0.043 A 
ATOM     33  C   UNL d   1      18.223 -20.932   1.271  0.00  0.00     0.116 A 
ATOM     34  F   UNL d   1      17.183 -21.639   1.730  0.00  0.00    -0.206 F 
ATOM     35  C   UNL d   1      19.176 -20.449   2.168  0.00  0.00     0.043 A 
ATOM     36  C   UNL d   1      20.277 -19.722   1.702  0.00  0.00     0.020 A 
ENDBRANCH  27  30
ENDBRANCH   3  26
TORSDOF 5
ENDMDL
MODEL 3
REMARK VINA RESULT:    -9.874      1.633      2.548
REMARK INTER + INTRA:         -12.668
REMARK INTER:                 -11.365
REMARK INTRA:                  -1.303
REMARK CONF_INDEPENDENT:        1.492
REMARK UNBOUND:                -1.303
REMARK  5 active torsions:
REMARK  status: ('A' for Active; 'I' for Inactive)
REMARK    1  A    between atoms: C_7  and  N_8 
REMARK       I    between atoms: N_8  and  C_9 
REMARK       I    between atoms: C_9  and  N_11 
REMARK    2  A    between atoms: N_11  and  C_12 
REMARK    3  A    between atoms: C_14  and  N_15 
REMARK       I    between atoms: N_15  and  C_16 
REMARK    4  A    between atoms: C_16  and  C_18 
REMARK    5  A    between atoms: C_27  and  N_28 
ROOT
ATOM      1  C   UNL d   1      25.625 -16.579  -2.042  0.00  0.00     0.065 A 
ATOM      2  C   UNL d   1      24.332 -17.090  -1.685  0.00  0.00     0.061 A 
ATOM      3  C   UNL d   1      24.141 -17.836  -0.493  0.00  0.00     0.037 A 
ATOM      4  C   UNL d   1      25.274 -18.161   0.243  0.00  0.00     0.032 A 
ATOM      5  C   UNL d   1      26.529 -17.674  -0.093  0.00  0.00     0.034 A 
ATOM      6  C   UNL d   1      26.745 -16.860  -1.209  0.00  0.00     0.057 A 
ENDROOT
BRANCH   1   7
ATOM      7  N   UNL d   1      25.782 -15.768  -3.231  0.00  0.00    -0.306 N 
ATOM      8  C   UNL d   1      26.187 -14.441  -3.102  0.00  0.00     0.325 C 
ATOM      9  N   UNL d   1      26.039 -13.636  -4.237  0.00  0.00    -0.309 N 
ATOM     10  O   UNL d   1      26.621 -14.018  -2.029  0.00  0.00    -0.247 OA
ATOM     11  H   UNL d   1      25.856 -14.072  -5.130  0.00  0.00     0.170 HD
ATOM     12  H   UNL d   1      25.959 -16.241  -4.102  0.00  0.00     0.170 HD
BRANCH   9  13
ATOM     13  C   UNL d   1      26.142 -12.192  -4.214  0.00  0.00     0.037 A 
ATOM     14  C   UNL d   1      25.827 -11.418  -5.335  0.00  0.00     0.036 A 
ATOM     15  C   UNL d   1      25.915 -10.001  -5.286  0.00  0.00    -0.059 A 
ATOM     16  C   UNL d   1      26.266  -9.349  -4.092  0.00  0.00     0.013 A 
ATOM     17  C   UNL d   1      25.659  -9.183  -6.519  0.00  0.00     0.048 C 
ATOM     18  C   UNL d   1      26.537 -10.093  -2.955  0.00  0.00    -0.059 A 
ATOM     19  C   UNL d   1      26.864  -9.472  -1.627  0.00  0.00     0.048 C 
ATOM     20  C   UNL d   1      26.497 -11.488  -3.049  0.00  0.00     0.036 A 
ENDBRANCH   9  13
ENDBRANCH   1   7
BRANCH   6  21
ATOM     21  N   UNL d   1      28.033 -16.373  -1.337  0.00  0.00    -0.379 N 
ATOM     22  C   UNL d   1      28.818 -16.382  -2.554  0.00  0.00     0.123 C 
ATOM     23  C   UNL d   1      30.186 -16.856  -2.107  0.00  0.00     0.021 C 
ATOM     24  C   UNL d   1      30.311 -16.374  -0.672  0.00  0.00     0.021 C 
ATOM     25  C   UNL d   1      28.878 -16.287  -0.143  0.00  0.00     0.123 C 
ENDBRANCH   6  21
BRANCH   3  26
ATOM     26  N   UNL d   1      22.838 -18.198  -0.007  0.00  0.00    -0.323 N 
ATOM     27  C   UNL d   1      21.890 -18.907  -0.756  0.00  0.00     0.256 C 
ATOM     28  O   UNL d   1      21.986 -19.255  -1.938  0.00  0.00    -0.267 OA
ATOM     29  H   UNL d   1      22.666 -18.078   0.983  0.00  0.00     0.169 HD
BRANCH  27  30
ATOM     30  C   UNL d   1      20.620 -19.326  -0.121  0.00  0.00     0.032 A 
ATOM     31  C   UNL d   1      20.609 -19.520   1.278  0.00  0.00     0.020 A 
ATOM     32  C   UNL d   1      19.524 -20.135   1.900  0.00  0.00     0.043 A 
ATOM     33  C   UNL d   1      18.425 -20.496   1.133  0.00  0.00     0.116 A 
ATOM     34  F   UNL d   1      17.354 -21.035   1.730  0.00  0.00    -0.206 F 
ATOM     35  C   UNL d   1      18.417 -20.303  -0.248  0.00  0.00     0.043 A 
ATOM     36  C   UNL d   1      19.523 -19.726  -0.884  0.00  0.00     0.020 A 
ENDBRANCH  27  30
ENDBRANCH   3  26
TORSDOF 5
ENDMDL
MODEL 4
REMARK VINA RESULT:    -9.735      2.724      4.968
REMARK INTER + INTRA:         -12.574
REMARK INTER:                 -11.226
REMARK INTRA:                  -1.348
REMARK CONF_INDEPENDENT:        1.492
REMARK UNBOUND:                -1.348
REMARK  5 active torsions:
REMARK  status: ('A' for Active; 'I' for Inactive)
REMARK    1  A    between atoms: C_7  and  N_8 
REMARK       I    between atoms: N_8  and  C_9 
REMARK       I    between atoms: C_9  and  N_11 
REMARK    2  A    between atoms: N_11  and  C_12 
REMARK    3  A    between atoms: C_14  and  N_15 
REMARK       I    between atoms: N_15  and  C_16 
REMARK    4  A    between atoms: C_16  and  C_18 
REMARK    5  A    between atoms: C_27  and  N_28 
ROOT
ATOM      1  C   UNL d   1      26.256 -17.285  -0.460  0.00  0.00     0.065 A 
ATOM      2  C   UNL d   1      25.192 -17.983   0.203  0.00  0.00     0.061 A 
ATOM      3  C   UNL d   1      23.836 -17.762  -0.151  0.00  0.00     0.037 A 
ATOM      4  C   UNL d   1      23.575 -16.753  -1.070  0.00  0.00     0.032 A 
ATOM      5  C   UNL d   1      24.595 -16.071  -1.717  0.00  0.00     0.034 A 
ATOM      6  C   UNL d   1      25.946 -16.322  -1.463  0.00  0.00     0.057 A 
ENDROOT
BRANCH   1   7
ATOM      7  N   UNL d   1      27.635 -17.573  -0.124  0.00  0.00    -0.306 N 
ATOM      8  C   UNL d   1      28.493 -16.521   0.190  0.00  0.00     0.325 C 
ATOM      9  N   UNL d   1      29.859 -16.824   0.217  0.00  0.00    -0.309 N 
ATOM     10  O   UNL d   1      28.050 -15.390   0.400  0.00  0.00    -0.247 OA
ATOM     11  H   UNL d   1      30.150 -17.792   0.220  0.00  0.00     0.170 HD
ATOM     12  H   UNL d   1      27.850 -18.490   0.231  0.00  0.00     0.170 HD
BRANCH   9  13
ATOM     13  C   UNL d   1      30.902 -15.821   0.248  0.00  0.00     0.037 A 
ATOM     14  C   UNL d   1      31.534 -15.458   1.442  0.00  0.00     0.036 A 
ATOM     15  C   UNL d   1      32.569 -14.485   1.449  0.00  0.00    -0.059 A 
ATOM     16  C   UNL d   1      33.016 -13.912   0.247  0.00  0.00     0.013 A 
ATOM     17  C   UNL d   1      33.181 -14.039   2.746  0.00  0.00     0.048 C 
ATOM     18  C   UNL d   1      32.438 -14.290  -0.954  0.00  0.00    -0.059 A 
ATOM     19  C   UNL d   1      32.896 -13.767  -2.285  0.00  0.00     0.048 C 
ATOM     20  C   UNL d   1      31.383 -15.208  -0.923  0.00  0.00     0.036 A 
ENDBRANCH   9  13
ENDBRANCH   1   7
BRANCH   6  21
ATOM     21  N   UNL d   1      26.832 -15.633  -2.271  0.00  0.00    -0.379 N 
ATOM     22  C   UNL d   1      26.506 -14.480  -3.084  0.00  0.00     0.123 C 
ATOM     23  C   UNL d   1      27.177 -14.763  -4.412  0.00  0.00     0.021 C 
ATOM     24  C   UNL d   1      28.393 -15.602  -4.058  0.00  0.00     0.021 C 
ATOM     25  C   UNL d   1      28.027 -16.325  -2.759  0.00  0.00     0.123 C 
ENDBRANCH   6  21
BRANCH   3  26
ATOM     26  N   UNL d   1      22.763 -18.575   0.352  0.00  0.00    -0.323 N 
ATOM     27  C   UNL d   1      21.455 -18.544  -0.147  0.00  0.00     0.256 C 
ATOM     28  O   UNL d   1      21.008 -17.786  -1.015  0.00  0.00    -0.267 OA
ATOM     29  H   UNL d   1      23.011 -19.325   0.986  0.00  0.00     0.169 HD
BRANCH  27  30
ATOM     30  C   UNL d   1      20.452 -19.504   0.368  0.00  0.00     0.032 A 
ATOM     31  C   UNL d   1      19.526 -20.052  -0.546  0.00  0.00     0.020 A 
ATOM     32  C   UNL d   1      18.421 -20.770  -0.092  0.00  0.00     0.043 A 
ATOM     33  C   UNL d   1      18.279 -20.994   1.271  0.00  0.00     0.116 A 
ATOM     34  F   UNL d   1      17.252 -21.732   1.712  0.00  0.00    -0.206 F 
ATOM     35  C   UNL d   1      19.190 -20.467   2.185  0.00  0.00     0.043 A 
ATOM     36  C   UNL d   1      20.277 -19.707   1.738  0.00  0.00     0.020 A 
ENDBRANCH  27  30
ENDBRANCH   3  26
TORSDOF 5
ENDMDL
MODEL 5
REMARK VINA RESULT:    -9.385      2.701      5.020
REMARK INTER + INTRA:         -12.553
REMARK INTER:                 -10.876
REMARK INTRA:                  -1.676
REMARK CONF_INDEPENDENT:        1.492
REMARK UNBOUND:                -1.676
REMARK  5 active torsions:
REMARK  status: ('A' for Active; 'I' for Inactive)
REMARK    1  A    between atoms: C_7  and  N_8 
REMARK       I    between atoms: N_8  and  C_9 
REMARK       I    between atoms: C_9  and  N_11 
REMARK    2  A    between atoms: N_11  and  C_12 
REMARK    3  A    between atoms: C_14  and  N_15 
REMARK       I    between atoms: N_15  and  C_16 
REMARK    4  A    between atoms: C_16  and  C_18 
REMARK    5  A    between atoms: C_27  and  N_28 
ROOT
ATOM      1  C   UNL d   1      26.162 -16.987  -0.230  0.00  0.00     0.065 A 
ATOM      2  C   UNL d   1      25.016 -17.600   0.379  0.00  0.00     0.061 A 
ATOM      3  C   UNL d   1      23.895 -17.995  -0.395  0.00  0.00     0.037 A 
ATOM      4  C   UNL d   1      23.896 -17.645  -1.740  0.00  0.00     0.032 A 
ATOM      5  C   UNL d   1      24.997 -17.051  -2.340  0.00  0.00     0.034 A 
ATOM      6  C   UNL d   1      26.157 -16.729  -1.631  0.00  0.00     0.057 A 
ENDROOT
BRANCH   1   7
ATOM      7  N   UNL d   1      27.319 -16.649   0.572  0.00  0.00    -0.306 N 
ATOM      8  C   UNL d   1      27.506 -15.330   0.978  0.00  0.00     0.325 C 
ATOM      9  N   UNL d   1      28.769 -15.013   1.489  0.00  0.00    -0.309 N 
ATOM     10  O   UNL d   1      26.602 -14.502   0.856  0.00  0.00    -0.247 OA
ATOM     11  H   UNL d   1      29.404 -15.760   1.735  0.00  0.00     0.170 HD
ATOM     12  H   UNL d   1      27.744 -17.383   1.115  0.00  0.00     0.170 HD
BRANCH   9  13
ATOM     13  C   UNL d   1      29.232 -13.657   1.698  0.00  0.00     0.037 A 
ATOM     14  C   UNL d   1      28.834 -12.911   2.811  0.00  0.00     0.036 A 
ATOM     15  C   UNL d   1      29.315 -11.588   3.008  0.00  0.00    -0.059 A 
ATOM     16  C   UNL d   1      30.246 -11.028   2.117  0.00  0.00     0.013 A 
ATOM     17  C   UNL d   1      28.814 -10.764   4.159  0.00  0.00     0.048 C 
ATOM     18  C   UNL d   1      30.691 -11.766   1.032  0.00  0.00    -0.059 A 
ATOM     19  C   UNL d   1      31.725 -11.262   0.067  0.00  0.00     0.048 C 
ATOM     20  C   UNL d   1      30.157 -13.043   0.833  0.00  0.00     0.036 A 
ENDBRANCH   9  13
ENDBRANCH   1   7
BRANCH   6  21
ATOM     21  N   UNL d   1      27.198 -16.243  -2.401  0.00  0.00    -0.379 N 
ATOM     22  C   UNL d   1      28.605 -16.344  -2.073  0.00  0.00     0.123 C 
ATOM     23  C   UNL d   1      29.153 -14.964  -2.374  0.00  0.00     0.021 C 
ATOM     24  C   UNL d   1      28.279 -14.439  -3.500  0.00  0.00     0.021 C 
ATOM     25  C   UNL d   1      26.932 -15.148  -3.337  0.00  0.00     0.123 C 
ENDBRANCH   6  21
BRANCH   3  26
ATOM     26  N   UNL d   1      22.819 -18.780   0.145  0.00  0.00    -0.323 N 
ATOM     27  C   UNL d   1      21.470 -18.591  -0.180  0.00  0.00     0.256 C 
ATOM     28  O   UNL d   1      20.995 -17.702  -0.896  0.00  0.00    -0.267 OA
ATOM     29  H   UNL d   1      23.071 -19.617   0.655  0.00  0.00     0.169 HD
BRANCH  27  30
ATOM     30  C   UNL d   1      20.453 -19.528   0.347  0.00  0.00     0.032 A 
ATOM     31  C   UNL d   1      19.517 -20.071  -0.560  0.00  0.00     0.020 A 
ATOM     32  C   UNL d   1      18.400 -20.766  -0.097  0.00  0.00     0.043 A 
ATOM     33  C   UNL d   1      18.255 -20.972   1.268  0.00  0.00     0.116 A 
ATOM     34  F   UNL d   1      17.217 -21.688   1.718  0.00  0.00    -0.206 F 
ATOM     35  C   UNL d   1      19.176 -20.450   2.176  0.00  0.00     0.043 A 
ATOM     36  C   UNL d   1      20.275 -19.713   1.718  0.00  0.00     0.020 A 
ENDBRANCH  27  30
ENDBRANCH   3  26
TORSDOF 5
ENDMDL
MODEL 6
REMARK VINA RESULT:    -9.326      2.708      4.892
REMARK INTER + INTRA:         -12.561
REMARK INTER:                 -10.818
REMARK INTRA:                  -1.743
REMARK CONF_INDEPENDENT:        1.492
REMARK UNBOUND:                -1.743
REMARK  5 active torsions:
REMARK  status: ('A' for Active; 'I' for Inactive)
REMARK    1  A    between atoms: C_7  and  N_8 
REMARK       I    between atoms: N_8  and  C_9 
REMARK       I    between atoms: C_9  and  N_11 
REMARK    2  A    between atoms: N_11  and  C_12 
REMARK    3  A    between atoms: C_14  and  N_15 
REMARK       I    between atoms: N_15  and  C_16 
REMARK    4  A    between atoms: C_16  and  C_18 
REMARK    5  A    between atoms: C_27  and  N_28 
ROOT
ATOM      1  C   UNL d   1      26.135 -16.899  -0.140  0.00  0.00     0.065 A 
ATOM      2  C   UNL d   1      24.983 -17.518   0.451  0.00  0.00     0.061 A 
ATOM      3  C   UNL d   1      23.894 -17.956  -0.345  0.00  0.00     0.037 A 
ATOM      4  C   UNL d   1      23.929 -17.642  -1.699  0.00  0.00     0.032 A 
ATOM      5  C   UNL d   1      25.036 -17.044  -2.282  0.00  0.00     0.034 A 
ATOM      6  C   UNL d   1      26.168 -16.679  -1.547  0.00  0.00     0.057 A 
ENDROOT
BRANCH   1   7
ATOM      7  N   UNL d   1      27.261 -16.518   0.687  0.00  0.00    -0.306 N 
ATOM      8  C   UNL d   1      27.405 -15.186   1.068  0.00  0.00     0.325 C 
ATOM      9  N   UNL d   1      28.646 -14.829   1.607  0.00  0.00    -0.309 N 
ATOM     10  O   UNL d   1      26.487 -14.382   0.901  0.00  0.00    -0.247 OA
ATOM     11  H   UNL d   1      29.290 -15.556   1.889  0.00  0.00     0.170 HD
ATOM     12  H   UNL d   1      27.685 -17.230   1.258  0.00  0.00     0.170 HD
BRANCH   9  13
ATOM     13  C   UNL d   1      29.073 -13.458   1.798  0.00  0.00     0.037 A 
ATOM     14  C   UNL d   1      30.285 -12.990   1.283  0.00  0.00     0.036 A 
ATOM     15  C   UNL d   1      30.676 -11.636   1.465  0.00  0.00    -0.059 A 
ATOM     16  C   UNL d   1      29.823 -10.729   2.117  0.00  0.00     0.013 A 
ATOM     17  C   UNL d   1      32.018 -11.164   0.984  0.00  0.00     0.048 C 
ATOM     18  C   UNL d   1      28.596 -11.159   2.594  0.00  0.00    -0.059 A 
ATOM     19  C   UNL d   1      27.605 -10.242   3.251  0.00  0.00     0.048 C 
ATOM     20  C   UNL d   1      28.263 -12.510   2.450  0.00  0.00     0.036 A 
ENDBRANCH   9  13
ENDBRANCH   1   7
BRANCH   6  21
ATOM     21  N   UNL d   1      27.223 -16.194  -2.299  0.00  0.00    -0.379 N 
ATOM     22  C   UNL d   1      28.582 -16.691  -2.258  0.00  0.00     0.123 C 
ATOM     23  C   UNL d   1      29.431 -15.437  -2.216  0.00  0.00     0.021 C 
ATOM     24  C   UNL d   1      28.619 -14.396  -2.968  0.00  0.00     0.021 C 
ATOM     25  C   UNL d   1      27.157 -14.820  -2.802  0.00  0.00     0.123 C 
ENDBRANCH   6  21
BRANCH   3  26
ATOM     26  N   UNL d   1      22.816 -18.747   0.184  0.00  0.00    -0.323 N 
ATOM     27  C   UNL d   1      21.471 -18.574  -0.165  0.00  0.00     0.256 C 
ATOM     28  O   UNL d   1      20.999 -17.695  -0.895  0.00  0.00    -0.267 OA
ATOM     29  H   UNL d   1      23.068 -19.578   0.705  0.00  0.00     0.169 HD
BRANCH  27  30
ATOM     30  C   UNL d   1      20.454 -19.517   0.353  0.00  0.00     0.032 A 
ATOM     31  C   UNL d   1      19.520 -20.053  -0.560  0.00  0.00     0.020 A 
ATOM     32  C   UNL d   1      18.404 -20.754  -0.104  0.00  0.00     0.043 A 
ATOM     33  C   UNL d   1      18.258 -20.972   1.259  0.00  0.00     0.116 A 
ATOM     34  F   UNL d   1      17.220 -21.692   1.703  0.00  0.00    -0.206 F 
ATOM     35  C   UNL d   1      19.177 -20.455   2.172  0.00  0.00     0.043 A 
ATOM     36  C   UNL d   1      20.275 -19.713   1.723  0.00  0.00     0.020 A 
ENDBRANCH  27  30
ENDBRANCH   3  26
TORSDOF 5
ENDMDL
MODEL 7
REMARK VINA RESULT:    -9.239      4.240      9.747
REMARK INTER + INTRA:         -12.056
REMARK INTER:                 -10.731
REMARK INTRA:                  -1.325
REMARK CONF_INDEPENDENT:        1.492
REMARK UNBOUND:                -1.325
REMARK  5 active torsions:
REMARK  status: ('A' for Active; 'I' for Inactive)
REMARK    1  A    between atoms: C_7  and  N_8 
REMARK       I    between atoms: N_8  and  C_9 
REMARK       I    between atoms: C_9  and  N_11 
REMARK    2  A    between atoms: N_11  and  C_12 
REMARK    3  A    between atoms: C_14  and  N_15 
REMARK       I    between atoms: N_15  and  C_16 
REMARK    4  A    between atoms: C_16  and  C_18 
REMARK    5  A    between atoms: C_27  and  N_28 
ROOT
ATOM      1  C   UNL d   1      26.257 -13.378  -5.020  0.00  0.00     0.065 A 
ATOM      2  C   UNL d   1      27.092 -14.404  -5.577  0.00  0.00     0.061 A 
ATOM      3  C   UNL d   1      28.159 -14.085  -6.456  0.00  0.00     0.037 A 
ATOM      4  C   UNL d   1      28.279 -12.759  -6.857  0.00  0.00     0.032 A 
ATOM      5  C   UNL d   1      27.477 -11.760  -6.326  0.00  0.00     0.034 A 
ATOM      6  C   UNL d   1      26.474 -12.019  -5.388  0.00  0.00     0.057 A 
ENDROOT
BRANCH   1   7
ATOM      7  N   UNL d   1      25.214 -13.723  -4.076  0.00  0.00    -0.306 N 
ATOM      8  C   UNL d   1      25.479 -14.662  -3.082  0.00  0.00     0.325 C 
ATOM      9  N   UNL d   1      24.369 -15.166  -2.396  0.00  0.00    -0.309 N 
ATOM     10  O   UNL d   1      26.633 -15.031  -2.858  0.00  0.00    -0.247 OA
ATOM     11  H   UNL d   1      23.477 -14.700  -2.490  0.00  0.00     0.170 HD
ATOM     12  H   UNL d   1      24.483 -13.050  -3.919  0.00  0.00     0.170 HD
BRANCH   9  13
ATOM     13  C   UNL d   1      24.418 -16.331  -1.537  0.00  0.00     0.037 A 
ATOM     14  C   UNL d   1      25.591 -16.703  -0.874  0.00  0.00     0.036 A 
ATOM     15  C   UNL d   1      25.614 -17.838  -0.021  0.00  0.00    -0.059 A 
ATOM     16  C   UNL d   1      24.441 -18.574   0.218  0.00  0.00     0.013 A 
ATOM     17  C   UNL d   1      26.899 -18.281   0.618  0.00  0.00     0.048 C 
ATOM     18  C   UNL d   1      23.255 -18.197  -0.391  0.00  0.00    -0.059 A 
ATOM     19  C   UNL d   1      21.949 -18.895  -0.145  0.00  0.00     0.048 C 
ATOM     20  C   UNL d   1      23.277 -17.109  -1.270  0.00  0.00     0.036 A 
ENDBRANCH   9  13
ENDBRANCH   1   7
BRANCH   6  21
ATOM     21  N   UNL d   1      25.842 -10.899  -4.881  0.00  0.00    -0.379 N 
ATOM     22  C   UNL d   1      25.530  -9.699  -5.630  0.00  0.00     0.123 C 
ATOM     23  C   UNL d   1      25.941  -8.571  -4.705  0.00  0.00     0.021 C 
ATOM     24  C   UNL d   1      25.740  -9.127  -3.306  0.00  0.00     0.021 C 
ATOM     25  C   UNL d   1      25.907 -10.643  -3.440  0.00  0.00     0.123 C 
ENDBRANCH   6  21
BRANCH   3  26
ATOM     26  N   UNL d   1      29.130 -15.056  -6.880  0.00  0.00    -0.323 N 
ATOM     27  C   UNL d   1      29.654 -16.055  -6.051  0.00  0.00     0.256 C 
ATOM     28  O   UNL d   1      29.436 -16.210  -4.844  0.00  0.00    -0.267 OA
ATOM     29  H   UNL d   1      29.313 -15.121  -7.874  0.00  0.00     0.169 HD
BRANCH  27  30
ATOM     30  C   UNL d   1      30.564 -17.075  -6.619  0.00  0.00     0.032 A 
ATOM     31  C   UNL d   1      31.453 -16.677  -7.642  0.00  0.00     0.020 A 
ATOM     32  C   UNL d   1      32.162 -17.628  -8.374  0.00  0.00     0.043 A 
ATOM     33  C   UNL d   1      32.032 -18.969  -8.041  0.00  0.00     0.116 A 
ATOM     34  F   UNL d   1      32.752 -19.884  -8.701  0.00  0.00    -0.206 F 
ATOM     35  C   UNL d   1      31.165 -19.376  -7.027  0.00  0.00     0.043 A 
ATOM     36  C   UNL d   1      30.416 -18.430  -6.318  0.00  0.00     0.020 A 
ENDBRANCH  27  30
ENDBRANCH   3  26
TORSDOF 5
ENDMDL
MODEL 8
REMARK VINA RESULT:    -9.159      4.243      9.724
REMARK INTER + INTRA:         -12.002
REMARK INTER:                 -10.650
REMARK INTRA:                  -1.352
REMARK CONF_INDEPENDENT:        1.492
REMARK UNBOUND:                -1.352
REMARK  5 active torsions:
REMARK  status: ('A' for Active; 'I' for Inactive)
REMARK    1  A    between atoms: C_7  and  N_8 
REMARK       I    between atoms: N_8  and  C_9 
REMARK       I    between atoms: C_9  and  N_11 
REMARK    2  A    between atoms: N_11  and  C_12 
REMARK    3  A    between atoms: C_14  and  N_15 
REMARK       I    between atoms: N_15  and  C_16 
REMARK    4  A    between atoms: C_16  and  C_18 
REMARK    5  A    between atoms: C_27  and  N_28 
ROOT
ATOM      1  C   UNL d   1      26.253 -13.444  -4.998  0.00  0.00     0.065 A 
ATOM      2  C   UNL d   1      27.071 -14.486  -5.551  0.00  0.00     0.061 A 
ATOM      3  C   UNL d   1      28.171 -14.187  -6.395  0.00  0.00     0.037 A 
ATOM      4  C   UNL d   1      28.342 -12.860  -6.770  0.00  0.00     0.032 A 
ATOM      5  C   UNL d   1      27.558 -11.844  -6.244  0.00  0.00     0.034 A 
ATOM      6  C   UNL d   1      26.522 -12.087  -5.338  0.00  0.00     0.057 A 
ENDROOT
BRANCH   1   7
ATOM      7  N   UNL d   1      25.174 -13.771  -4.089  0.00  0.00    -0.306 N 
ATOM      8  C   UNL d   1      25.409 -14.668  -3.050  0.00  0.00     0.325 C 
ATOM      9  N   UNL d   1      24.276 -15.165  -2.395  0.00  0.00    -0.309 N 
ATOM     10  O   UNL d   1      26.557 -15.011  -2.762  0.00  0.00    -0.247 OA
ATOM     11  H   UNL d   1      23.383 -14.717  -2.545  0.00  0.00     0.170 HD
ATOM     12  H   UNL d   1      24.427 -13.105  -3.989  0.00  0.00     0.170 HD
BRANCH   9  13
ATOM     13  C   UNL d   1      24.305 -16.298  -1.492  0.00  0.00     0.037 A 
ATOM     14  C   UNL d   1      23.171 -17.085  -1.270  0.00  0.00     0.036 A 
ATOM     15  C   UNL d   1      23.225 -18.204  -0.395  0.00  0.00    -0.059 A 
ATOM     16  C   UNL d   1      24.435 -18.572   0.217  0.00  0.00     0.013 A 
ATOM     17  C   UNL d   1      21.982 -18.991  -0.095  0.00  0.00     0.048 C 
ATOM     18  C   UNL d   1      25.582 -17.835  -0.025  0.00  0.00    -0.059 A 
ATOM     19  C   UNL d   1      26.924 -18.195   0.545  0.00  0.00     0.048 C 
ATOM     20  C   UNL d   1      25.485 -16.706  -0.846  0.00  0.00     0.036 A 
ENDBRANCH   9  13
ENDBRANCH   1   7
BRANCH   6  21
ATOM     21  N   UNL d   1      25.911 -10.955  -4.829  0.00  0.00    -0.379 N 
ATOM     22  C   UNL d   1      25.530  -9.788  -5.597  0.00  0.00     0.123 C 
ATOM     23  C   UNL d   1      25.989  -8.622  -4.746  0.00  0.00     0.021 C 
ATOM     24  C   UNL d   1      25.895  -9.127  -3.316  0.00  0.00     0.021 C 
ATOM     25  C   UNL d   1      26.073 -10.645  -3.407  0.00  0.00     0.123 C 
ENDBRANCH   6  21
BRANCH   3  26
ATOM     26  N   UNL d   1      29.122 -15.181  -6.809  0.00  0.00    -0.323 N 
ATOM     27  C   UNL d   1      29.652 -16.162  -5.961  0.00  0.00     0.256 C 
ATOM     28  O   UNL d   1      29.456 -16.279  -4.746  0.00  0.00    -0.267 OA
ATOM     29  H   UNL d   1      29.285 -15.277  -7.804  0.00  0.00     0.169 HD
BRANCH  27  30
ATOM     30  C   UNL d   1      30.539 -17.208  -6.517  0.00  0.00     0.032 A 
ATOM     31  C   UNL d   1      31.384 -16.860  -7.593  0.00  0.00     0.020 A 
ATOM     32  C   UNL d   1      32.064 -17.845  -8.309  0.00  0.00     0.043 A 
ATOM     33  C   UNL d   1      31.949 -19.168  -7.906  0.00  0.00     0.116 A 
ATOM     34  F   UNL d   1      32.644 -20.115  -8.551  0.00  0.00    -0.206 F 
ATOM     35  C   UNL d   1      31.126 -19.527  -6.839  0.00  0.00     0.043 A 
ATOM     36  C   UNL d   1      30.405 -18.547  -6.146  0.00  0.00     0.020 A 
ENDBRANCH  27  30
ENDBRANCH   3  26
TORSDOF 5
ENDMDL
MODEL 9
REMARK VINA RESULT:    -9.013      4.912     10.210
REMARK INTER + INTRA:         -11.907
REMARK INTER:                 -10.505
REMARK INTRA:                  -1.402
REMARK CONF_INDEPENDENT:        1.492
REMARK UNBOUND:                -1.402
REMARK  5 active torsions:
REMARK  status: ('A' for Active; 'I' for Inactive)
REMARK    1  A    between atoms: C_7  and  N_8 
REMARK       I    between atoms: N_8  and  C_9 
REMARK       I    between atoms: C_9  and  N_11 
REMARK    2  A    between atoms: N_11  and  C_12 
REMARK    3  A    between atoms: C_14  and  N_15 
REMARK       I    between atoms: N_15  and  C_16 
REMARK    4  A    between atoms: C_16  and  C_18 
REMARK    5  A    between atoms: C_27  and  N_28 
ROOT
ATOM      1  C   UNL d   1      27.029 -15.647  -1.430  0.00  0.00     0.065 A 
ATOM      2  C   UNL d   1      27.724 -14.923  -2.456  0.00  0.00     0.061 A 
ATOM      3  C   UNL d   1      27.098 -14.618  -3.692  0.00  0.00     0.037 A 
ATOM      4  C   UNL d   1      25.839 -15.160  -3.919  0.00  0.00     0.032 A 
ATOM      5  C   UNL d   1      25.158 -15.863  -2.936  0.00  0.00     0.034 A 
ATOM      6  C   UNL d   1      25.702 -16.107  -1.672  0.00  0.00     0.057 A 
ENDROOT
BRANCH   1   7
ATOM      7  N   UNL d   1      27.667 -15.892  -0.153  0.00  0.00    -0.306 N 
ATOM      8  C   UNL d   1      27.326 -15.100   0.941  0.00  0.00     0.325 C 
ATOM      9  N   UNL d   1      28.173 -15.184   2.052  0.00  0.00    -0.309 N 
ATOM     10  O   UNL d   1      26.346 -14.354   0.896  0.00  0.00    -0.247 OA
ATOM     11  H   UNL d   1      28.844 -15.937   2.105  0.00  0.00     0.170 HD
ATOM     12  H   UNL d   1      28.038 -16.812   0.017  0.00  0.00     0.170 HD
BRANCH   9  13
ATOM     13  C   UNL d   1      28.141 -14.248   3.156  0.00  0.00     0.037 A 
ATOM     14  C   UNL d   1      28.559 -14.614   4.439  0.00  0.00     0.036 A 
ATOM     15  C   UNL d   1      28.539 -13.675   5.505  0.00  0.00    -0.059 A 
ATOM     16  C   UNL d   1      28.153 -12.344   5.275  0.00  0.00     0.013 A 
ATOM     17  C   UNL d   1      28.906 -14.101   6.897  0.00  0.00     0.048 C 
ATOM     18  C   UNL d   1      27.780 -11.945   4.002  0.00  0.00    -0.059 A 
ATOM     19  C   UNL d   1      27.409 -10.530   3.661  0.00  0.00     0.048 C 
ATOM     20  C   UNL d   1      27.756 -12.906   2.985  0.00  0.00     0.036 A 
ENDBRANCH   9  13
ENDBRANCH   1   7
BRANCH   6  21
ATOM     21  N   UNL d   1      24.850 -16.726  -0.776  0.00  0.00    -0.379 N 
ATOM     22  C   UNL d   1      25.079 -18.009  -0.146  0.00  0.00     0.123 C 
ATOM     23  C   UNL d   1      23.746 -18.720  -0.262  0.00  0.00     0.021 C 
ATOM     24  C   UNL d   1      22.712 -17.607  -0.240  0.00  0.00     0.021 C 
ATOM     25  C   UNL d   1      23.428 -16.374  -0.797  0.00  0.00     0.123 C 
ENDBRANCH   6  21
BRANCH   3  26
ATOM     26  N   UNL d   1      27.689 -13.736  -4.661  0.00  0.00    -0.323 N 
ATOM     27  C   UNL d   1      27.942 -14.089  -5.992  0.00  0.00     0.256 C 
ATOM     28  O   UNL d   1      27.779 -15.200  -6.511  0.00  0.00    -0.267 OA
ATOM     29  H   UNL d   1      27.768 -12.759  -4.407  0.00  0.00     0.169 HD
BRANCH  27  30
ATOM     30  C   UNL d   1      28.449 -13.069  -6.937  0.00  0.00     0.032 A 
ATOM     31  C   UNL d   1      27.599 -11.992  -7.271  0.00  0.00     0.020 A 
ATOM     32  C   UNL d   1      27.921 -11.134  -8.322  0.00  0.00     0.043 A 
ATOM     33  C   UNL d   1      29.121 -11.315  -8.994  0.00  0.00     0.116 A 
ATOM     34  F   UNL d   1      29.466 -10.462  -9.967  0.00  0.00    -0.206 F 
ATOM     35  C   UNL d   1      29.975 -12.369  -8.670  0.00  0.00     0.043 A 
ATOM     36  C   UNL d   1      29.636 -13.260  -7.645  0.00  0.00     0.020 A 
ENDBRANCH  27  30
ENDBRANCH   3  26
TORSDOF 5
ENDMDL
