MODEL 1
REMARK VINA RESULT:   -30.959      0.000      0.000
REMARK INTER + INTRA:         -32.808
REMARK INTER:                 -32.152
REMARK INTRA:                  -0.656
REMARK CONF_INDEPENDENT:        1.193
REMARK UNBOUND:                -0.656
REMARK  4 active torsions:
REMARK  status: ('A' for Active; 'I' for Inactive)
REMARK       I    between atoms: C_2  and  N_3 
REMARK    1  A    between atoms: C_2  and  C_12 
REMARK    2  A    between atoms: N_3  and  N_4 
REMARK    3  A    between atoms: C_5  and  C_6 
REMARK    4  A    between atoms: C_14  and  C_15 
ROOT
ATOM      1  C   UNL d   1      25.543 -16.574  -1.598  0.00  0.00     0.121 A 
ATOM      2  C   UNL d   1      25.549 -15.922  -2.820  0.00  0.00     0.071 A 
ATOM      3  C   UNL d   1      26.870 -15.442  -3.022  0.00  0.00     0.089 A 
ATOM      4  N   UNL d   1      27.650 -15.780  -1.985  0.00  0.00    -0.174 NA
ATOM      5  N   UNL d   1      26.833 -16.463  -1.155  0.00  0.00    -0.272 N 
ATOM      6  H   UNL d   1      27.246 -16.886  -0.331  0.00  0.00     0.189 HD
ENDROOT
BRANCH   1   7
ATOM      7  C   UNL d   1      24.492 -17.363  -0.999  0.00  0.00     0.289 C 
ATOM      8  O   UNL d   1      24.291 -17.309   0.228  0.00  0.00    -0.264 OA
ATOM      9  N   UNL d   1      23.749 -18.189  -1.842  0.00  0.00    -0.242 N 
ATOM     10  H   UNL d   1      24.054 -18.393  -2.788  0.00  0.00     0.192 HD
BRANCH   9  11
ATOM     11  N   UNL d   1      22.699 -18.897  -1.303  0.00  0.00    -0.182 NA
ATOM     12  C   UNL d   1      21.731 -18.263  -0.719  0.00  0.00     0.170 C 
BRANCH  12  13
ATOM     13  C   UNL d   1      20.579 -19.015  -0.151  0.00  0.00     0.075 A 
ATOM     14  C   UNL d   1      20.595 -19.398   1.185  0.00  0.00     0.033 A 
ATOM     15  C   UNL d   1      19.542 -20.171   1.667  0.00  0.00     0.004 A 
ATOM     16  C   UNL d   1      18.526 -20.551   0.800  0.00  0.00     0.019 A 
ATOM     17  C   UNL d   1      18.584 -20.107  -0.515  0.00  0.00     0.117 A 
ATOM     18  N   UNL d   1      19.577 -19.324  -1.011  0.00  0.00    -0.260 NA
ENDBRANCH  12  13
ENDBRANCH   9  11
ENDBRANCH   1   7
BRANCH   3  19
ATOM     19  C   UNL d   1      27.361 -14.695  -4.182  0.00  0.00    -0.006 A 
ATOM     20  C   UNL d   1      26.746 -13.488  -4.545  0.00  0.00     0.015 A 
ATOM     21  C   UNL d   1      27.135 -12.806  -5.704  0.00  0.00     0.024 A 
ATOM     22  C   UNL d   1      28.142 -13.331  -6.511  0.00  0.00     0.034 A 
ATOM     23 CL   UNL d   1      28.584 -12.519  -7.962  0.00  0.00    -0.084 Cl
ATOM     24  C   UNL d   1      28.782 -14.518  -6.153  0.00  0.00     0.024 A 
ATOM     25  C   UNL d   1      28.397 -15.195  -4.986  0.00  0.00     0.015 A 
ENDBRANCH   3  19
TORSDOF 4
ENDMDL
MODEL 2
REMARK VINA RESULT:   -30.825      0.213      1.029
REMARK INTER + INTRA:         -32.708
REMARK INTER:                 -32.018
REMARK INTRA:                  -0.690
REMARK CONF_INDEPENDENT:        1.193
REMARK UNBOUND:                -0.690
REMARK  4 active torsions:
REMARK  status: ('A' for Active; 'I' for Inactive)
REMARK       I    between atoms: C_2  and  N_3 
REMARK    1  A    between atoms: C_2  and  C_12 
REMARK    2  A    between atoms: N_3  and  N_4 
REMARK    3  A    between atoms: C_5  and  C_6 
REMARK    4  A    between atoms: C_14  and  C_15 
ROOT
ATOM      1  C   UNL d   1      25.623 -16.500  -1.626  0.00  0.00     0.121 A 
ATOM      2  C   UNL d   1      25.636 -15.947  -2.896  0.00  0.00     0.071 A 
ATOM      3  C   UNL d   1      26.932 -15.398  -3.090  0.00  0.00     0.089 A 
ATOM      4  N   UNL d   1      27.689 -15.600  -2.003  0.00  0.00    -0.174 NA
ATOM      5  N   UNL d   1      26.885 -16.268  -1.149  0.00  0.00    -0.272 N 
ATOM      6  H   UNL d   1      27.289 -16.597  -0.279  0.00  0.00     0.189 HD
ENDROOT
BRANCH   1   7
ATOM      7  C   UNL d   1      24.601 -17.306  -1.002  0.00  0.00     0.289 C 
ATOM      8  O   UNL d   1      24.472 -17.305   0.236  0.00  0.00    -0.264 OA
ATOM      9  N   UNL d   1      23.801 -18.088  -1.836  0.00  0.00    -0.242 N 
ATOM     10  H   UNL d   1      24.048 -18.253  -2.806  0.00  0.00     0.192 HD
BRANCH   9  11
ATOM     11  N   UNL d   1      22.778 -18.811  -1.268  0.00  0.00    -0.182 NA
ATOM     12  C   UNL d   1      21.739 -18.193  -0.799  0.00  0.00     0.170 C 
BRANCH  12  13
ATOM     13  C   UNL d   1      20.615 -18.965  -0.202  0.00  0.00     0.075 A 
ATOM     14  C   UNL d   1      20.655 -19.315   1.143  0.00  0.00     0.033 A 
ATOM     15  C   UNL d   1      19.629 -20.106   1.654  0.00  0.00     0.004 A 
ATOM     16  C   UNL d   1      18.617 -20.537   0.806  0.00  0.00     0.019 A 
ATOM     17  C   UNL d   1      18.651 -20.124  -0.520  0.00  0.00     0.117 A 
ATOM     18  N   UNL d   1      19.615 -19.325  -1.045  0.00  0.00    -0.260 NA
ENDBRANCH  12  13
ENDBRANCH   9  11
ENDBRANCH   1   7
BRANCH   3  19
ATOM     19  C   UNL d   1      27.420 -14.714  -4.289  0.00  0.00    -0.006 A 
ATOM     20  C   UNL d   1      28.513 -15.241  -4.995  0.00  0.00     0.015 A 
ATOM     21  C   UNL d   1      29.056 -14.554  -6.088  0.00  0.00     0.024 A 
ATOM     22  C   UNL d   1      28.511 -13.334  -6.480  0.00  0.00     0.034 A 
ATOM     23 CL   UNL d   1      29.212 -12.468  -7.792  0.00  0.00    -0.084 Cl
ATOM     24  C   UNL d   1      27.409 -12.807  -5.805  0.00  0.00     0.024 A 
ATOM     25  C   UNL d   1      26.860 -13.501  -4.717  0.00  0.00     0.015 A 
ENDBRANCH   3  19
TORSDOF 4
ENDMDL
MODEL 3
REMARK VINA RESULT:   -29.859      3.721      4.377
REMARK INTER + INTRA:         -31.557
REMARK INTER:                 -31.052
REMARK INTRA:                  -0.505
REMARK CONF_INDEPENDENT:        1.193
REMARK UNBOUND:                -0.505
REMARK  4 active torsions:
REMARK  status: ('A' for Active; 'I' for Inactive)
REMARK       I    between atoms: C_2  and  N_3 
REMARK    1  A    between atoms: C_2  and  C_12 
REMARK    2  A    between atoms: N_3  and  N_4 
REMARK    3  A    between atoms: C_5  and  C_6 
REMARK    4  A    between atoms: C_14  and  C_15 
ROOT
ATOM      1  C   UNL d   1      25.891 -17.068  -0.725  0.00  0.00     0.121 A 
ATOM      2  C   UNL d   1      27.058 -17.057   0.020  0.00  0.00     0.071 A 
ATOM      3  C   UNL d   1      27.857 -15.996  -0.485  0.00  0.00     0.089 A 
ATOM      4  N   UNL d   1      27.220 -15.374  -1.487  0.00  0.00    -0.174 NA
ATOM      5  N   UNL d   1      26.046 -16.029  -1.603  0.00  0.00    -0.272 N 
ATOM      6  H   UNL d   1      25.366 -15.666  -2.261  0.00  0.00     0.189 HD
ENDROOT
BRANCH   1   7
ATOM      7  C   UNL d   1      24.695 -17.851  -0.520  0.00  0.00     0.289 C 
ATOM      8  O   UNL d   1      24.607 -18.615   0.458  0.00  0.00    -0.264 OA
ATOM      9  N   UNL d   1      23.678 -17.730  -1.467  0.00  0.00    -0.242 N 
ATOM     10  H   UNL d   1      23.839 -17.283  -2.364  0.00  0.00     0.192 HD
BRANCH   9  11
ATOM     11  N   UNL d   1      22.504 -18.414  -1.255  0.00  0.00    -0.182 NA
ATOM     12  C   UNL d   1      21.995 -18.461  -0.064  0.00  0.00     0.170 C 
BRANCH  12  13
ATOM     13  C   UNL d   1      20.713 -19.179   0.175  0.00  0.00     0.075 A 
ATOM     14  C   UNL d   1      20.437 -19.700   1.435  0.00  0.00     0.033 A 
ATOM     15  C   UNL d   1      19.269 -20.438   1.606  0.00  0.00     0.004 A 
ATOM     16  C   UNL d   1      18.432 -20.648   0.518  0.00  0.00     0.019 A 
ATOM     17  C   UNL d   1      18.780 -20.074  -0.698  0.00  0.00     0.117 A 
ATOM     18  N   UNL d   1      19.893 -19.322  -0.895  0.00  0.00    -0.260 NA
ENDBRANCH  12  13
ENDBRANCH   9  11
ENDBRANCH   1   7
BRANCH   3  19
ATOM     19  C   UNL d   1      29.179 -15.592  -0.004  0.00  0.00    -0.006 A 
ATOM     20  C   UNL d   1      30.273 -16.456  -0.165  0.00  0.00     0.015 A 
ATOM     21  C   UNL d   1      31.525 -16.133   0.372  0.00  0.00     0.024 A 
ATOM     22  C   UNL d   1      31.691 -14.943   1.076  0.00  0.00     0.034 A 
ATOM     23 CL   UNL d   1      33.218 -14.571   1.778  0.00  0.00    -0.084 Cl
ATOM     24  C   UNL d   1      30.621 -14.060   1.225  0.00  0.00     0.024 A 
ATOM     25  C   UNL d   1      29.369 -14.381   0.678  0.00  0.00     0.015 A 
ENDBRANCH   3  19
TORSDOF 4
ENDMDL
MODEL 4
REMARK VINA RESULT:   -29.724      1.533      1.714
REMARK INTER + INTRA:         -31.530
REMARK INTER:                 -30.917
REMARK INTRA:                  -0.613
REMARK CONF_INDEPENDENT:        1.193
REMARK UNBOUND:                -0.613
REMARK  4 active torsions:
REMARK  status: ('A' for Active; 'I' for Inactive)
REMARK       I    between atoms: C_2  and  N_3 
REMARK    1  A    between atoms: C_2  and  C_12 
REMARK    2  A    between atoms: N_3  and  N_4 
REMARK    3  A    between atoms: C_5  and  C_6 
REMARK    4  A    between atoms: C_14  and  C_15 
ROOT
ATOM      1  C   UNL d   1      25.909 -17.073  -0.641  0.00  0.00     0.121 A 
ATOM      2  C   UNL d   1      26.158 -16.173  -1.664  0.00  0.00     0.071 A 
ATOM      3  C   UNL d   1      27.526 -15.805  -1.563  0.00  0.00     0.089 A 
ATOM      4  N   UNL d   1      28.103 -16.444  -0.535  0.00  0.00    -0.174 NA
ATOM      5  N   UNL d   1      27.117 -17.200  -0.009  0.00  0.00    -0.272 N 
ATOM      6  H   UNL d   1      27.360 -17.836   0.743  0.00  0.00     0.189 HD
ENDROOT
BRANCH   1   7
ATOM      7  C   UNL d   1      24.722 -17.855  -0.393  0.00  0.00     0.289 C 
ATOM      8  O   UNL d   1      24.551 -18.402   0.711  0.00  0.00    -0.264 OA
ATOM      9  N   UNL d   1      23.809 -17.986  -1.440  0.00  0.00    -0.242 N 
ATOM     10  H   UNL d   1      24.052 -17.728  -2.391  0.00  0.00     0.192 HD
BRANCH   9  11
ATOM     11  N   UNL d   1      22.639 -18.671  -1.205  0.00  0.00    -0.182 NA
ATOM     12  C   UNL d   1      21.966 -18.437  -0.122  0.00  0.00     0.170 C 
BRANCH  12  13
ATOM     13  C   UNL d   1      20.688 -19.155   0.135  0.00  0.00     0.075 A 
ATOM     14  C   UNL d   1      20.415 -19.647   1.406  0.00  0.00     0.033 A 
ATOM     15  C   UNL d   1      19.249 -20.385   1.596  0.00  0.00     0.004 A 
ATOM     16  C   UNL d   1      18.412 -20.624   0.514  0.00  0.00     0.019 A 
ATOM     17  C   UNL d   1      18.757 -20.077  -0.716  0.00  0.00     0.117 A 
ATOM     18  N   UNL d   1      19.867 -19.325  -0.931  0.00  0.00    -0.260 NA
ENDBRANCH  12  13
ENDBRANCH   9  11
ENDBRANCH   1   7
BRANCH   3  19
ATOM     19  C   UNL d   1      28.248 -14.880  -2.438  0.00  0.00    -0.006 A 
ATOM     20  C   UNL d   1      28.934 -13.788  -1.884  0.00  0.00     0.015 A 
ATOM     21  C   UNL d   1      29.551 -12.838  -2.707  0.00  0.00     0.024 A 
ATOM     22  C   UNL d   1      29.483 -12.973  -4.091  0.00  0.00     0.034 A 
ATOM     23 CL   UNL d   1      30.199 -11.777  -5.102  0.00  0.00    -0.084 Cl
ATOM     24  C   UNL d   1      28.827 -14.065  -4.660  0.00  0.00     0.024 A 
ATOM     25  C   UNL d   1      28.218 -15.021  -3.833  0.00  0.00     0.015 A 
ENDBRANCH   3  19
TORSDOF 4
ENDMDL
MODEL 5
REMARK VINA RESULT:   -29.542      3.544      4.084
REMARK INTER + INTRA:         -31.323
REMARK INTER:                 -30.735
REMARK INTRA:                  -0.588
REMARK CONF_INDEPENDENT:        1.193
REMARK UNBOUND:                -0.588
REMARK  4 active torsions:
REMARK  status: ('A' for Active; 'I' for Inactive)
REMARK       I    between atoms: C_2  and  N_3 
REMARK    1  A    between atoms: C_2  and  C_12 
REMARK    2  A    between atoms: N_3  and  N_4 
REMARK    3  A    between atoms: C_5  and  C_6 
REMARK    4  A    between atoms: C_14  and  C_15 
ROOT
ATOM      1  C   UNL d   1      25.595 -16.853  -1.178  0.00  0.00     0.121 A 
ATOM      2  C   UNL d   1      26.583 -16.711  -0.219  0.00  0.00     0.071 A 
ATOM      3  C   UNL d   1      27.621 -15.942  -0.810  0.00  0.00     0.089 A 
ATOM      4  N   UNL d   1      27.298 -15.618  -2.070  0.00  0.00    -0.174 NA
ATOM      5  N   UNL d   1      26.079 -16.167  -2.260  0.00  0.00    -0.272 N 
ATOM      6  H   UNL d   1      25.606 -15.972  -3.135  0.00  0.00     0.189 HD
ENDROOT
BRANCH   1   7
ATOM      7  C   UNL d   1      24.274 -17.418  -1.039  0.00  0.00     0.289 C 
ATOM      8  O   UNL d   1      23.267 -16.704  -1.200  0.00  0.00    -0.264 OA
ATOM      9  N   UNL d   1      24.185 -18.767  -0.696  0.00  0.00    -0.242 N 
ATOM     10  H   UNL d   1      24.990 -19.282  -0.356  0.00  0.00     0.192 HD
BRANCH   9  11
ATOM     11  N   UNL d   1      22.937 -19.342  -0.625  0.00  0.00    -0.182 NA
ATOM     12  C   UNL d   1      22.030 -18.814   0.137  0.00  0.00     0.170 C 
BRANCH  12  13
ATOM     13  C   UNL d   1      20.670 -19.414   0.207  0.00  0.00     0.075 A 
ATOM     14  C   UNL d   1      20.266 -20.080   1.359  0.00  0.00     0.033 A 
ATOM     15  C   UNL d   1      19.020 -20.701   1.364  0.00  0.00     0.004 A 
ATOM     16  C   UNL d   1      18.232 -20.654   0.221  0.00  0.00     0.019 A 
ATOM     17  C   UNL d   1      18.710 -19.950  -0.877  0.00  0.00     0.117 A 
ATOM     18  N   UNL d   1      19.904 -19.305  -0.908  0.00  0.00    -0.260 NA
ENDBRANCH  12  13
ENDBRANCH   9  11
ENDBRANCH   1   7
BRANCH   3  19
ATOM     19  C   UNL d   1      28.873 -15.528  -0.173  0.00  0.00    -0.006 A 
ATOM     20  C   UNL d   1      28.878 -14.438   0.711  0.00  0.00     0.015 A 
ATOM     21  C   UNL d   1      30.077 -13.966   1.257  0.00  0.00     0.024 A 
ATOM     22  C   UNL d   1      31.281 -14.579   0.920  0.00  0.00     0.034 A 
ATOM     23 CL   UNL d   1      32.759 -13.965   1.553  0.00  0.00    -0.084 Cl
ATOM     24  C   UNL d   1      31.293 -15.679   0.062  0.00  0.00     0.024 A 
ATOM     25  C   UNL d   1      30.089 -16.158  -0.477  0.00  0.00     0.015 A 
ENDBRANCH   3  19
TORSDOF 4
ENDMDL
