MODEL 1
REMARK VINA RESULT:    -6.068      0.000      0.000
REMARK INTER + INTRA:         -10.014
REMARK INTER:                  -7.858
REMARK INTRA:                  -2.156
REMARK CONF_INDEPENDENT:        1.790
REMARK UNBOUND:                -2.156
REMARK  6 active torsions:
REMARK  status: ('A' for Active; 'I' for Inactive)
REMARK    1  A    between atoms: C_5  and  O_6 
REMARK    2  A    between atoms: C_7  and  C_8 
REMARK    3  A    between atoms: C_13  and  C_14 
REMARK    4  A    between atoms: N_21  and  C_22 
REMARK    5  A    between atoms: C_22  and  C_23 
REMARK    6  A    between atoms: C_23  and  O_24 
ROOT
ATOM      1  C   UNL d   1      27.460 -14.867   0.187  0.00  0.00     0.074 A 
ATOM      2  N   UNL d   1      28.536 -14.812   1.050  0.00  0.00    -0.276 N 
ATOM      3  N   UNL d   1      29.166 -13.597   1.088  0.00  0.00    -0.168 NA
ATOM      4  C   UNL d   1      28.452 -12.876   0.220  0.00  0.00     0.155 A 
ATOM      5  C   UNL d   1      27.413 -13.608  -0.347  0.00  0.00     0.035 A 
ATOM      6  C   UNL d   1      26.683 -12.782  -1.317  0.00  0.00     0.162 C 
ATOM      7  N   UNL d   1      27.586 -11.623  -1.473  0.00  0.00    -0.331 N 
ATOM      8  C   UNL d   1      28.511 -11.553  -0.399  0.00  0.00     0.275 C 
ATOM      9  O   UNL d   1      29.200 -10.591  -0.074  0.00  0.00    -0.266 OA
ATOM     10  H   UNL d   1      28.899 -15.577   1.611  0.00  0.00     0.189 HD
ENDROOT
BRANCH   1  11
ATOM     11  C   UNL d   1      26.646 -16.050  -0.063  0.00  0.00     0.026 A 
ATOM     12  C   UNL d   1      27.165 -17.339  -0.004  0.00  0.00     0.078 A 
ATOM     13  C   UNL d   1      26.328 -18.446  -0.176  0.00  0.00     0.038 A 
ATOM     14  C   UNL d   1      24.952 -18.271  -0.359  0.00  0.00     0.009 A 
ATOM     15  C   UNL d   1      24.405 -16.993  -0.401  0.00  0.00    -0.061 A 
ATOM     16  C   UNL d   1      22.928 -16.763  -0.518  0.00  0.00     0.048 C 
ATOM     17  C   UNL d   1      25.274 -15.905  -0.306  0.00  0.00     0.023 A 
BRANCH  12  18
ATOM     18  O   UNL d   1      28.500 -17.511   0.230  0.00  0.00    -0.360 OA
ATOM     19  H   UNL d   1      28.647 -18.405   0.579  0.00  0.00     0.217 HD
ENDBRANCH  12  18
ENDBRANCH   1  11
BRANCH   6  20
ATOM     20  C   UNL d   1      26.425 -13.606  -2.530  0.00  0.00     0.008 A 
ATOM     21  C   UNL d   1      25.139 -13.588  -3.100  0.00  0.00     0.012 A 
ATOM     22  C   UNL d   1      24.904 -14.244  -4.304  0.00  0.00     0.001 A 
ATOM     23  C   UNL d   1      25.936 -14.948  -4.931  0.00  0.00     0.003 A 
ATOM     24  C   UNL d   1      27.208 -14.994  -4.364  0.00  0.00     0.043 A 
ATOM     25  C   UNL d   1      27.451 -14.309  -3.181  0.00  0.00     0.125 A 
ATOM     26  F   UNL d   1      28.688 -14.337  -2.666  0.00  0.00    -0.205 F 
ENDBRANCH   6  20
BRANCH   7  27
ATOM     27  C   UNL d   1      27.606 -10.727  -2.651  0.00  0.00     0.153 C 
BRANCH  27  28
ATOM     28  C   UNL d   1      26.248 -10.197  -3.157  0.00  0.00     0.184 C 
BRANCH  28  29
ATOM     29  O   UNL d   1      25.706 -10.906  -4.260  0.00  0.00    -0.399 OA
ATOM     30  H   UNL d   1      24.767 -11.062  -4.087  0.00  0.00     0.209 HD
ENDBRANCH  28  29
ENDBRANCH  27  28
ENDBRANCH   7  27
TORSDOF 6
ENDMDL
MODEL 2
REMARK VINA RESULT:    -5.798      3.051      5.466
REMARK INTER + INTRA:         -10.513
REMARK INTER:                  -7.588
REMARK INTRA:                  -2.925
REMARK CONF_INDEPENDENT:        1.790
REMARK UNBOUND:                -2.925
REMARK  6 active torsions:
REMARK  status: ('A' for Active; 'I' for Inactive)
REMARK    1  A    between atoms: C_5  and  O_6 
REMARK    2  A    between atoms: C_7  and  C_8 
REMARK    3  A    between atoms: C_13  and  C_14 
REMARK    4  A    between atoms: N_21  and  C_22 
REMARK    5  A    between atoms: C_22  and  C_23 
REMARK    6  A    between atoms: C_23  and  O_24 
ROOT
ATOM      1  C   UNL d   1      28.119 -16.979  -1.237  0.00  0.00     0.074 A 
ATOM      2  N   UNL d   1      28.467 -17.656  -0.085  0.00  0.00    -0.276 N 
ATOM      3  N   UNL d   1      27.408 -18.194   0.594  0.00  0.00    -0.168 NA
ATOM      4  C   UNL d   1      26.368 -17.839  -0.166  0.00  0.00     0.155 A 
ATOM      5  C   UNL d   1      26.756 -17.102  -1.280  0.00  0.00     0.035 A 
ATOM      6  C   UNL d   1      25.577 -16.708  -2.061  0.00  0.00     0.162 C 
ATOM      7  N   UNL d   1      24.474 -17.021  -1.130  0.00  0.00    -0.331 N 
ATOM      8  C   UNL d   1      24.909 -17.906  -0.110  0.00  0.00     0.275 C 
ATOM      9  O   UNL d   1      24.207 -18.573   0.644  0.00  0.00    -0.266 OA
ATOM     10  H   UNL d   1      29.403 -17.756   0.296  0.00  0.00     0.189 HD
ENDROOT
BRANCH   1  11
ATOM     11  C   UNL d   1      29.052 -16.288  -2.117  0.00  0.00     0.026 A 
ATOM     12  C   UNL d   1      30.331 -15.922  -1.710  0.00  0.00     0.078 A 
ATOM     13  C   UNL d   1      31.218 -15.330  -2.614  0.00  0.00     0.038 A 
ATOM     14  C   UNL d   1      30.846 -15.144  -3.950  0.00  0.00     0.009 A 
ATOM     15  C   UNL d   1      29.581 -15.519  -4.387  0.00  0.00    -0.061 A 
ATOM     16  C   UNL d   1      29.171 -15.409  -5.825  0.00  0.00     0.048 C 
ATOM     17  C   UNL d   1      28.689 -16.035  -3.446  0.00  0.00     0.023 A 
BRANCH  12  18
ATOM     18  O   UNL d   1      30.713 -16.155  -0.419  0.00  0.00    -0.360 OA
ATOM     19  H   UNL d   1      29.931 -16.108   0.155  0.00  0.00     0.217 HD
ENDBRANCH  12  18
ENDBRANCH   1  11
BRANCH   6  20
ATOM     20  C   UNL d   1      25.739 -15.283  -2.462  0.00  0.00     0.008 A 
ATOM     21  C   UNL d   1      25.996 -14.323  -1.465  0.00  0.00     0.012 A 
ATOM     22  C   UNL d   1      26.278 -13.009  -1.822  0.00  0.00     0.001 A 
ATOM     23  C   UNL d   1      26.275 -12.633  -3.167  0.00  0.00     0.003 A 
ATOM     24  C   UNL d   1      25.995 -13.567  -4.163  0.00  0.00     0.043 A 
ATOM     25  C   UNL d   1      25.750 -14.886  -3.808  0.00  0.00     0.125 A 
ATOM     26  F   UNL d   1      25.516 -15.780  -4.780  0.00  0.00    -0.205 F 
ENDBRANCH   6  20
BRANCH   7  27
ATOM     27  C   UNL d   1      23.131 -16.402  -1.181  0.00  0.00     0.153 C 
BRANCH  27  28
ATOM     28  C   UNL d   1      21.921 -17.316  -0.890  0.00  0.00     0.184 C 
BRANCH  28  29
ATOM     29  O   UNL d   1      22.084 -18.665  -1.295  0.00  0.00    -0.399 OA
ATOM     30  H   UNL d   1      22.991 -18.935  -1.092  0.00  0.00     0.209 HD
ENDBRANCH  28  29
ENDBRANCH  27  28
ENDBRANCH   7  27
TORSDOF 6
ENDMDL
MODEL 3
REMARK VINA RESULT:    -5.642      3.038      4.593
REMARK INTER + INTRA:         -10.168
REMARK INTER:                  -7.432
REMARK INTRA:                  -2.736
REMARK CONF_INDEPENDENT:        1.790
REMARK UNBOUND:                -2.736
REMARK  6 active torsions:
REMARK  status: ('A' for Active; 'I' for Inactive)
REMARK    1  A    between atoms: C_5  and  O_6 
REMARK    2  A    between atoms: C_7  and  C_8 
REMARK    3  A    between atoms: C_13  and  C_14 
REMARK    4  A    between atoms: N_21  and  C_22 
REMARK    5  A    between atoms: C_22  and  C_23 
REMARK    6  A    between atoms: C_23  and  O_24 
ROOT
ATOM      1  C   UNL d   1      24.814 -15.337  -2.452  0.00  0.00     0.074 A 
ATOM      2  N   UNL d   1      23.844 -14.450  -2.875  0.00  0.00    -0.276 N 
ATOM      3  N   UNL d   1      24.238 -13.633  -3.900  0.00  0.00    -0.168 NA
ATOM      4  C   UNL d   1      25.494 -14.032  -4.120  0.00  0.00     0.155 A 
ATOM      5  C   UNL d   1      25.880 -15.058  -3.264  0.00  0.00     0.035 A 
ATOM      6  C   UNL d   1      27.275 -15.435  -3.522  0.00  0.00     0.162 C 
ATOM      7  N   UNL d   1      27.737 -14.327  -4.384  0.00  0.00    -0.331 N 
ATOM      8  C   UNL d   1      26.636 -13.623  -4.936  0.00  0.00     0.275 C 
ATOM      9  O   UNL d   1      26.652 -12.848  -5.888  0.00  0.00    -0.266 OA
ATOM     10  H   UNL d   1      22.915 -14.340  -2.483  0.00  0.00     0.189 HD
ENDROOT
BRANCH   1  11
ATOM     11  C   UNL d   1      24.660 -16.287  -1.357  0.00  0.00     0.026 A 
ATOM     12  C   UNL d   1      23.419 -16.602  -0.812  0.00  0.00     0.078 A 
ATOM     13  C   UNL d   1      23.313 -17.575   0.186  0.00  0.00     0.038 A 
ATOM     14  C   UNL d   1      24.446 -18.279   0.612  0.00  0.00     0.009 A 
ATOM     15  C   UNL d   1      25.694 -17.997   0.068  0.00  0.00    -0.061 A 
ATOM     16  C   UNL d   1      26.918 -18.778   0.439  0.00  0.00     0.048 C 
ATOM     17  C   UNL d   1      25.783 -16.966  -0.869  0.00  0.00     0.023 A 
BRANCH  12  18
ATOM     18  O   UNL d   1      22.306 -15.954  -1.267  0.00  0.00    -0.360 OA
ATOM     19  H   UNL d   1      21.563 -16.580  -1.288  0.00  0.00     0.217 HD
ENDBRANCH  12  18
ENDBRANCH   1  11
BRANCH   6  20
ATOM     20  C   UNL d   1      27.963 -15.602  -2.212  0.00  0.00     0.008 A 
ATOM     21  C   UNL d   1      28.793 -16.722  -2.020  0.00  0.00     0.012 A 
ATOM     22  C   UNL d   1      29.547 -16.836  -0.857  0.00  0.00     0.001 A 
ATOM     23  C   UNL d   1      29.457 -15.857   0.136  0.00  0.00     0.003 A 
ATOM     24  C   UNL d   1      28.618 -14.757  -0.030  0.00  0.00     0.043 A 
ATOM     25  C   UNL d   1      27.893 -14.625  -1.206  0.00  0.00     0.125 A 
ATOM     26  F   UNL d   1      27.117 -13.543  -1.364  0.00  0.00    -0.205 F 
ENDBRANCH   6  20
BRANCH   7  27
ATOM     27  C   UNL d   1      29.152 -13.928  -4.552  0.00  0.00     0.153 C 
BRANCH  27  28
ATOM     28  C   UNL d   1      29.823 -14.260  -5.901  0.00  0.00     0.184 C 
BRANCH  28  29
ATOM     29  O   UNL d   1      28.930 -14.666  -6.925  0.00  0.00    -0.399 OA
ATOM     30  H   UNL d   1      28.090 -14.204  -6.795  0.00  0.00     0.209 HD
ENDBRANCH  28  29
ENDBRANCH  27  28
ENDBRANCH   7  27
TORSDOF 6
ENDMDL
MODEL 4
REMARK VINA RESULT:    -5.457      6.785      8.666
REMARK INTER + INTRA:          -9.773
REMARK INTER:                  -7.247
REMARK INTRA:                  -2.526
REMARK CONF_INDEPENDENT:        1.790
REMARK UNBOUND:                -2.526
REMARK  6 active torsions:
REMARK  status: ('A' for Active; 'I' for Inactive)
REMARK    1  A    between atoms: C_5  and  O_6 
REMARK    2  A    between atoms: C_7  and  C_8 
REMARK    3  A    between atoms: C_13  and  C_14 
REMARK    4  A    between atoms: N_21  and  C_22 
REMARK    5  A    between atoms: C_22  and  C_23 
REMARK    6  A    between atoms: C_23  and  O_24 
ROOT
ATOM      1  C   UNL d   1      29.254 -10.827   7.317  0.00  0.00     0.074 A 
ATOM      2  N   UNL d   1      29.657  -9.575   7.737  0.00  0.00    -0.276 N 
ATOM      3  N   UNL d   1      29.226  -8.548   6.941  0.00  0.00    -0.168 NA
ATOM      4  C   UNL d   1      28.531  -9.188   5.997  0.00  0.00     0.155 A 
ATOM      5  C   UNL d   1      28.525 -10.566   6.187  0.00  0.00     0.035 A 
ATOM      6  C   UNL d   1      27.779 -11.223   5.108  0.00  0.00     0.162 C 
ATOM      7  N   UNL d   1      27.627 -10.126   4.129  0.00  0.00    -0.331 N 
ATOM      8  C   UNL d   1      27.855  -8.867   4.741  0.00  0.00     0.275 C 
ATOM      9  O   UNL d   1      27.547  -7.762   4.304  0.00  0.00    -0.266 OA
ATOM     10  H   UNL d   1      30.246  -9.369   8.537  0.00  0.00     0.189 HD
ENDROOT
BRANCH   1  11
ATOM     11  C   UNL d   1      29.607 -12.082   7.967  0.00  0.00     0.026 A 
ATOM     12  C   UNL d   1      30.831 -12.711   7.762  0.00  0.00     0.078 A 
ATOM     13  C   UNL d   1      31.154 -13.874   8.466  0.00  0.00     0.038 A 
ATOM     14  C   UNL d   1      30.272 -14.392   9.421  0.00  0.00     0.009 A 
ATOM     15  C   UNL d   1      29.051 -13.771   9.659  0.00  0.00    -0.061 A 
ATOM     16  C   UNL d   1      28.111 -14.248  10.726  0.00  0.00     0.048 C 
ATOM     17  C   UNL d   1      28.720 -12.658   8.885  0.00  0.00     0.023 A 
BRANCH  12  18
ATOM     18  O   UNL d   1      31.716 -12.174   6.870  0.00  0.00    -0.360 OA
ATOM     19  H   UNL d   1      32.133 -12.892   6.367  0.00  0.00     0.217 HD
ENDBRANCH  12  18
ENDBRANCH   1  11
BRANCH   6  20
ATOM     20  C   UNL d   1      28.551 -12.418   4.668  0.00  0.00     0.008 A 
ATOM     21  C   UNL d   1      29.817 -12.231   4.083  0.00  0.00     0.012 A 
ATOM     22  C   UNL d   1      30.613 -13.330   3.782  0.00  0.00     0.001 A 
ATOM     23  C   UNL d   1      30.144 -14.623   4.029  0.00  0.00     0.003 A 
ATOM     24  C   UNL d   1      28.881 -14.824   4.583  0.00  0.00     0.043 A 
ATOM     25  C   UNL d   1      28.102 -13.725   4.918  0.00  0.00     0.125 A 
ATOM     26  F   UNL d   1      26.904 -13.935   5.481  0.00  0.00    -0.205 F 
ENDBRANCH   6  20
BRANCH   7  27
ATOM     27  C   UNL d   1      27.391 -10.320   2.681  0.00  0.00     0.153 C 
BRANCH  27  28
ATOM     28  C   UNL d   1      26.063  -9.786   2.105  0.00  0.00     0.184 C 
BRANCH  28  29
ATOM     29  O   UNL d   1      25.754  -8.450   2.465  0.00  0.00    -0.399 OA
ATOM     30  H   UNL d   1      26.555  -8.039   2.820  0.00  0.00     0.209 HD
ENDBRANCH  28  29
ENDBRANCH  27  28
ENDBRANCH   7  27
TORSDOF 6
ENDMDL
MODEL 5
REMARK VINA RESULT:    -5.370      2.973      6.675
REMARK INTER + INTRA:          -9.829
REMARK INTER:                  -7.160
REMARK INTRA:                  -2.669
REMARK CONF_INDEPENDENT:        1.790
REMARK UNBOUND:                -2.669
REMARK  6 active torsions:
REMARK  status: ('A' for Active; 'I' for Inactive)
REMARK    1  A    between atoms: C_5  and  O_6 
REMARK    2  A    between atoms: C_7  and  C_8 
REMARK    3  A    between atoms: C_13  and  C_14 
REMARK    4  A    between atoms: N_21  and  C_22 
REMARK    5  A    between atoms: C_22  and  C_23 
REMARK    6  A    between atoms: C_23  and  O_24 
ROOT
ATOM      1  C   UNL d   1      25.980 -13.147  -4.387  0.00  0.00     0.074 A 
ATOM      2  N   UNL d   1      24.621 -13.230  -4.615  0.00  0.00    -0.276 N 
ATOM      3  N   UNL d   1      23.961 -14.085  -3.774  0.00  0.00    -0.168 NA
ATOM      4  C   UNL d   1      24.946 -14.544  -2.998  0.00  0.00     0.155 A 
ATOM      5  C   UNL d   1      26.182 -14.003  -3.338  0.00  0.00     0.035 A 
ATOM      6  C   UNL d   1      27.233 -14.564  -2.480  0.00  0.00     0.162 C 
ATOM      7  N   UNL d   1      26.531 -15.694  -1.836  0.00  0.00    -0.331 N 
ATOM      8  C   UNL d   1      25.125 -15.548  -1.951  0.00  0.00     0.275 C 
ATOM      9  O   UNL d   1      24.262 -16.138  -1.308  0.00  0.00    -0.266 OA
ATOM     10  H   UNL d   1      24.102 -12.751  -5.344  0.00  0.00     0.189 HD
ENDROOT
BRANCH   1  11
ATOM     11  C   UNL d   1      26.912 -12.339  -5.163  0.00  0.00     0.026 A 
ATOM     12  C   UNL d   1      26.493 -11.487  -6.180  0.00  0.00     0.078 A 
ATOM     13  C   UNL d   1      27.416 -10.675  -6.845  0.00  0.00     0.038 A 
ATOM     14  C   UNL d   1      28.762 -10.672  -6.463  0.00  0.00     0.009 A 
ATOM     15  C   UNL d   1      29.202 -11.499  -5.435  0.00  0.00    -0.061 A 
ATOM     16  C   UNL d   1      30.618 -11.470  -4.942  0.00  0.00     0.048 C 
ATOM     17  C   UNL d   1      28.275 -12.357  -4.842  0.00  0.00     0.023 A 
BRANCH  12  18
ATOM     18  O   UNL d   1      25.170 -11.449  -6.517  0.00  0.00    -0.360 OA
ATOM     19  H   UNL d   1      24.656 -11.159  -5.746  0.00  0.00     0.217 HD
ENDBRANCH  12  18
ENDBRANCH   1  11
BRANCH   6  20
ATOM     20  C   UNL d   1      28.404 -14.897  -3.336  0.00  0.00     0.008 A 
ATOM     21  C   UNL d   1      29.698 -14.633  -2.848  0.00  0.00     0.012 A 
ATOM     22  C   UNL d   1      30.811 -15.051  -3.570  0.00  0.00     0.001 A 
ATOM     23  C   UNL d   1      30.648 -15.704  -4.794  0.00  0.00     0.003 A 
ATOM     24  C   UNL d   1      29.373 -15.948  -5.302  0.00  0.00     0.043 A 
ATOM     25  C   UNL d   1      28.262 -15.564  -4.564  0.00  0.00     0.125 A 
ATOM     26  F   UNL d   1      27.042 -15.836  -5.050  0.00  0.00    -0.205 F 
ENDBRANCH   6  20
BRANCH   7  27
ATOM     27  C   UNL d   1      27.203 -16.879  -1.258  0.00  0.00     0.153 C 
BRANCH  27  28
ATOM     28  C   UNL d   1      26.656 -17.417   0.082  0.00  0.00     0.184 C 
BRANCH  28  29
ATOM     29  O   UNL d   1      25.454 -18.162  -0.024  0.00  0.00    -0.399 OA
ATOM     30  H   UNL d   1      24.727 -17.543  -0.183  0.00  0.00     0.209 HD
ENDBRANCH  28  29
ENDBRANCH  27  28
ENDBRANCH   7  27
TORSDOF 6
ENDMDL
MODEL 6
REMARK VINA RESULT:    -5.242      1.628      2.092
REMARK INTER + INTRA:          -9.972
REMARK INTER:                  -7.032
REMARK INTRA:                  -2.940
REMARK CONF_INDEPENDENT:        1.790
REMARK UNBOUND:                -2.940
REMARK  6 active torsions:
REMARK  status: ('A' for Active; 'I' for Inactive)
REMARK    1  A    between atoms: C_5  and  O_6 
REMARK    2  A    between atoms: C_7  and  C_8 
REMARK    3  A    between atoms: C_13  and  C_14 
REMARK    4  A    between atoms: N_21  and  C_22 
REMARK    5  A    between atoms: C_22  and  C_23 
REMARK    6  A    between atoms: C_23  and  O_24 
ROOT
ATOM      1  C   UNL d   1      27.265 -13.631  -0.392  0.00  0.00     0.074 A 
ATOM      2  N   UNL d   1      28.088 -12.982   0.507  0.00  0.00    -0.276 N 
ATOM      3  N   UNL d   1      28.192 -11.633   0.302  0.00  0.00    -0.168 NA
ATOM      4  C   UNL d   1      27.404 -11.441  -0.759  0.00  0.00     0.155 A 
ATOM      5  C   UNL d   1      26.827 -12.624  -1.210  0.00  0.00     0.035 A 
ATOM      6  C   UNL d   1      26.000 -12.365  -2.394  0.00  0.00     0.162 C 
ATOM      7  N   UNL d   1      26.406 -10.990  -2.756  0.00  0.00    -0.331 N 
ATOM      8  C   UNL d   1      27.051 -10.351  -1.666  0.00  0.00     0.275 C 
ATOM      9  O   UNL d   1      27.260  -9.149  -1.529  0.00  0.00    -0.266 OA
ATOM     10  H   UNL d   1      28.622 -13.413   1.255  0.00  0.00     0.189 HD
ENDROOT
BRANCH   1  11
ATOM     11  C   UNL d   1      27.015 -15.066  -0.413  0.00  0.00     0.026 A 
ATOM     12  C   UNL d   1      27.898 -15.987   0.143  0.00  0.00     0.078 A 
ATOM     13  C   UNL d   1      27.578 -17.347   0.166  0.00  0.00     0.038 A 
ATOM     14  C   UNL d   1      26.345 -17.793  -0.324  0.00  0.00     0.009 A 
ATOM     15  C   UNL d   1      25.436 -16.891  -0.866  0.00  0.00    -0.061 A 
ATOM     16  C   UNL d   1      24.075 -17.315  -1.330  0.00  0.00     0.048 C 
ATOM     17  C   UNL d   1      25.814 -15.550  -0.949  0.00  0.00     0.023 A 
BRANCH  12  18
ATOM     18  O   UNL d   1      29.078 -15.544   0.671  0.00  0.00    -0.360 OA
ATOM     19  H   UNL d   1      29.370 -16.167   1.356  0.00  0.00     0.217 HD
ENDBRANCH  12  18
ENDBRANCH   1  11
BRANCH   6  20
ATOM     20  C   UNL d   1      26.272 -13.433  -3.395  0.00  0.00     0.008 A 
ATOM     21  C   UNL d   1      27.606 -13.722  -3.734  0.00  0.00     0.012 A 
ATOM     22  C   UNL d   1      27.895 -14.799  -4.566  0.00  0.00     0.001 A 
ATOM     23  C   UNL d   1      26.858 -15.574  -5.092  0.00  0.00     0.003 A 
ATOM     24  C   UNL d   1      25.530 -15.283  -4.785  0.00  0.00     0.043 A 
ATOM     25  C   UNL d   1      25.246 -14.232  -3.926  0.00  0.00     0.125 A 
ATOM     26  F   UNL d   1      23.965 -13.985  -3.614  0.00  0.00    -0.205 F 
ENDBRANCH   6  20
BRANCH   7  27
ATOM     27  C   UNL d   1      26.268 -10.402  -4.106  0.00  0.00     0.153 C 
BRANCH  27  28
ATOM     28  C   UNL d   1      25.201  -9.303  -4.292  0.00  0.00     0.184 C 
BRANCH  28  29
ATOM     29  O   UNL d   1      25.240  -8.266  -3.326  0.00  0.00    -0.399 OA
ATOM     30  H   UNL d   1      25.354  -8.670  -2.453  0.00  0.00     0.209 HD
ENDBRANCH  28  29
ENDBRANCH  27  28
ENDBRANCH   7  27
TORSDOF 6
ENDMDL
MODEL 7
REMARK VINA RESULT:    -5.159      2.521      6.602
REMARK INTER + INTRA:          -9.779
REMARK INTER:                  -6.949
REMARK INTRA:                  -2.830
REMARK CONF_INDEPENDENT:        1.790
REMARK UNBOUND:                -2.830
REMARK  6 active torsions:
REMARK  status: ('A' for Active; 'I' for Inactive)
REMARK    1  A    between atoms: C_5  and  O_6 
REMARK    2  A    between atoms: C_7  and  C_8 
REMARK    3  A    between atoms: C_13  and  C_14 
REMARK    4  A    between atoms: N_21  and  C_22 
REMARK    5  A    between atoms: C_22  and  C_23 
REMARK    6  A    between atoms: C_23  and  O_24 
ROOT
ATOM      1  C   UNL d   1      25.579 -12.774  -3.676  0.00  0.00     0.074 A 
ATOM      2  N   UNL d   1      24.989 -13.508  -4.685  0.00  0.00    -0.276 N 
ATOM      3  N   UNL d   1      24.780 -14.825  -4.375  0.00  0.00    -0.168 NA
ATOM      4  C   UNL d   1      25.254 -14.906  -3.129  0.00  0.00     0.155 A 
ATOM      5  C   UNL d   1      25.748 -13.689  -2.671  0.00  0.00     0.035 A 
ATOM      6  C   UNL d   1      26.288 -13.840  -1.315  0.00  0.00     0.162 C 
ATOM      7  N   UNL d   1      26.336 -15.309  -1.166  0.00  0.00    -0.331 N 
ATOM      8  C   UNL d   1      25.511 -15.942  -2.131  0.00  0.00     0.275 C 
ATOM      9  O   UNL d   1      25.109 -17.102  -2.117  0.00  0.00    -0.266 OA
ATOM     10  H   UNL d   1      24.738 -13.170  -5.609  0.00  0.00     0.189 HD
ENDROOT
BRANCH   1  11
ATOM     11  C   UNL d   1      25.938 -11.365  -3.765  0.00  0.00     0.026 A 
ATOM     12  C   UNL d   1      25.893 -10.657  -4.962  0.00  0.00     0.078 A 
ATOM     13  C   UNL d   1      26.174  -9.288  -4.985  0.00  0.00     0.038 A 
ATOM     14  C   UNL d   1      26.455  -8.604  -3.797  0.00  0.00     0.009 A 
ATOM     15  C   UNL d   1      26.486  -9.284  -2.584  0.00  0.00    -0.061 A 
ATOM     16  C   UNL d   1      26.706  -8.576  -1.281  0.00  0.00     0.048 C 
ATOM     17  C   UNL d   1      26.280 -10.664  -2.602  0.00  0.00     0.023 A 
BRANCH  12  18
ATOM     18  O   UNL d   1      25.565 -11.315  -6.114  0.00  0.00    -0.360 OA
ATOM     19  H   UNL d   1      24.612 -11.499  -6.111  0.00  0.00     0.217 HD
ENDBRANCH  12  18
ENDBRANCH   1  11
BRANCH   6  20
ATOM     20  C   UNL d   1      27.584 -13.111  -1.245  0.00  0.00     0.008 A 
ATOM     21  C   UNL d   1      28.505 -13.264  -2.298  0.00  0.00     0.012 A 
ATOM     22  C   UNL d   1      29.666 -12.498  -2.322  0.00  0.00     0.001 A 
ATOM     23  C   UNL d   1      29.934 -11.599  -1.286  0.00  0.00     0.003 A 
ATOM     24  C   UNL d   1      29.043 -11.457  -0.224  0.00  0.00     0.043 A 
ATOM     25  C   UNL d   1      27.868 -12.195  -0.219  0.00  0.00     0.125 A 
ATOM     26  F   UNL d   1      27.005 -12.023   0.793  0.00  0.00    -0.205 F 
ENDBRANCH   6  20
BRANCH   7  27
ATOM     27  C   UNL d   1      27.219 -16.028  -0.221  0.00  0.00     0.153 C 
BRANCH  27  28
ATOM     28  C   UNL d   1      26.834 -17.479   0.140  0.00  0.00     0.184 C 
BRANCH  28  29
ATOM     29  O   UNL d   1      25.465 -17.668   0.458  0.00  0.00    -0.399 OA
ATOM     30  H   UNL d   1      24.985 -17.846  -0.363  0.00  0.00     0.209 HD
ENDBRANCH  28  29
ENDBRANCH  27  28
ENDBRANCH   7  27
TORSDOF 6
ENDMDL
MODEL 8
REMARK VINA RESULT:    -4.948      2.279      4.054
REMARK INTER + INTRA:          -9.813
REMARK INTER:                  -6.738
REMARK INTRA:                  -3.075
REMARK CONF_INDEPENDENT:        1.790
REMARK UNBOUND:                -3.075
REMARK  6 active torsions:
REMARK  status: ('A' for Active; 'I' for Inactive)
REMARK    1  A    between atoms: C_5  and  O_6 
REMARK    2  A    between atoms: C_7  and  C_8 
REMARK    3  A    between atoms: C_13  and  C_14 
REMARK    4  A    between atoms: N_21  and  C_22 
REMARK    5  A    between atoms: C_22  and  C_23 
REMARK    6  A    between atoms: C_23  and  O_24 
ROOT
ATOM      1  C   UNL d   1      25.002 -14.909  -2.303  0.00  0.00     0.074 A 
ATOM      2  N   UNL d   1      23.995 -14.450  -3.129  0.00  0.00    -0.276 N 
ATOM      3  N   UNL d   1      24.359 -13.404  -3.933  0.00  0.00    -0.168 NA
ATOM      4  C   UNL d   1      25.636 -13.211  -3.595  0.00  0.00     0.155 A 
ATOM      5  C   UNL d   1      26.062 -14.098  -2.611  0.00  0.00     0.035 A 
ATOM      6  C   UNL d   1      27.458 -13.822  -2.251  0.00  0.00     0.162 C 
ATOM      7  N   UNL d   1      27.686 -12.510  -2.892  0.00  0.00    -0.331 N 
ATOM      8  C   UNL d   1      26.702 -12.253  -3.881  0.00  0.00     0.275 C 
ATOM      9  O   UNL d   1      26.749 -11.412  -4.773  0.00  0.00    -0.266 OA
ATOM     10  H   UNL d   1      23.040 -14.794  -3.162  0.00  0.00     0.189 HD
ENDROOT
BRANCH   1  11
ATOM     11  C   UNL d   1      24.864 -15.984  -1.330  0.00  0.00     0.026 A 
ATOM     12  C   UNL d   1      23.626 -16.412  -0.861  0.00  0.00     0.078 A 
ATOM     13  C   UNL d   1      23.539 -17.498   0.014  0.00  0.00     0.038 A 
ATOM     14  C   UNL d   1      24.690 -18.200   0.388  0.00  0.00     0.009 A 
ATOM     15  C   UNL d   1      25.937 -17.806  -0.084  0.00  0.00    -0.061 A 
ATOM     16  C   UNL d   1      27.186 -18.575   0.230  0.00  0.00     0.048 C 
ATOM     17  C   UNL d   1      26.004 -16.670  -0.892  0.00  0.00     0.023 A 
BRANCH  12  18
ATOM     18  O   UNL d   1      22.496 -15.761  -1.270  0.00  0.00    -0.360 OA
ATOM     19  H   UNL d   1      21.734 -16.114  -0.783  0.00  0.00     0.217 HD
ENDBRANCH  12  18
ENDBRANCH   1  11
BRANCH   6  20
ATOM     20  C   UNL d   1      27.576 -13.879  -0.768  0.00  0.00     0.008 A 
ATOM     21  C   UNL d   1      26.655 -13.158   0.014  0.00  0.00     0.012 A 
ATOM     22  C   UNL d   1      26.662 -13.294   1.398  0.00  0.00     0.001 A 
ATOM     23  C   UNL d   1      27.603 -14.122   2.016  0.00  0.00     0.003 A 
ATOM     24  C   UNL d   1      28.538 -14.821   1.255  0.00  0.00     0.043 A 
ATOM     25  C   UNL d   1      28.507 -14.713  -0.128  0.00  0.00     0.125 A 
ATOM     26  F   UNL d   1      29.392 -15.418  -0.848  0.00  0.00    -0.205 F 
ENDBRANCH   6  20
BRANCH   7  27
ATOM     27  C   UNL d   1      28.724 -11.542  -2.475  0.00  0.00     0.153 C 
BRANCH  27  28
ATOM     28  C   UNL d   1      28.245 -10.245  -1.789  0.00  0.00     0.184 C 
BRANCH  28  29
ATOM     29  O   UNL d   1      27.202  -9.564  -2.467  0.00  0.00    -0.399 OA
ATOM     30  H   UNL d   1      27.229  -9.822  -3.400  0.00  0.00     0.209 HD
ENDBRANCH  28  29
ENDBRANCH  27  28
ENDBRANCH   7  27
TORSDOF 6
ENDMDL
MODEL 9
REMARK VINA RESULT:    -4.832      7.879     10.218
REMARK INTER + INTRA:          -9.584
REMARK INTER:                  -6.621
REMARK INTRA:                  -2.963
REMARK CONF_INDEPENDENT:        1.790
REMARK UNBOUND:                -2.963
REMARK  6 active torsions:
REMARK  status: ('A' for Active; 'I' for Inactive)
REMARK    1  A    between atoms: C_5  and  O_6 
REMARK    2  A    between atoms: C_7  and  C_8 
REMARK    3  A    between atoms: C_13  and  C_14 
REMARK    4  A    between atoms: N_21  and  C_22 
REMARK    5  A    between atoms: C_22  and  C_23 
REMARK    6  A    between atoms: C_23  and  O_24 
ROOT
ATOM      1  C   UNL d   1      28.838 -13.188   7.193  0.00  0.00     0.074 A 
ATOM      2  N   UNL d   1      28.906 -14.355   7.929  0.00  0.00    -0.276 N 
ATOM      3  N   UNL d   1      29.277 -14.177   9.234  0.00  0.00    -0.168 NA
ATOM      4  C   UNL d   1      29.443 -12.854   9.309  0.00  0.00     0.155 A 
ATOM      5  C   UNL d   1      29.189 -12.220   8.096  0.00  0.00     0.035 A 
ATOM      6  C   UNL d   1      29.418 -10.776   8.222  0.00  0.00     0.162 C 
ATOM      7  N   UNL d   1      30.118 -10.689   9.521  0.00  0.00    -0.331 N 
ATOM      8  C   UNL d   1      29.926 -11.873  10.278  0.00  0.00     0.275 C 
ATOM      9  O   UNL d   1      30.126 -12.026  11.480  0.00  0.00    -0.266 OA
ATOM     10  H   UNL d   1      28.738 -15.295   7.584  0.00  0.00     0.189 HD
ENDROOT
BRANCH   1  11
ATOM     11  C   UNL d   1      28.502 -13.108   5.778  0.00  0.00     0.026 A 
ATOM     12  C   UNL d   1      28.516 -14.221   4.943  0.00  0.00     0.078 A 
ATOM     13  C   UNL d   1      28.112 -14.109   3.610  0.00  0.00     0.038 A 
ATOM     14  C   UNL d   1      27.642 -12.889   3.113  0.00  0.00     0.009 A 
ATOM     15  C   UNL d   1      27.599 -11.766   3.932  0.00  0.00    -0.061 A 
ATOM     16  C   UNL d   1      27.031 -10.460   3.462  0.00  0.00     0.048 C 
ATOM     17  C   UNL d   1      28.082 -11.887   5.235  0.00  0.00     0.023 A 
BRANCH  12  18
ATOM     18  O   UNL d   1      28.923 -15.426   5.444  0.00  0.00    -0.360 OA
ATOM     19  H   UNL d   1      29.230 -15.984   4.712  0.00  0.00     0.217 HD
ENDBRANCH  12  18
ENDBRANCH   1  11
BRANCH   6  20
ATOM     20  C   UNL d   1      30.167 -10.316   7.020  0.00  0.00     0.008 A 
ATOM     21  C   UNL d   1      31.249 -11.088   6.559  0.00  0.00     0.012 A 
ATOM     22  C   UNL d   1      31.884 -10.753   5.367  0.00  0.00     0.001 A 
ATOM     23  C   UNL d   1      31.468  -9.632   4.644  0.00  0.00     0.003 A 
ATOM     24  C   UNL d   1      30.414  -8.844   5.102  0.00  0.00     0.043 A 
ATOM     25  C   UNL d   1      29.758  -9.200   6.272  0.00  0.00     0.125 A 
ATOM     26  F   UNL d   1      28.724  -8.451   6.682  0.00  0.00    -0.205 F 
ENDBRANCH   6  20
BRANCH   7  27
ATOM     27  C   UNL d   1      30.999  -9.572   9.926  0.00  0.00     0.153 C 
BRANCH  27  28
ATOM     28  C   UNL d   1      30.517  -8.679  11.089  0.00  0.00     0.184 C 
BRANCH  28  29
ATOM     29  O   UNL d   1      30.034  -9.386  12.220  0.00  0.00    -0.399 OA
ATOM     30  H   UNL d   1      29.516 -10.141  11.906  0.00  0.00     0.209 HD
ENDBRANCH  28  29
ENDBRANCH  27  28
ENDBRANCH   7  27
TORSDOF 6
ENDMDL
