MODEL 1
REMARK VINA RESULT:    -8.105      0.000      0.000
REMARK INTER + INTRA:         -12.336
REMARK INTER:                 -11.386
REMARK INTRA:                  -0.950
REMARK CONF_INDEPENDENT:        3.281
REMARK UNBOUND:                -0.950
REMARK  11 active torsions:
REMARK  status: ('A' for Active; 'I' for Inactive)
REMARK    1  A    between atoms: C_2  and  N_3 
REMARK    2  A    between atoms: N_3  and  C_4 
REMARK    3  A    between atoms: N_3  and  C_6 
REMARK    4  A    between atoms: C_9  and  C_10 
REMARK    5  A    between atoms: N_11  and  N_12 
REMARK       I    between atoms: N_12  and  C_13 
REMARK    6  A    between atoms: C_13  and  C_15 
REMARK    7  A    between atoms: C_15  and  C_16 
REMARK    8  A    between atoms: C_16  and  C_17 
REMARK    9  A    between atoms: C_17  and  N_18 
REMARK   10  A    between atoms: N_18  and  C_19 
REMARK   11  A    between atoms: C_25  and  O_26 
ROOT
ATOM      1  C   UNL d   1      26.182 -14.658  -2.167  0.00  0.00     0.152 C 
ATOM      2  N   UNL d   1      25.584 -15.753  -2.533  0.00  0.00    -0.184 NA
ENDROOT
BRANCH   2   3
ATOM      3  N   UNL d   1      25.561 -16.845  -1.687  0.00  0.00    -0.247 N 
ATOM      4  C   UNL d   1      24.454 -16.981  -0.839  0.00  0.00     0.237 C 
ATOM      5  O   UNL d   1      23.527 -16.180  -0.822  0.00  0.00    -0.272 OA
ATOM      6  H   UNL d   1      26.322 -17.516  -1.696  0.00  0.00     0.192 HD
BRANCH   4   7
ATOM      7  C   UNL d   1      24.463 -18.205   0.089  0.00  0.00     0.106 C 
BRANCH   7   8
ATOM      8  C   UNL d   1      23.648 -19.369  -0.522  0.00  0.00     0.029 C 
BRANCH   8   9
ATOM      9  C   UNL d   1      22.272 -18.932  -1.026  0.00  0.00     0.120 C 
BRANCH   9  10
ATOM     10  N   UNL d   1      21.402 -18.553   0.077  0.00  0.00    -0.390 N 
ATOM     11  H   UNL d   1      21.710 -17.826   0.718  0.00  0.00     0.159 HD
BRANCH  10  12
ATOM     12  C   UNL d   1      20.389 -19.380   0.542  0.00  0.00     0.027 A 
ATOM     13  C   UNL d   1      20.277 -19.605   1.921  0.00  0.00     0.029 A 
ATOM     14  C   UNL d   1      19.289 -20.448   2.443  0.00  0.00     0.002 A 
ATOM     15  C   UNL d   1      18.358 -21.038   1.593  0.00  0.00     0.000 A 
ATOM     16  C   UNL d   1      18.439 -20.810   0.224  0.00  0.00     0.002 A 
ATOM     17  C   UNL d   1      19.445 -19.986  -0.293  0.00  0.00     0.029 A 
ENDBRANCH  10  12
ENDBRANCH   9  10
ENDBRANCH   8   9
ENDBRANCH   7   8
ENDBRANCH   4   7
ENDBRANCH   2   3
BRANCH   1  18
ATOM     18  C   UNL d   1      26.222 -13.466  -3.085  0.00  0.00     0.016 A 
ATOM     19  C   UNL d   1      27.041 -12.369  -2.789  0.00  0.00     0.018 A 
ATOM     20  C   UNL d   1      27.101 -11.248  -3.662  0.00  0.00     0.030 A 
ATOM     21  C   UNL d   1      26.350 -11.168  -4.851  0.00  0.00     0.032 A 
ATOM     22  C   UNL d   1      25.530 -12.281  -5.116  0.00  0.00     0.066 A 
ATOM     23  C   UNL d   1      25.465 -13.403  -4.258  0.00  0.00     0.079 A 
BRANCH  21  24
ATOM     24  N   UNL d   1      26.406 -10.039  -5.712  0.00  0.00    -0.382 N 
BRANCH  24  25
ATOM     25  C   UNL d   1      27.120 -10.228  -6.997  0.00  0.00     0.118 C 
ATOM     26  C   UNL d   1      27.915 -11.503  -7.222  0.00  0.00     0.026 C 
ENDBRANCH  24  25
BRANCH  24  27
ATOM     27  C   UNL d   1      25.689  -8.830  -5.243  0.00  0.00     0.118 C 
ATOM     28  C   UNL d   1      24.407  -8.411  -5.941  0.00  0.00     0.026 C 
ENDBRANCH  24  27
ENDBRANCH  21  24
BRANCH  23  29
ATOM     29  O   UNL d   1      24.623 -14.410  -4.654  0.00  0.00    -0.360 OA
ATOM     30  H   UNL d   1      23.695 -14.078  -4.629  0.00  0.00     0.217 HD
ENDBRANCH  23  29
ENDBRANCH   1  18
TORSDOF 11
ENDMDL
MODEL 2
REMARK VINA RESULT:    -7.773      1.988      3.042
REMARK INTER + INTRA:         -12.426
REMARK INTER:                 -11.054
REMARK INTRA:                  -1.372
REMARK CONF_INDEPENDENT:        3.281
REMARK UNBOUND:                -1.372
REMARK  11 active torsions:
REMARK  status: ('A' for Active; 'I' for Inactive)
REMARK    1  A    between atoms: C_2  and  N_3 
REMARK    2  A    between atoms: N_3  and  C_4 
REMARK    3  A    between atoms: N_3  and  C_6 
REMARK    4  A    between atoms: C_9  and  C_10 
REMARK    5  A    between atoms: N_11  and  N_12 
REMARK       I    between atoms: N_12  and  C_13 
REMARK    6  A    between atoms: C_13  and  C_15 
REMARK    7  A    between atoms: C_15  and  C_16 
REMARK    8  A    between atoms: C_16  and  C_17 
REMARK    9  A    between atoms: C_17  and  N_18 
REMARK   10  A    between atoms: N_18  and  C_19 
REMARK   11  A    between atoms: C_25  and  O_26 
ROOT
ATOM      1  C   UNL d   1      25.855 -13.722  -3.783  0.00  0.00     0.152 C 
ATOM      2  N   UNL d   1      25.154 -14.818  -3.768  0.00  0.00    -0.184 NA
ENDROOT
BRANCH   2   3
ATOM      3  N   UNL d   1      24.439 -15.167  -2.638  0.00  0.00    -0.247 N 
ATOM      4  C   UNL d   1      25.011 -16.115  -1.780  0.00  0.00     0.237 C 
ATOM      5  O   UNL d   1      26.100 -16.635  -1.993  0.00  0.00    -0.272 OA
ATOM      6  H   UNL d   1      23.539 -14.740  -2.451  0.00  0.00     0.192 HD
BRANCH   4   7
ATOM      7  C   UNL d   1      24.187 -16.480  -0.536  0.00  0.00     0.106 C 
BRANCH   7   8
ATOM      8  C   UNL d   1      22.730 -16.829  -0.919  0.00  0.00     0.029 C 
BRANCH   8   9
ATOM      9  C   UNL d   1      22.411 -18.315  -0.752  0.00  0.00     0.120 C 
BRANCH   9  10
ATOM     10  N   UNL d   1      21.000 -18.581  -0.990  0.00  0.00    -0.390 N 
ATOM     11  H   UNL d   1      20.488 -17.979  -1.631  0.00  0.00     0.159 HD
BRANCH  10  12
ATOM     12  C   UNL d   1      20.226 -19.326  -0.112  0.00  0.00     0.027 A 
ATOM     13  C   UNL d   1      20.553 -19.323   1.251  0.00  0.00     0.029 A 
ATOM     14  C   UNL d   1      19.820 -20.074   2.177  0.00  0.00     0.002 A 
ATOM     15  C   UNL d   1      18.709 -20.802   1.760  0.00  0.00     0.000 A 
ATOM     16  C   UNL d   1      18.355 -20.801   0.415  0.00  0.00     0.002 A 
ATOM     17  C   UNL d   1      19.108 -20.067  -0.509  0.00  0.00     0.029 A 
ENDBRANCH  10  12
ENDBRANCH   9  10
ENDBRANCH   8   9
ENDBRANCH   7   8
ENDBRANCH   4   7
ENDBRANCH   2   3
BRANCH   1  18
ATOM     18  C   UNL d   1      26.646 -13.337  -5.004  0.00  0.00     0.016 A 
ATOM     19  C   UNL d   1      26.658 -12.011  -5.453  0.00  0.00     0.018 A 
ATOM     20  C   UNL d   1      27.420 -11.634  -6.593  0.00  0.00     0.030 A 
ATOM     21  C   UNL d   1      28.186 -12.555  -7.333  0.00  0.00     0.032 A 
ATOM     22  C   UNL d   1      28.146 -13.881  -6.864  0.00  0.00     0.066 A 
ATOM     23  C   UNL d   1      27.397 -14.266  -5.729  0.00  0.00     0.079 A 
BRANCH  21  24
ATOM     24  N   UNL d   1      28.936 -12.173  -8.479  0.00  0.00    -0.382 N 
BRANCH  24  25
ATOM     25  C   UNL d   1      28.223 -12.224  -9.777  0.00  0.00     0.118 C 
ATOM     26  C   UNL d   1      26.860 -11.563  -9.900  0.00  0.00     0.026 C 
ENDBRANCH  24  25
BRANCH  24  27
ATOM     27  C   UNL d   1      30.320 -11.711  -8.224  0.00  0.00     0.118 C 
ATOM     28  C   UNL d   1      31.473 -12.392  -8.941  0.00  0.00     0.026 C 
ENDBRANCH  24  27
ENDBRANCH  21  24
BRANCH  23  29
ATOM     29  O   UNL d   1      27.461 -15.595  -5.393  0.00  0.00    -0.360 OA
ATOM     30  H   UNL d   1      26.555 -15.910  -5.165  0.00  0.00     0.217 HD
ENDBRANCH  23  29
ENDBRANCH   1  18
TORSDOF 11
ENDMDL
MODEL 3
REMARK VINA RESULT:    -7.718      1.746      2.511
REMARK INTER + INTRA:         -12.513
REMARK INTER:                 -11.000
REMARK INTRA:                  -1.514
REMARK CONF_INDEPENDENT:        3.281
REMARK UNBOUND:                -1.514
REMARK  11 active torsions:
REMARK  status: ('A' for Active; 'I' for Inactive)
REMARK    1  A    between atoms: C_2  and  N_3 
REMARK    2  A    between atoms: N_3  and  C_4 
REMARK    3  A    between atoms: N_3  and  C_6 
REMARK    4  A    between atoms: C_9  and  C_10 
REMARK    5  A    between atoms: N_11  and  N_12 
REMARK       I    between atoms: N_12  and  C_13 
REMARK    6  A    between atoms: C_13  and  C_15 
REMARK    7  A    between atoms: C_15  and  C_16 
REMARK    8  A    between atoms: C_16  and  C_17 
REMARK    9  A    between atoms: C_17  and  N_18 
REMARK   10  A    between atoms: N_18  and  C_19 
REMARK   11  A    between atoms: C_25  and  O_26 
ROOT
ATOM      1  C   UNL d   1      25.472 -13.997  -3.220  0.00  0.00     0.152 C 
ATOM      2  N   UNL d   1      24.995 -15.206  -3.272  0.00  0.00    -0.184 NA
ENDROOT
BRANCH   2   3
ATOM      3  N   UNL d   1      24.296 -15.722  -2.197  0.00  0.00    -0.247 N 
ATOM      4  C   UNL d   1      24.938 -16.691  -1.415  0.00  0.00     0.237 C 
ATOM      5  O   UNL d   1      26.073 -17.090  -1.649  0.00  0.00    -0.272 OA
ATOM      6  H   UNL d   1      23.358 -15.396  -1.994  0.00  0.00     0.192 HD
BRANCH   4   7
ATOM      7  C   UNL d   1      24.131 -17.243  -0.231  0.00  0.00     0.106 C 
BRANCH   7   8
ATOM      8  C   UNL d   1      22.614 -17.208  -0.529  0.00  0.00     0.029 C 
BRANCH   8   9
ATOM      9  C   UNL d   1      22.115 -18.477  -1.222  0.00  0.00     0.120 C 
BRANCH   9  10
ATOM     10  N   UNL d   1      20.663 -18.564  -1.181  0.00  0.00    -0.390 N 
ATOM     11  H   UNL d   1      20.115 -17.840  -1.638  0.00  0.00     0.159 HD
BRANCH  10  12
ATOM     12  C   UNL d   1      19.991 -19.323  -0.234  0.00  0.00     0.027 A 
ATOM     13  C   UNL d   1      20.454 -19.325   1.089  0.00  0.00     0.029 A 
ATOM     14  C   UNL d   1      19.829 -20.090   2.079  0.00  0.00     0.002 A 
ATOM     15  C   UNL d   1      18.689 -20.829   1.772  0.00  0.00     0.000 A 
ATOM     16  C   UNL d   1      18.201 -20.824   0.470  0.00  0.00     0.002 A 
ATOM     17  C   UNL d   1      18.847 -20.075  -0.521  0.00  0.00     0.029 A 
ENDBRANCH  10  12
ENDBRANCH   9  10
ENDBRANCH   8   9
ENDBRANCH   7   8
ENDBRANCH   4   7
ENDBRANCH   2   3
BRANCH   1  18
ATOM     18  C   UNL d   1      26.243 -13.430  -4.381  0.00  0.00     0.016 A 
ATOM     19  C   UNL d   1      26.177 -12.062  -4.676  0.00  0.00     0.018 A 
ATOM     20  C   UNL d   1      26.920 -11.513  -5.757  0.00  0.00     0.030 A 
ATOM     21  C   UNL d   1      27.743 -12.296  -6.589  0.00  0.00     0.032 A 
ATOM     22  C   UNL d   1      27.780 -13.667  -6.274  0.00  0.00     0.066 A 
ATOM     23  C   UNL d   1      27.051 -14.223  -5.199  0.00  0.00     0.079 A 
BRANCH  21  24
ATOM     24  N   UNL d   1      28.472 -11.742  -7.676  0.00  0.00    -0.382 N 
BRANCH  24  25
ATOM     25  C   UNL d   1      29.864 -11.323  -7.388  0.00  0.00     0.118 C 
ATOM     26  C   UNL d   1      30.541 -10.322  -8.310  0.00  0.00     0.026 C 
ENDBRANCH  24  25
BRANCH  24  27
ATOM     27  C   UNL d   1      27.768 -11.711  -8.980  0.00  0.00     0.118 C 
ATOM     28  C   UNL d   1      28.365 -12.453 -10.163  0.00  0.00     0.026 C 
ENDBRANCH  24  27
ENDBRANCH  21  24
BRANCH  23  29
ATOM     29  O   UNL d   1      27.193 -15.575  -5.016  0.00  0.00    -0.360 OA
ATOM     30  H   UNL d   1      26.726 -15.836  -4.187  0.00  0.00     0.217 HD
ENDBRANCH  23  29
ENDBRANCH   1  18
TORSDOF 11
ENDMDL
MODEL 4
REMARK VINA RESULT:    -7.415      1.209      1.785
REMARK INTER + INTRA:         -11.609
REMARK INTER:                 -10.697
REMARK INTRA:                  -0.912
REMARK CONF_INDEPENDENT:        3.281
REMARK UNBOUND:                -0.912
REMARK  11 active torsions:
REMARK  status: ('A' for Active; 'I' for Inactive)
REMARK    1  A    between atoms: C_2  and  N_3 
REMARK    2  A    between atoms: N_3  and  C_4 
REMARK    3  A    between atoms: N_3  and  C_6 
REMARK    4  A    between atoms: C_9  and  C_10 
REMARK    5  A    between atoms: N_11  and  N_12 
REMARK       I    between atoms: N_12  and  C_13 
REMARK    6  A    between atoms: C_13  and  C_15 
REMARK    7  A    between atoms: C_15  and  C_16 
REMARK    8  A    between atoms: C_16  and  C_17 
REMARK    9  A    between atoms: C_17  and  N_18 
REMARK   10  A    between atoms: N_18  and  C_19 
REMARK   11  A    between atoms: C_25  and  O_26 
ROOT
ATOM      1  C   UNL d   1      25.878 -15.588  -3.092  0.00  0.00     0.152 C 
ATOM      2  N   UNL d   1      26.100 -15.661  -1.812  0.00  0.00    -0.184 NA
ENDROOT
BRANCH   2   3
ATOM      3  N   UNL d   1      25.885 -16.847  -1.138  0.00  0.00    -0.247 N 
ATOM      4  C   UNL d   1      24.630 -17.032  -0.541  0.00  0.00     0.237 C 
ATOM      5  O   UNL d   1      23.738 -16.194  -0.596  0.00  0.00    -0.272 OA
ATOM      6  H   UNL d   1      26.616 -17.548  -1.091  0.00  0.00     0.192 HD
BRANCH   4   7
ATOM      7  C   UNL d   1      24.428 -18.361   0.201  0.00  0.00     0.106 C 
BRANCH   7   8
ATOM      8  C   UNL d   1      23.530 -19.320  -0.615  0.00  0.00     0.029 C 
BRANCH   8   9
ATOM      9  C   UNL d   1      22.142 -18.742  -0.895  0.00  0.00     0.120 C 
BRANCH   9  10
ATOM     10  N   UNL d   1      21.377 -18.587   0.332  0.00  0.00    -0.390 N 
ATOM     11  H   UNL d   1      21.799 -18.094   1.115  0.00  0.00     0.159 HD
BRANCH  10  12
ATOM     12  C   UNL d   1      20.298 -19.402   0.643  0.00  0.00     0.027 A 
ATOM     13  C   UNL d   1      19.558 -19.975  -0.400  0.00  0.00     0.029 A 
ATOM     14  C   UNL d   1      18.446 -20.786  -0.144  0.00  0.00     0.002 A 
ATOM     15  C   UNL d   1      18.088 -21.082   1.168  0.00  0.00     0.000 A 
ATOM     16  C   UNL d   1      18.822 -20.541   2.217  0.00  0.00     0.002 A 
ATOM     17  C   UNL d   1      19.918 -19.710   1.953  0.00  0.00     0.029 A 
ENDBRANCH  10  12
ENDBRANCH   9  10
ENDBRANCH   8   9
ENDBRANCH   7   8
ENDBRANCH   4   7
ENDBRANCH   2   3
BRANCH   1  18
ATOM     18  C   UNL d   1      26.099 -14.298  -3.834  0.00  0.00     0.016 A 
ATOM     19  C   UNL d   1      25.571 -13.097  -3.344  0.00  0.00     0.018 A 
ATOM     20  C   UNL d   1      25.795 -11.870  -4.027  0.00  0.00     0.030 A 
ATOM     21  C   UNL d   1      26.537 -11.789  -5.221  0.00  0.00     0.032 A 
ATOM     22  C   UNL d   1      27.046 -13.013  -5.693  0.00  0.00     0.066 A 
ATOM     23  C   UNL d   1      26.835 -14.237  -5.020  0.00  0.00     0.079 A 
BRANCH  21  24
ATOM     24  N   UNL d   1      26.746 -10.560  -5.904  0.00  0.00    -0.382 N 
BRANCH  24  25
ATOM     25  C   UNL d   1      27.280  -9.440  -5.095  0.00  0.00     0.118 C 
ATOM     26  C   UNL d   1      28.770  -9.382  -4.803  0.00  0.00     0.026 C 
ENDBRANCH  24  25
BRANCH  24  27
ATOM     27  C   UNL d   1      26.460 -10.571  -7.358  0.00  0.00     0.118 C 
ATOM     28  C   UNL d   1      26.930  -9.408  -8.215  0.00  0.00     0.026 C 
ENDBRANCH  24  27
ENDBRANCH  21  24
BRANCH  23  29
ATOM     29  O   UNL d   1      27.398 -15.344  -5.603  0.00  0.00    -0.360 OA
ATOM     30  H   UNL d   1      28.350 -15.388  -5.351  0.00  0.00     0.217 HD
ENDBRANCH  23  29
ENDBRANCH   1  18
TORSDOF 11
ENDMDL
MODEL 5
REMARK VINA RESULT:    -7.058      3.287      4.085
REMARK INTER + INTRA:         -11.728
REMARK INTER:                 -10.339
REMARK INTRA:                  -1.388
REMARK CONF_INDEPENDENT:        3.281
REMARK UNBOUND:                -1.388
REMARK  11 active torsions:
REMARK  status: ('A' for Active; 'I' for Inactive)
REMARK    1  A    between atoms: C_2  and  N_3 
REMARK    2  A    between atoms: N_3  and  C_4 
REMARK    3  A    between atoms: N_3  and  C_6 
REMARK    4  A    between atoms: C_9  and  C_10 
REMARK    5  A    between atoms: N_11  and  N_12 
REMARK       I    between atoms: N_12  and  C_13 
REMARK    6  A    between atoms: C_13  and  C_15 
REMARK    7  A    between atoms: C_15  and  C_16 
REMARK    8  A    between atoms: C_16  and  C_17 
REMARK    9  A    between atoms: C_17  and  N_18 
REMARK   10  A    between atoms: N_18  and  C_19 
REMARK   11  A    between atoms: C_25  and  O_26 
ROOT
ATOM      1  C   UNL d   1      26.820 -15.483  -2.861  0.00  0.00     0.152 C 
ATOM      2  N   UNL d   1      25.611 -15.732  -3.272  0.00  0.00    -0.184 NA
ENDROOT
BRANCH   2   3
ATOM      3  N   UNL d   1      24.577 -15.837  -2.361  0.00  0.00    -0.247 N 
ATOM      4  C   UNL d   1      24.714 -16.780  -1.335  0.00  0.00     0.237 C 
ATOM      5  O   UNL d   1      25.698 -17.501  -1.221  0.00  0.00    -0.272 OA
ATOM      6  H   UNL d   1      23.761 -15.242  -2.445  0.00  0.00     0.192 HD
BRANCH   4   7
ATOM      7  C   UNL d   1      23.545 -16.870  -0.343  0.00  0.00     0.106 C 
BRANCH   7   8
ATOM      8  C   UNL d   1      23.092 -18.335  -0.150  0.00  0.00     0.029 C 
BRANCH   8   9
ATOM      9  C   UNL d   1      22.198 -18.836  -1.286  0.00  0.00     0.120 C 
BRANCH   9  10
ATOM     10  N   UNL d   1      20.795 -18.565  -1.011  0.00  0.00    -0.390 N 
ATOM     11  H   UNL d   1      20.424 -17.641  -1.218  0.00  0.00     0.159 HD
BRANCH  10  12
ATOM     12  C   UNL d   1      20.050 -19.331  -0.127  0.00  0.00     0.027 A 
ATOM     13  C   UNL d   1      20.414 -19.352   1.227  0.00  0.00     0.029 A 
ATOM     14  C   UNL d   1      19.711 -20.125   2.158  0.00  0.00     0.002 A 
ATOM     15  C   UNL d   1      18.593 -20.851   1.757  0.00  0.00     0.000 A 
ATOM     16  C   UNL d   1      18.202 -20.827   0.423  0.00  0.00     0.002 A 
ATOM     17  C   UNL d   1      18.925 -20.071  -0.507  0.00  0.00     0.029 A 
ENDBRANCH  10  12
ENDBRANCH   9  10
ENDBRANCH   8   9
ENDBRANCH   7   8
ENDBRANCH   4   7
ENDBRANCH   2   3
BRANCH   1  18
ATOM     18  C   UNL d   1      27.955 -15.377  -3.843  0.00  0.00     0.016 A 
ATOM     19  C   UNL d   1      29.283 -15.414  -3.400  0.00  0.00     0.018 A 
ATOM     20  C   UNL d   1      30.361 -15.337  -4.323  0.00  0.00     0.030 A 
ATOM     21  C   UNL d   1      30.166 -15.211  -5.712  0.00  0.00     0.032 A 
ATOM     22  C   UNL d   1      28.822 -15.166  -6.125  0.00  0.00     0.066 A 
ATOM     23  C   UNL d   1      27.742 -15.247  -5.217  0.00  0.00     0.079 A 
BRANCH  21  24
ATOM     24  N   UNL d   1      31.250 -15.122  -6.627  0.00  0.00    -0.382 N 
BRANCH  24  25
ATOM     25  C   UNL d   1      31.814 -16.406  -7.105  0.00  0.00     0.118 C 
ATOM     26  C   UNL d   1      32.656 -17.243  -6.156  0.00  0.00     0.026 C 
ENDBRANCH  24  25
BRANCH  24  27
ATOM     27  C   UNL d   1      31.640 -13.752  -7.038  0.00  0.00     0.118 C 
ATOM     28  C   UNL d   1      31.707 -13.413  -8.517  0.00  0.00     0.026 C 
ENDBRANCH  24  27
ENDBRANCH  21  24
BRANCH  23  29
ATOM     29  O   UNL d   1      26.488 -15.193  -5.773  0.00  0.00    -0.360 OA
ATOM     30  H   UNL d   1      25.824 -15.086  -5.053  0.00  0.00     0.217 HD
ENDBRANCH  23  29
ENDBRANCH   1  18
TORSDOF 11
ENDMDL
MODEL 6
REMARK VINA RESULT:    -6.578      4.160      9.931
REMARK INTER + INTRA:         -11.835
REMARK INTER:                  -9.859
REMARK INTRA:                  -1.976
REMARK CONF_INDEPENDENT:        3.281
REMARK UNBOUND:                -1.976
REMARK  11 active torsions:
REMARK  status: ('A' for Active; 'I' for Inactive)
REMARK    1  A    between atoms: C_2  and  N_3 
REMARK    2  A    between atoms: N_3  and  C_4 
REMARK    3  A    between atoms: N_3  and  C_6 
REMARK    4  A    between atoms: C_9  and  C_10 
REMARK    5  A    between atoms: N_11  and  N_12 
REMARK       I    between atoms: N_12  and  C_13 
REMARK    6  A    between atoms: C_13  and  C_15 
REMARK    7  A    between atoms: C_15  and  C_16 
REMARK    8  A    between atoms: C_16  and  C_17 
REMARK    9  A    between atoms: C_17  and  N_18 
REMARK   10  A    between atoms: N_18  and  C_19 
REMARK   11  A    between atoms: C_25  and  O_26 
ROOT
ATOM      1  C   UNL d   1      28.104 -14.690  -4.990  0.00  0.00     0.152 C 
ATOM      2  N   UNL d   1      27.794 -14.962  -6.223  0.00  0.00    -0.184 NA
ENDROOT
BRANCH   2   3
ATOM      3  N   UNL d   1      28.511 -14.394  -7.259  0.00  0.00    -0.247 N 
ATOM      4  C   UNL d   1      28.752 -13.016  -7.198  0.00  0.00     0.237 C 
ATOM      5  O   UNL d   1      28.356 -12.311  -6.277  0.00  0.00    -0.272 OA
ATOM      6  H   UNL d   1      28.847 -14.970  -8.024  0.00  0.00     0.192 HD
BRANCH   4   7
ATOM      7  C   UNL d   1      29.551 -12.420  -8.366  0.00  0.00     0.106 C 
BRANCH   7   8
ATOM      8  C   UNL d   1      30.988 -12.988  -8.403  0.00  0.00     0.029 C 
BRANCH   8   9
ATOM      9  C   UNL d   1      31.278 -13.949  -7.249  0.00  0.00     0.120 C 
BRANCH   9  10
ATOM     10  N   UNL d   1      31.510 -15.301  -7.733  0.00  0.00    -0.390 N 
ATOM     11  H   UNL d   1      31.661 -15.447  -8.728  0.00  0.00     0.159 HD
BRANCH  10  12
ATOM     12  C   UNL d   1      31.139 -16.424  -7.007  0.00  0.00     0.027 A 
ATOM     13  C   UNL d   1      31.165 -17.676  -7.635  0.00  0.00     0.029 A 
ATOM     14  C   UNL d   1      30.780 -18.839  -6.958  0.00  0.00     0.002 A 
ATOM     15  C   UNL d   1      30.413 -18.773  -5.617  0.00  0.00     0.000 A 
ATOM     16  C   UNL d   1      30.400 -17.543  -4.969  0.00  0.00     0.002 A 
ATOM     17  C   UNL d   1      30.763 -16.381  -5.661  0.00  0.00     0.029 A 
ENDBRANCH  10  12
ENDBRANCH   9  10
ENDBRANCH   8   9
ENDBRANCH   7   8
ENDBRANCH   4   7
ENDBRANCH   2   3
BRANCH   1  18
ATOM     18  C   UNL d   1      27.323 -15.295  -3.855  0.00  0.00     0.016 A 
ATOM     19  C   UNL d   1      27.987 -15.851  -2.753  0.00  0.00     0.018 A 
ATOM     20  C   UNL d   1      27.257 -16.405  -1.667  0.00  0.00     0.030 A 
ATOM     21  C   UNL d   1      25.849 -16.436  -1.633  0.00  0.00     0.032 A 
ATOM     22  C   UNL d   1      25.212 -15.879  -2.757  0.00  0.00     0.066 A 
ATOM     23  C   UNL d   1      25.927 -15.321  -3.841  0.00  0.00     0.079 A 
BRANCH  21  24
ATOM     24  N   UNL d   1      25.127 -17.003  -0.548  0.00  0.00    -0.382 N 
BRANCH  24  25
ATOM     25  C   UNL d   1      23.662 -17.136  -0.732  0.00  0.00     0.118 C 
ATOM     26  C   UNL d   1      22.949 -18.343  -0.145  0.00  0.00     0.026 C 
ENDBRANCH  24  25
BRANCH  24  27
ATOM     27  C   UNL d   1      25.939 -17.448   0.609  0.00  0.00     0.118 C 
ATOM     28  C   UNL d   1      26.918 -18.595   0.430  0.00  0.00     0.026 C 
ENDBRANCH  24  27
ENDBRANCH  21  24
BRANCH  23  29
ATOM     29  O   UNL d   1      25.164 -14.814  -4.862  0.00  0.00    -0.360 OA
ATOM     30  H   UNL d   1      25.750 -14.615  -5.630  0.00  0.00     0.217 HD
ENDBRANCH  23  29
ENDBRANCH   1  18
TORSDOF 11
ENDMDL
MODEL 7
REMARK VINA RESULT:    -6.434      4.287      9.986
REMARK INTER + INTRA:         -11.756
REMARK INTER:                  -9.716
REMARK INTRA:                  -2.041
REMARK CONF_INDEPENDENT:        3.281
REMARK UNBOUND:                -2.041
REMARK  11 active torsions:
REMARK  status: ('A' for Active; 'I' for Inactive)
REMARK    1  A    between atoms: C_2  and  N_3 
REMARK    2  A    between atoms: N_3  and  C_4 
REMARK    3  A    between atoms: N_3  and  C_6 
REMARK    4  A    between atoms: C_9  and  C_10 
REMARK    5  A    between atoms: N_11  and  N_12 
REMARK       I    between atoms: N_12  and  C_13 
REMARK    6  A    between atoms: C_13  and  C_15 
REMARK    7  A    between atoms: C_15  and  C_16 
REMARK    8  A    between atoms: C_16  and  C_17 
REMARK    9  A    between atoms: C_17  and  N_18 
REMARK   10  A    between atoms: N_18  and  C_19 
REMARK   11  A    between atoms: C_25  and  O_26 
ROOT
ATOM      1  C   UNL d   1      28.196 -14.849  -4.997  0.00  0.00     0.152 C 
ATOM      2  N   UNL d   1      27.775 -14.950  -6.224  0.00  0.00    -0.184 NA
ENDROOT
BRANCH   2   3
ATOM      3  N   UNL d   1      28.531 -14.438  -7.261  0.00  0.00    -0.247 N 
ATOM      4  C   UNL d   1      28.916 -13.093  -7.176  0.00  0.00     0.237 C 
ATOM      5  O   UNL d   1      28.608 -12.371  -6.235  0.00  0.00    -0.272 OA
ATOM      6  H   UNL d   1      28.794 -15.028  -8.042  0.00  0.00     0.192 HD
BRANCH   4   7
ATOM      7  C   UNL d   1      29.754 -12.558  -8.347  0.00  0.00     0.106 C 
BRANCH   7   8
ATOM      8  C   UNL d   1      31.263 -12.776  -8.093  0.00  0.00     0.029 C 
BRANCH   8   9
ATOM      9  C   UNL d   1      31.549 -13.992  -7.209  0.00  0.00     0.120 C 
BRANCH   9  10
ATOM     10  N   UNL d   1      31.531 -15.223  -7.985  0.00  0.00    -0.390 N 
ATOM     11  H   UNL d   1      31.388 -15.168  -8.990  0.00  0.00     0.159 HD
BRANCH  10  12
ATOM     12  C   UNL d   1      31.291 -16.461  -7.407  0.00  0.00     0.027 A 
ATOM     13  C   UNL d   1      30.650 -16.517  -6.162  0.00  0.00     0.029 A 
ATOM     14  C   UNL d   1      30.403 -17.737  -5.523  0.00  0.00     0.002 A 
ATOM     15  C   UNL d   1      30.748 -18.932  -6.149  0.00  0.00     0.000 A 
ATOM     16  C   UNL d   1      31.366 -18.900  -7.394  0.00  0.00     0.002 A 
ATOM     17  C   UNL d   1      31.631 -17.674  -8.015  0.00  0.00     0.029 A 
ENDBRANCH  10  12
ENDBRANCH   9  10
ENDBRANCH   8   9
ENDBRANCH   7   8
ENDBRANCH   4   7
ENDBRANCH   2   3
BRANCH   1  18
ATOM     18  C   UNL d   1      27.376 -15.394  -3.860  0.00  0.00     0.016 A 
ATOM     19  C   UNL d   1      28.000 -15.945  -2.734  0.00  0.00     0.018 A 
ATOM     20  C   UNL d   1      27.233 -16.442  -1.645  0.00  0.00     0.030 A 
ATOM     21  C   UNL d   1      25.825 -16.422  -1.635  0.00  0.00     0.032 A 
ATOM     22  C   UNL d   1      25.226 -15.872  -2.784  0.00  0.00     0.066 A 
ATOM     23  C   UNL d   1      25.979 -15.370  -3.870  0.00  0.00     0.079 A 
BRANCH  21  24
ATOM     24  N   UNL d   1      25.065 -16.932  -0.548  0.00  0.00    -0.382 N 
BRANCH  24  25
ATOM     25  C   UNL d   1      25.835 -17.455   0.605  0.00  0.00     0.118 C 
ATOM     26  C   UNL d   1      26.671 -18.711   0.428  0.00  0.00     0.026 C 
ENDBRANCH  24  25
BRANCH  24  27
ATOM     27  C   UNL d   1      23.593 -16.821  -0.678  0.00  0.00     0.118 C 
ATOM     28  C   UNL d   1      22.740 -18.072  -0.550  0.00  0.00     0.026 C 
ENDBRANCH  24  27
ENDBRANCH  21  24
BRANCH  23  29
ATOM     29  O   UNL d   1      25.252 -14.861  -4.917  0.00  0.00    -0.360 OA
ATOM     30  H   UNL d   1      25.867 -14.642  -5.656  0.00  0.00     0.217 HD
ENDBRANCH  23  29
ENDBRANCH   1  18
TORSDOF 11
ENDMDL
MODEL 8
REMARK VINA RESULT:    -6.233      6.336      8.636
REMARK INTER + INTRA:         -11.614
REMARK INTER:                  -9.514
REMARK INTRA:                  -2.100
REMARK CONF_INDEPENDENT:        3.281
REMARK UNBOUND:                -2.100
REMARK  11 active torsions:
REMARK  status: ('A' for Active; 'I' for Inactive)
REMARK    1  A    between atoms: C_2  and  N_3 
REMARK    2  A    between atoms: N_3  and  C_4 
REMARK    3  A    between atoms: N_3  and  C_6 
REMARK    4  A    between atoms: C_9  and  C_10 
REMARK    5  A    between atoms: N_11  and  N_12 
REMARK       I    between atoms: N_12  and  C_13 
REMARK    6  A    between atoms: C_13  and  C_15 
REMARK    7  A    between atoms: C_15  and  C_16 
REMARK    8  A    between atoms: C_16  and  C_17 
REMARK    9  A    between atoms: C_17  and  N_18 
REMARK   10  A    between atoms: N_18  and  C_19 
REMARK   11  A    between atoms: C_25  and  O_26 
ROOT
ATOM      1  C   UNL d   1      29.739 -16.391  -5.430  0.00  0.00     0.152 C 
ATOM      2  N   UNL d   1      29.001 -15.565  -6.112  0.00  0.00    -0.184 NA
ENDROOT
BRANCH   2   3
ATOM      3  N   UNL d   1      28.385 -14.502  -5.479  0.00  0.00    -0.247 N 
ATOM      4  C   UNL d   1      27.009 -14.604  -5.237  0.00  0.00     0.237 C 
ATOM      5  O   UNL d   1      26.347 -15.583  -5.563  0.00  0.00    -0.272 OA
ATOM      6  H   UNL d   1      28.925 -13.689  -5.203  0.00  0.00     0.192 HD
BRANCH   4   7
ATOM      7  C   UNL d   1      26.358 -13.404  -4.534  0.00  0.00     0.106 C 
BRANCH   7   8
ATOM      8  C   UNL d   1      24.880 -13.699  -4.188  0.00  0.00     0.029 C 
BRANCH   8   9
ATOM      9  C   UNL d   1      24.714 -14.403  -2.841  0.00  0.00     0.120 C 
BRANCH   9  10
ATOM     10  N   UNL d   1      25.345 -15.713  -2.849  0.00  0.00    -0.390 N 
ATOM     11  H   UNL d   1      25.520 -16.169  -3.741  0.00  0.00     0.159 HD
BRANCH  10  12
ATOM     12  C   UNL d   1      25.352 -16.542  -1.736  0.00  0.00     0.027 A 
ATOM     13  C   UNL d   1      26.539 -16.688  -1.005  0.00  0.00     0.029 A 
ATOM     14  C   UNL d   1      26.608 -17.528   0.112  0.00  0.00     0.002 A 
ATOM     15  C   UNL d   1      25.469 -18.199   0.550  0.00  0.00     0.000 A 
ATOM     16  C   UNL d   1      24.276 -18.052  -0.149  0.00  0.00     0.002 A 
ATOM     17  C   UNL d   1      24.222 -17.228  -1.280  0.00  0.00     0.029 A 
ENDBRANCH  10  12
ENDBRANCH   9  10
ENDBRANCH   8   9
ENDBRANCH   7   8
ENDBRANCH   4   7
ENDBRANCH   2   3
BRANCH   1  18
ATOM     18  C   UNL d   1      30.406 -17.557  -6.108  0.00  0.00     0.016 A 
ATOM     19  C   UNL d   1      30.352 -18.835  -5.537  0.00  0.00     0.018 A 
ATOM     20  C   UNL d   1      30.960 -19.947  -6.181  0.00  0.00     0.030 A 
ATOM     21  C   UNL d   1      31.650 -19.834  -7.404  0.00  0.00     0.032 A 
ATOM     22  C   UNL d   1      31.696 -18.536  -7.947  0.00  0.00     0.066 A 
ATOM     23  C   UNL d   1      31.090 -17.424  -7.318  0.00  0.00     0.079 A 
BRANCH  21  24
ATOM     24  N   UNL d   1      32.267 -20.948  -8.035  0.00  0.00    -0.382 N 
BRANCH  24  25
ATOM     25  C   UNL d   1      32.752 -22.025  -7.141  0.00  0.00     0.118 C 
ATOM     26  C   UNL d   1      32.586 -23.473  -7.569  0.00  0.00     0.026 C 
ENDBRANCH  24  25
BRANCH  24  27
ATOM     27  C   UNL d   1      32.291 -20.921  -9.517  0.00  0.00     0.118 C 
ATOM     28  C   UNL d   1      31.068 -20.426 -10.270  0.00  0.00     0.026 C 
ENDBRANCH  24  27
ENDBRANCH  21  24
BRANCH  23  29
ATOM     29  O   UNL d   1      31.218 -16.225  -7.972  0.00  0.00    -0.360 OA
ATOM     30  H   UNL d   1      30.652 -15.555  -7.523  0.00  0.00     0.217 HD
ENDBRANCH  23  29
ENDBRANCH   1  18
TORSDOF 11
ENDMDL
MODEL 9
REMARK VINA RESULT:    -5.540      2.695      9.546
REMARK INTER + INTRA:         -11.643
REMARK INTER:                  -8.821
REMARK INTRA:                  -2.822
REMARK CONF_INDEPENDENT:        3.281
REMARK UNBOUND:                -2.822
REMARK  11 active torsions:
REMARK  status: ('A' for Active; 'I' for Inactive)
REMARK    1  A    between atoms: C_2  and  N_3 
REMARK    2  A    between atoms: N_3  and  C_4 
REMARK    3  A    between atoms: N_3  and  C_6 
REMARK    4  A    between atoms: C_9  and  C_10 
REMARK    5  A    between atoms: N_11  and  N_12 
REMARK       I    between atoms: N_12  and  C_13 
REMARK    6  A    between atoms: C_13  and  C_15 
REMARK    7  A    between atoms: C_15  and  C_16 
REMARK    8  A    between atoms: C_16  and  C_17 
REMARK    9  A    between atoms: C_17  and  N_18 
REMARK   10  A    between atoms: N_18  and  C_19 
REMARK   11  A    between atoms: C_25  and  O_26 
ROOT
ATOM      1  C   UNL d   1      26.303 -12.484  -2.889  0.00  0.00     0.152 C 
ATOM      2  N   UNL d   1      25.652 -12.032  -3.920  0.00  0.00    -0.184 NA
ENDROOT
BRANCH   2   3
ATOM      3  N   UNL d   1      25.978 -10.803  -4.461  0.00  0.00    -0.247 N 
ATOM      4  C   UNL d   1      25.681 -10.595  -5.814  0.00  0.00     0.237 C 
ATOM      5  O   UNL d   1      25.153 -11.448  -6.518  0.00  0.00    -0.272 OA
ATOM      6  H   UNL d   1      26.411 -10.090  -3.885  0.00  0.00     0.192 HD
BRANCH   4   7
ATOM      7  C   UNL d   1      26.059  -9.219  -6.382  0.00  0.00     0.106 C 
BRANCH   7   8
ATOM      8  C   UNL d   1      27.327  -9.312  -7.262  0.00  0.00     0.029 C 
BRANCH   8   9
ATOM      9  C   UNL d   1      28.249 -10.464  -6.857  0.00  0.00     0.120 C 
BRANCH   9  10
ATOM     10  N   UNL d   1      27.744 -11.739  -7.340  0.00  0.00    -0.390 N 
ATOM     11  H   UNL d   1      26.854 -11.760  -7.832  0.00  0.00     0.159 HD
BRANCH  10  12
ATOM     12  C   UNL d   1      28.181 -12.953  -6.830  0.00  0.00     0.027 A 
ATOM     13  C   UNL d   1      27.429 -13.578  -5.827  0.00  0.00     0.029 A 
ATOM     14  C   UNL d   1      27.835 -14.792  -5.260  0.00  0.00     0.002 A 
ATOM     15  C   UNL d   1      28.979 -15.430  -5.731  0.00  0.00     0.000 A 
ATOM     16  C   UNL d   1      29.729 -14.837  -6.741  0.00  0.00     0.002 A 
ATOM     17  C   UNL d   1      29.328 -13.611  -7.285  0.00  0.00     0.029 A 
ENDBRANCH  10  12
ENDBRANCH   9  10
ENDBRANCH   8   9
ENDBRANCH   7   8
ENDBRANCH   4   7
ENDBRANCH   2   3
BRANCH   1  18
ATOM     18  C   UNL d   1      25.949 -13.816  -2.285  0.00  0.00     0.016 A 
ATOM     19  C   UNL d   1      26.342 -14.130  -0.978  0.00  0.00     0.018 A 
ATOM     20  C   UNL d   1      25.993 -15.378  -0.392  0.00  0.00     0.030 A 
ATOM     21  C   UNL d   1      25.253 -16.360  -1.078  0.00  0.00     0.032 A 
ATOM     22  C   UNL d   1      24.881 -16.019  -2.392  0.00  0.00     0.066 A 
ATOM     23  C   UNL d   1      25.219 -14.781  -2.983  0.00  0.00     0.079 A 
BRANCH  21  24
ATOM     24  N   UNL d   1      24.918 -17.610  -0.490  0.00  0.00    -0.382 N 
BRANCH  24  25
ATOM     25  C   UNL d   1      25.881 -18.149   0.499  0.00  0.00     0.118 C 
ATOM     26  C   UNL d   1      27.357 -18.202   0.142  0.00  0.00     0.026 C 
ENDBRANCH  24  25
BRANCH  24  27
ATOM     27  C   UNL d   1      23.615 -18.188  -0.893  0.00  0.00     0.118 C 
ATOM     28  C   UNL d   1      22.335 -17.450  -0.539  0.00  0.00     0.026 C 
ENDBRANCH  24  27
ENDBRANCH  21  24
BRANCH  23  29
ATOM     29  O   UNL d   1      24.781 -14.594  -4.270  0.00  0.00    -0.360 OA
ATOM     30  H   UNL d   1      24.837 -13.635  -4.491  0.00  0.00     0.217 HD
ENDBRANCH  23  29
ENDBRANCH   1  18
TORSDOF 11
ENDMDL
