MODEL 1
REMARK VINA RESULT:   -10.858      0.000      0.000
REMARK INTER + INTRA:         -14.984
REMARK INTER:                 -12.647
REMARK INTRA:                  -2.337
REMARK CONF_INDEPENDENT:        1.790
REMARK UNBOUND:                -2.337
REMARK  6 active torsions:
REMARK  status: ('A' for Active; 'I' for Inactive)
REMARK    1  A    between atoms: O_2  and  C_3 
REMARK    2  A    between atoms: C_7  and  N_8 
REMARK    3  A    between atoms: N_11  and  C_12 
REMARK    4  A    between atoms: C_12  and  C_13 
REMARK    5  A    between atoms: C_12  and  C_27 
REMARK    6  A    between atoms: N_31  and  C_32 
ROOT
ATOM      1  C   UNL d   1      28.680 -14.238   0.895  0.00  0.00     0.298 C 
ENDROOT
BRANCH   1   2
ATOM      2  N   UNL d   1      29.053 -14.619   2.551  0.00  0.00    -0.052 N 
ATOM      3  C   UNL d   1      30.113 -13.715   3.170  0.00  0.00     0.256 C 
ATOM      4  C   UNL d   1      30.409 -14.071   4.625  0.00  0.00     0.150 C 
ATOM      5  N   UNL d   1      29.200 -13.954   5.411  0.00  0.00    -0.378 N 
ATOM      6  C   UNL d   1      28.216 -14.959   5.086  0.00  0.00     0.150 C 
ATOM      7  C   UNL d   1      27.926 -14.649   3.622  0.00  0.00     0.256 C 
ATOM      8  H   UNL d   1      29.416 -15.575   2.460  0.00  0.00     0.281 HD
BRANCH   5   9
ATOM      9  C   UNL d   1      29.196 -13.055   6.446  0.00  0.00     0.032 C 
ATOM     10  C   UNL d   1      29.263 -11.691   6.184  0.00  0.00     0.029 C 
ATOM     11  C   UNL d   1      28.877 -10.782   7.165  0.00  0.00     0.005 C 
ATOM     12  C   UNL d   1      28.531 -11.220   8.444  0.00  0.00     0.037 C 
ATOM     13  C   UNL d   1      28.526 -12.577   8.749  0.00  0.00     0.070 C 
ATOM     14  C   UNL d   1      28.894 -13.485   7.761  0.00  0.00     0.066 C 
BRANCH  13  15
ATOM     15  O   UNL d   1      27.973 -12.909   9.954  0.00  0.00    -0.356 OA
ATOM     16  C   UNL d   1      28.359 -14.144  10.541  0.00  0.00     0.210 C 
ENDBRANCH  13  15
ENDBRANCH   5   9
ENDBRANCH   1   2
BRANCH   1  17
ATOM     17  C   UNL d   1      27.474 -15.093   0.379  0.00  0.00     0.043 C 
ATOM     18  C   UNL d   1      27.259 -16.430   0.585  0.00  0.00     0.027 C 
ATOM     19  C   UNL d   1      26.079 -17.149   0.072  0.00  0.00    -0.015 C 
ATOM     20  C   UNL d   1      25.313 -18.197   0.647  0.00  0.00     0.031 C 
ATOM     21  C   UNL d   1      25.641 -16.628  -1.121  0.00  0.00     0.024 C 
ATOM     22  C   UNL d   1      24.017 -18.438   0.112  0.00  0.00     0.158 C 
ATOM     23  C   UNL d   1      23.471 -17.413  -0.598  0.00  0.00     0.159 C 
ATOM     24  O   UNL d   1      23.632 -19.542  -0.797  0.00  0.00    -0.345 OA
ATOM     25  C   UNL d   1      24.350 -16.852  -1.513  0.00  0.00     0.043 C 
ATOM     26  O   UNL d   1      22.182 -17.707  -0.974  0.00  0.00    -0.345 OA
ATOM     27  C   UNL d   1      22.554 -18.907  -1.624  0.00  0.00     0.341 C 
ATOM     28  N   UNL d   1      26.354 -15.573  -1.709  0.00  0.00    -0.225 NA
ATOM     29  C   UNL d   1      26.662 -14.598  -0.783  0.00  0.00     0.234 C 
ATOM     30  H   UNL d   1      25.965 -15.219  -2.575  0.00  0.00     0.137 HD
ATOM     31  O   UNL d   1      26.283 -13.432  -0.951  0.00  0.00    -0.274 OA
ENDBRANCH   1  17
BRANCH   1  32
ATOM     32  C   UNL d   1      28.787 -12.675   0.570  0.00  0.00     0.184 A 
ATOM     33  N   UNL d   1      29.613 -12.118  -0.304  0.00  0.00    -0.111 NA
ATOM     34  N   UNL d   1      29.456 -10.761  -0.267  0.00  0.00    -0.023 NA
ATOM     35  N   UNL d   1      28.495 -10.436   0.567  0.00  0.00    -0.043 NA
ATOM     36  N   UNL d   1      28.120 -11.586   1.158  0.00  0.00    -0.223 N 
BRANCH  36  37
ATOM     37  C   UNL d   1      26.998 -11.492   2.089  0.00  0.00     0.048 C 
ATOM     38  C   UNL d   1      26.265 -10.160   2.090  0.00  0.00     0.040 C 
ATOM     39  C   UNL d   1      25.961 -12.619   1.729  0.00  0.00     0.040 C 
ATOM     40  C   UNL d   1      27.515 -11.400   3.516  0.00  0.00     0.040 C 
ENDBRANCH  36  37
ENDBRANCH   1  32
TORSDOF 6
ENDMDL
MODEL 2
REMARK VINA RESULT:   -10.232      2.720      3.711
REMARK INTER + INTRA:         -14.337
REMARK INTER:                 -12.022
REMARK INTRA:                  -2.316
REMARK CONF_INDEPENDENT:        1.790
REMARK UNBOUND:                -2.316
REMARK  6 active torsions:
REMARK  status: ('A' for Active; 'I' for Inactive)
REMARK    1  A    between atoms: O_2  and  C_3 
REMARK    2  A    between atoms: C_7  and  N_8 
REMARK    3  A    between atoms: N_11  and  C_12 
REMARK    4  A    between atoms: C_12  and  C_13 
REMARK    5  A    between atoms: C_12  and  C_27 
REMARK    6  A    between atoms: N_31  and  C_32 
ROOT
ATOM      1  C   UNL d   1      28.815 -15.466   0.067  0.00  0.00     0.298 C 
ENDROOT
BRANCH   1   2
ATOM      2  N   UNL d   1      29.015 -14.845   1.679  0.00  0.00    -0.052 N 
ATOM      3  C   UNL d   1      29.734 -13.502   1.739  0.00  0.00     0.256 C 
ATOM      4  C   UNL d   1      29.885 -12.981   3.168  0.00  0.00     0.150 C 
ATOM      5  N   UNL d   1      28.579 -12.823   3.768  0.00  0.00    -0.378 N 
ATOM      6  C   UNL d   1      27.913 -14.080   4.012  0.00  0.00     0.150 C 
ATOM      7  C   UNL d   1      27.780 -14.640   2.601  0.00  0.00     0.256 C 
ATOM      8  H   UNL d   1      29.599 -15.574   2.104  0.00  0.00     0.281 HD
BRANCH   5   9
ATOM      9  C   UNL d   1      28.213 -11.567   4.180  0.00  0.00     0.032 C 
ATOM     10  C   UNL d   1      28.997 -10.881   5.101  0.00  0.00     0.029 C 
ATOM     11  C   UNL d   1      28.861  -9.501   5.228  0.00  0.00     0.005 C 
ATOM     12  C   UNL d   1      27.871  -8.816   4.522  0.00  0.00     0.037 C 
ATOM     13  C   UNL d   1      27.029  -9.494   3.647  0.00  0.00     0.070 C 
ATOM     14  C   UNL d   1      27.179 -10.870   3.508  0.00  0.00     0.066 C 
BRANCH  13  15
ATOM     15  O   UNL d   1      26.243  -8.706   2.855  0.00  0.00    -0.356 OA
ATOM     16  C   UNL d   1      26.501  -8.708   1.457  0.00  0.00     0.210 C 
ENDBRANCH  13  15
ENDBRANCH   5   9
ENDBRANCH   1   2
BRANCH   1  17
ATOM     17  C   UNL d   1      27.439 -16.197  -0.087  0.00  0.00     0.043 C 
ATOM     18  C   UNL d   1      26.194 -15.626  -0.092  0.00  0.00     0.027 C 
ATOM     19  C   UNL d   1      24.950 -16.397  -0.262  0.00  0.00    -0.015 C 
ATOM     20  C   UNL d   1      23.747 -16.075  -0.944  0.00  0.00     0.031 C 
ATOM     21  C   UNL d   1      25.052 -17.658   0.276  0.00  0.00     0.024 C 
ATOM     22  C   UNL d   1      22.866 -17.142  -1.270  0.00  0.00     0.158 C 
ATOM     23  C   UNL d   1      23.419 -18.385  -1.275  0.00  0.00     0.159 C 
ATOM     24  O   UNL d   1      21.605 -17.484  -0.572  0.00  0.00    -0.345 OA
ATOM     25  C   UNL d   1      24.204 -18.639  -0.160  0.00  0.00     0.043 C 
ATOM     26  O   UNL d   1      22.514 -19.325  -1.707  0.00  0.00    -0.345 OA
ATOM     27  C   UNL d   1      21.554 -18.976  -0.728  0.00  0.00     0.341 C 
ATOM     28  N   UNL d   1      26.234 -18.027   0.934  0.00  0.00    -0.225 NA
ATOM     29  C   UNL d   1      27.348 -17.667   0.205  0.00  0.00     0.234 C 
ATOM     30  H   UNL d   1      26.253 -18.977   1.286  0.00  0.00     0.137 HD
ATOM     31  O   UNL d   1      28.171 -18.522  -0.145  0.00  0.00    -0.274 OA
ENDBRANCH   1  17
BRANCH   1  32
ATOM     32  C   UNL d   1      29.355 -14.469  -1.062  0.00  0.00     0.184 A 
ATOM     33  N   UNL d   1      30.534 -14.540  -1.663  0.00  0.00    -0.111 NA
ATOM     34  N   UNL d   1      30.661 -13.490  -2.528  0.00  0.00    -0.023 NA
ATOM     35  N   UNL d   1      29.557 -12.779  -2.546  0.00  0.00    -0.043 NA
ATOM     36  N   UNL d   1      28.765 -13.310  -1.595  0.00  0.00    -0.223 N 
BRANCH  36  37
ATOM     37  C   UNL d   1      27.431 -12.725  -1.472  0.00  0.00     0.048 C 
ATOM     38  C   UNL d   1      27.327 -11.258  -1.857  0.00  0.00     0.040 C 
ATOM     39  C   UNL d   1      26.448 -13.540  -2.391  0.00  0.00     0.040 C 
ATOM     40  C   UNL d   1      27.080 -12.539  -0.005  0.00  0.00     0.040 C 
ENDBRANCH  36  37
ENDBRANCH   1  32
TORSDOF 6
ENDMDL
MODEL 3
REMARK VINA RESULT:   -10.190      1.097      1.969
REMARK INTER + INTRA:         -13.938
REMARK INTER:                 -11.980
REMARK INTRA:                  -1.958
REMARK CONF_INDEPENDENT:        1.790
REMARK UNBOUND:                -1.958
REMARK  6 active torsions:
REMARK  status: ('A' for Active; 'I' for Inactive)
REMARK    1  A    between atoms: O_2  and  C_3 
REMARK    2  A    between atoms: C_7  and  N_8 
REMARK    3  A    between atoms: N_11  and  C_12 
REMARK    4  A    between atoms: C_12  and  C_13 
REMARK    5  A    between atoms: C_12  and  C_27 
REMARK    6  A    between atoms: N_31  and  C_32 
ROOT
ATOM      1  C   UNL d   1      28.475 -14.210   0.823  0.00  0.00     0.298 C 
ENDROOT
BRANCH   1   2
ATOM      2  N   UNL d   1      28.924 -14.633   2.449  0.00  0.00    -0.052 N 
ATOM      3  C   UNL d   1      29.986 -13.721   3.054  0.00  0.00     0.256 C 
ATOM      4  C   UNL d   1      30.350 -14.114   4.484  0.00  0.00     0.150 C 
ATOM      5  N   UNL d   1      29.172 -14.053   5.321  0.00  0.00    -0.378 N 
ATOM      6  C   UNL d   1      28.201 -15.073   5.003  0.00  0.00     0.150 C 
ATOM      7  C   UNL d   1      27.844 -14.725   3.563  0.00  0.00     0.256 C 
ATOM      8  H   UNL d   1      29.308 -15.575   2.313  0.00  0.00     0.281 HD
BRANCH   5   9
ATOM      9  C   UNL d   1      29.187 -13.187   6.384  0.00  0.00     0.032 C 
ATOM     10  C   UNL d   1      29.261 -11.817   6.164  0.00  0.00     0.029 C 
ATOM     11  C   UNL d   1      28.894 -10.936   7.178  0.00  0.00     0.005 C 
ATOM     12  C   UNL d   1      28.561 -11.412   8.447  0.00  0.00     0.037 C 
ATOM     13  C   UNL d   1      28.549 -12.777   8.709  0.00  0.00     0.070 C 
ATOM     14  C   UNL d   1      28.898 -13.656   7.689  0.00  0.00     0.066 C 
BRANCH  13  15
ATOM     15  O   UNL d   1      28.008 -13.143   9.910  0.00  0.00    -0.356 OA
ATOM     16  C   UNL d   1      28.858 -13.129  11.049  0.00  0.00     0.210 C 
ENDBRANCH  13  15
ENDBRANCH   5   9
ENDBRANCH   1   2
BRANCH   1  17
ATOM     17  C   UNL d   1      27.263 -15.071   0.332  0.00  0.00     0.043 C 
ATOM     18  C   UNL d   1      27.076 -16.416   0.514  0.00  0.00     0.027 C 
ATOM     19  C   UNL d   1      25.888 -17.141   0.029  0.00  0.00    -0.015 C 
ATOM     20  C   UNL d   1      25.160 -18.215   0.606  0.00  0.00     0.031 C 
ATOM     21  C   UNL d   1      25.397 -16.598  -1.134  0.00  0.00     0.024 C 
ATOM     22  C   UNL d   1      23.849 -18.463   0.116  0.00  0.00     0.158 C 
ATOM     23  C   UNL d   1      23.260 -17.430  -0.548  0.00  0.00     0.159 C 
ATOM     24  O   UNL d   1      23.445 -19.551  -0.805  0.00  0.00    -0.345 OA
ATOM     25  C   UNL d   1      24.095 -16.834  -1.481  0.00  0.00     0.043 C 
ATOM     26  O   UNL d   1      21.962 -17.735  -0.881  0.00  0.00    -0.345 OA
ATOM     27  C   UNL d   1      22.326 -18.913  -1.574  0.00  0.00     0.341 C 
ATOM     28  N   UNL d   1      26.070 -15.519  -1.722  0.00  0.00    -0.225 NA
ATOM     29  C   UNL d   1      26.400 -14.562  -0.785  0.00  0.00     0.234 C 
ATOM     30  H   UNL d   1      25.643 -15.150  -2.564  0.00  0.00     0.137 HD
ATOM     31  O   UNL d   1      25.996 -13.398  -0.910  0.00  0.00    -0.274 OA
ENDBRANCH   1  17
BRANCH   1  32
ATOM     32  C   UNL d   1      28.542 -12.637   0.541  0.00  0.00     0.184 A 
ATOM     33  N   UNL d   1      28.388 -11.678   1.443  0.00  0.00    -0.111 NA
ATOM     34  N   UNL d   1      28.456 -10.462   0.822  0.00  0.00    -0.023 NA
ATOM     35  N   UNL d   1      28.720 -10.618  -0.456  0.00  0.00    -0.043 NA
ATOM     36  N   UNL d   1      28.698 -11.946  -0.674  0.00  0.00    -0.223 N 
BRANCH  36  37
ATOM     37  C   UNL d   1      29.038 -12.380  -2.028  0.00  0.00     0.048 C 
ATOM     38  C   UNL d   1      29.938 -11.432  -2.805  0.00  0.00     0.040 C 
ATOM     39  C   UNL d   1      29.763 -13.773  -1.933  0.00  0.00     0.040 C 
ATOM     40  C   UNL d   1      27.827 -12.243  -2.936  0.00  0.00     0.040 C 
ENDBRANCH  36  37
ENDBRANCH   1  32
TORSDOF 6
ENDMDL
MODEL 4
REMARK VINA RESULT:   -10.190      2.488      4.055
REMARK INTER + INTRA:         -13.783
REMARK INTER:                 -11.980
REMARK INTRA:                  -1.803
REMARK CONF_INDEPENDENT:        1.790
REMARK UNBOUND:                -1.803
REMARK  6 active torsions:
REMARK  status: ('A' for Active; 'I' for Inactive)
REMARK    1  A    between atoms: O_2  and  C_3 
REMARK    2  A    between atoms: C_7  and  N_8 
REMARK    3  A    between atoms: N_11  and  C_12 
REMARK    4  A    between atoms: C_12  and  C_13 
REMARK    5  A    between atoms: C_12  and  C_27 
REMARK    6  A    between atoms: N_31  and  C_32 
ROOT
ATOM      1  C   UNL d   1      29.016 -15.369   0.483  0.00  0.00     0.298 C 
ENDROOT
BRANCH   1   2
ATOM      2  N   UNL d   1      29.083 -14.717   2.094  0.00  0.00    -0.052 N 
ATOM      3  C   UNL d   1      29.814 -13.383   2.191  0.00  0.00     0.256 C 
ATOM      4  C   UNL d   1      29.847 -12.834   3.616  0.00  0.00     0.150 C 
ATOM      5  N   UNL d   1      28.495 -12.645   4.096  0.00  0.00    -0.378 N 
ATOM      6  C   UNL d   1      27.791 -13.888   4.304  0.00  0.00     0.150 C 
ATOM      7  C   UNL d   1      27.774 -14.476   2.898  0.00  0.00     0.256 C 
ATOM      8  H   UNL d   1      29.615 -15.445   2.584  0.00  0.00     0.281 HD
BRANCH   5   9
ATOM      9  C   UNL d   1      28.114 -11.375   4.448  0.00  0.00     0.032 C 
ATOM     10  C   UNL d   1      28.833 -10.675   5.409  0.00  0.00     0.029 C 
ATOM     11  C   UNL d   1      28.705  -9.291   5.493  0.00  0.00     0.005 C 
ATOM     12  C   UNL d   1      27.779  -8.614   4.697  0.00  0.00     0.037 C 
ATOM     13  C   UNL d   1      26.998  -9.305   3.777  0.00  0.00     0.070 C 
ATOM     14  C   UNL d   1      27.142 -10.686   3.683  0.00  0.00     0.066 C 
BRANCH  13  15
ATOM     15  O   UNL d   1      26.284  -8.529   2.908  0.00  0.00    -0.356 OA
ATOM     16  C   UNL d   1      26.446  -8.773   1.518  0.00  0.00     0.210 C 
ENDBRANCH  13  15
ENDBRANCH   5   9
ENDBRANCH   1   2
BRANCH   1  17
ATOM     17  C   UNL d   1      27.580 -15.896   0.149  0.00  0.00     0.043 C 
ATOM     18  C   UNL d   1      27.224 -17.180  -0.173  0.00  0.00     0.027 C 
ATOM     19  C   UNL d   1      25.837 -17.588  -0.456  0.00  0.00    -0.015 C 
ATOM     20  C   UNL d   1      25.144 -18.787  -0.144  0.00  0.00     0.031 C 
ATOM     21  C   UNL d   1      25.117 -16.578  -1.047  0.00  0.00     0.024 C 
ATOM     22  C   UNL d   1      23.723 -18.761  -0.197  0.00  0.00     0.158 C 
ATOM     23  C   UNL d   1      23.151 -17.528  -0.134  0.00  0.00     0.159 C 
ATOM     24  O   UNL d   1      22.872 -19.325  -1.270  0.00  0.00    -0.345 OA
ATOM     25  C   UNL d   1      23.751 -16.604  -0.978  0.00  0.00     0.043 C 
ATOM     26  O   UNL d   1      21.781 -17.622  -0.081  0.00  0.00    -0.345 OA
ATOM     27  C   UNL d   1      21.702 -18.386  -1.270  0.00  0.00     0.341 C 
ATOM     28  N   UNL d   1      25.757 -15.367  -1.347  0.00  0.00    -0.225 NA
ATOM     29  C   UNL d   1      26.520 -14.927  -0.287  0.00  0.00     0.234 C 
ATOM     30  H   UNL d   1      25.164 -14.656  -1.760  0.00  0.00     0.137 HD
ATOM     31  O   UNL d   1      26.310 -13.817   0.219  0.00  0.00    -0.274 OA
ENDBRANCH   1  17
BRANCH   1  32
ATOM     32  C   UNL d   1      29.852 -14.512  -0.578  0.00  0.00     0.184 A 
ATOM     33  N   UNL d   1      30.569 -13.430  -0.311  0.00  0.00    -0.111 NA
ATOM     34  N   UNL d   1      31.094 -12.941  -1.474  0.00  0.00    -0.023 NA
ATOM     35  N   UNL d   1      30.784 -13.727  -2.479  0.00  0.00    -0.043 NA
ATOM     36  N   UNL d   1      29.953 -14.657  -1.972  0.00  0.00    -0.223 N 
BRANCH  36  37
ATOM     37  C   UNL d   1      29.521 -15.703  -2.897  0.00  0.00     0.048 C 
ATOM     38  C   UNL d   1      30.135 -15.636  -4.286  0.00  0.00     0.040 C 
ATOM     39  C   UNL d   1      29.887 -17.099  -2.270  0.00  0.00     0.040 C 
ATOM     40  C   UNL d   1      28.088 -15.449  -3.335  0.00  0.00     0.040 C 
ENDBRANCH  36  37
ENDBRANCH   1  32
TORSDOF 6
ENDMDL
MODEL 5
REMARK VINA RESULT:    -9.962      5.109      6.495
REMARK INTER + INTRA:         -13.733
REMARK INTER:                 -11.752
REMARK INTRA:                  -1.981
REMARK CONF_INDEPENDENT:        1.790
REMARK UNBOUND:                -1.981
REMARK  6 active torsions:
REMARK  status: ('A' for Active; 'I' for Inactive)
REMARK    1  A    between atoms: O_2  and  C_3 
REMARK    2  A    between atoms: C_7  and  N_8 
REMARK    3  A    between atoms: N_11  and  C_12 
REMARK    4  A    between atoms: C_12  and  C_13 
REMARK    5  A    between atoms: C_12  and  C_27 
REMARK    6  A    between atoms: N_31  and  C_32 
ROOT
ATOM      1  C   UNL d   1      28.046 -14.945  -3.399  0.00  0.00     0.298 C 
ENDROOT
BRANCH   1   2
ATOM      2  N   UNL d   1      28.225 -15.433  -1.739  0.00  0.00    -0.052 N 
ATOM      3  C   UNL d   1      29.361 -14.727  -1.007  0.00  0.00     0.256 C 
ATOM      4  C   UNL d   1      29.485 -15.171   0.449  0.00  0.00     0.150 C 
ATOM      5  N   UNL d   1      28.251 -14.890   1.150  0.00  0.00    -0.378 N 
ATOM      6  C   UNL d   1      27.151 -15.716   0.711  0.00  0.00     0.150 C 
ATOM      7  C   UNL d   1      27.028 -15.318  -0.754  0.00  0.00     0.256 C 
ATOM      8  H   UNL d   1      28.443 -16.430  -1.845  0.00  0.00     0.281 HD
BRANCH   5   9
ATOM      9  C   UNL d   1      28.305 -14.034   2.221  0.00  0.00     0.032 C 
ATOM     10  C   UNL d   1      27.922 -12.707   2.070  0.00  0.00     0.029 C 
ATOM     11  C   UNL d   1      27.606 -11.949   3.195  0.00  0.00     0.005 C 
ATOM     12  C   UNL d   1      27.779 -12.475   4.477  0.00  0.00     0.037 C 
ATOM     13  C   UNL d   1      28.229 -13.779   4.651  0.00  0.00     0.070 C 
ATOM     14  C   UNL d   1      28.525 -14.539   3.525  0.00  0.00     0.066 C 
BRANCH  13  15
ATOM     15  O   UNL d   1      28.161 -14.261   5.929  0.00  0.00    -0.356 OA
ATOM     16  C   UNL d   1      29.294 -14.076   6.766  0.00  0.00     0.210 C 
ENDBRANCH  13  15
ENDBRANCH   5   9
ENDBRANCH   1   2
BRANCH   1  17
ATOM     17  C   UNL d   1      28.830 -15.905  -4.356  0.00  0.00     0.043 C 
ATOM     18  C   UNL d   1      29.793 -16.816  -4.007  0.00  0.00     0.027 C 
ATOM     19  C   UNL d   1      30.467 -17.694  -4.979  0.00  0.00    -0.015 C 
ATOM     20  C   UNL d   1      30.903 -19.040  -4.863  0.00  0.00     0.031 C 
ATOM     21  C   UNL d   1      30.599 -17.091  -6.207  0.00  0.00     0.024 C 
ATOM     22  C   UNL d   1      31.172 -19.753  -6.064  0.00  0.00     0.158 C 
ATOM     23  C   UNL d   1      30.611 -19.242  -7.194  0.00  0.00     0.159 C 
ATOM     24  O   UNL d   1      32.509 -20.060  -6.623  0.00  0.00    -0.345 OA
ATOM     25  C   UNL d   1      30.780 -17.871  -7.316  0.00  0.00     0.043 C 
ATOM     26  O   UNL d   1      30.840 -20.063  -8.272  0.00  0.00    -0.345 OA
ATOM     27  C   UNL d   1      32.245 -20.040  -8.100  0.00  0.00     0.341 C 
ATOM     28  N   UNL d   1      30.157 -15.771  -6.372  0.00  0.00    -0.225 NA
ATOM     29  C   UNL d   1      28.906 -15.589  -5.821  0.00  0.00     0.234 C 
ATOM     30  H   UNL d   1      30.261 -15.395  -7.307  0.00  0.00     0.137 HD
ATOM     31  O   UNL d   1      27.965 -15.190  -6.520  0.00  0.00    -0.274 OA
ENDBRANCH   1  17
BRANCH   1  32
ATOM     32  C   UNL d   1      26.567 -14.450  -3.753  0.00  0.00     0.184 A 
ATOM     33  N   UNL d   1      25.530 -15.229  -4.026  0.00  0.00    -0.111 NA
ATOM     34  N   UNL d   1      24.451 -14.449  -4.332  0.00  0.00    -0.023 NA
ATOM     35  N   UNL d   1      24.754 -13.178  -4.196  0.00  0.00    -0.043 NA
ATOM     36  N   UNL d   1      26.071 -13.145  -3.920  0.00  0.00    -0.223 N 
BRANCH  36  37
ATOM     37  C   UNL d   1      26.636 -11.824  -3.652  0.00  0.00     0.048 C 
ATOM     38  C   UNL d   1      25.705 -10.653  -3.920  0.00  0.00     0.040 C 
ATOM     39  C   UNL d   1      27.066 -11.768  -2.139  0.00  0.00     0.040 C 
ATOM     40  C   UNL d   1      27.660 -11.472  -4.719  0.00  0.00     0.040 C 
ENDBRANCH  36  37
ENDBRANCH   1  32
TORSDOF 6
ENDMDL
MODEL 6
REMARK VINA RESULT:    -9.758      3.084      8.617
REMARK INTER + INTRA:         -13.975
REMARK INTER:                 -11.548
REMARK INTRA:                  -2.427
REMARK CONF_INDEPENDENT:        1.790
REMARK UNBOUND:                -2.427
REMARK  6 active torsions:
REMARK  status: ('A' for Active; 'I' for Inactive)
REMARK    1  A    between atoms: O_2  and  C_3 
REMARK    2  A    between atoms: C_7  and  N_8 
REMARK    3  A    between atoms: N_11  and  C_12 
REMARK    4  A    between atoms: C_12  and  C_13 
REMARK    5  A    between atoms: C_12  and  C_27 
REMARK    6  A    between atoms: N_31  and  C_32 
ROOT
ATOM      1  C   UNL d   1      29.077 -13.505   2.830  0.00  0.00     0.298 C 
ENDROOT
BRANCH   1   2
ATOM      2  N   UNL d   1      28.863 -14.781   1.668  0.00  0.00    -0.052 N 
ATOM      3  C   UNL d   1      27.404 -15.084   1.344  0.00  0.00     0.256 C 
ATOM      4  C   UNL d   1      27.252 -16.203   0.315  0.00  0.00     0.150 C 
ATOM      5  N   UNL d   1      27.920 -15.828  -0.913  0.00  0.00    -0.378 N 
ATOM      6  C   UNL d   1      29.357 -15.779  -0.782  0.00  0.00     0.150 C 
ATOM      7  C   UNL d   1      29.537 -14.691   0.270  0.00  0.00     0.256 C 
ATOM      8  H   UNL d   1      29.285 -15.576   2.162  0.00  0.00     0.281 HD
BRANCH   5   9
ATOM      9  C   UNL d   1      27.160 -15.738  -2.051  0.00  0.00     0.032 C 
ATOM     10  C   UNL d   1      25.834 -15.330  -1.972  0.00  0.00     0.029 C 
ATOM     11  C   UNL d   1      25.185 -14.870  -3.114  0.00  0.00     0.005 C 
ATOM     12  C   UNL d   1      25.817 -14.919  -4.358  0.00  0.00     0.037 C 
ATOM     13  C   UNL d   1      27.120 -15.390  -4.471  0.00  0.00     0.070 C 
ATOM     14  C   UNL d   1      27.772 -15.832  -3.325  0.00  0.00     0.066 C 
BRANCH  13  15
ATOM     15  O   UNL d   1      27.713 -15.199  -5.688  0.00  0.00    -0.356 OA
ATOM     16  C   UNL d   1      28.310 -13.935  -5.941  0.00  0.00     0.210 C 
ENDBRANCH  13  15
ENDBRANCH   5   9
ENDBRANCH   1   2
BRANCH   1  17
ATOM     17  C   UNL d   1      28.498 -12.153   2.293  0.00  0.00     0.043 C 
ATOM     18  C   UNL d   1      27.219 -11.682   2.445  0.00  0.00     0.027 C 
ATOM     19  C   UNL d   1      26.768 -10.382   1.918  0.00  0.00    -0.015 C 
ATOM     20  C   UNL d   1      25.865  -9.428   2.457  0.00  0.00     0.031 C 
ATOM     21  C   UNL d   1      27.418 -10.048   0.754  0.00  0.00     0.024 C 
ATOM     22  C   UNL d   1      25.906  -8.108   1.930  0.00  0.00     0.158 C 
ATOM     23  C   UNL d   1      27.048  -7.769   1.272  0.00  0.00     0.159 C 
ATOM     24  O   UNL d   1      24.940  -7.510   0.980  0.00  0.00    -0.345 OA
ATOM     25  C   UNL d   1      27.467  -8.736   0.370  0.00  0.00     0.043 C 
ATOM     26  O   UNL d   1      27.029  -6.446   0.902  0.00  0.00    -0.345 OA
ATOM     27  C   UNL d   1      25.809  -6.572   0.196  0.00  0.00     0.341 C 
ATOM     28  N   UNL d   1      28.339 -10.950   0.203  0.00  0.00    -0.225 NA
ATOM     29  C   UNL d   1      29.192 -11.447   1.165  0.00  0.00     0.234 C 
ATOM     30  H   UNL d   1      28.800 -10.633  -0.642  0.00  0.00     0.137 HD
ATOM     31  O   UNL d   1      30.416 -11.302   1.053  0.00  0.00    -0.274 OA
ENDBRANCH   1  17
BRANCH   1  32
ATOM     32  C   UNL d   1      28.820 -13.976   4.337  0.00  0.00     0.184 A 
ATOM     33  N   UNL d   1      28.552 -15.214   4.729  0.00  0.00    -0.111 NA
ATOM     34  N   UNL d   1      28.340 -15.220   6.079  0.00  0.00    -0.023 NA
ATOM     35  N   UNL d   1      28.534 -14.020   6.576  0.00  0.00    -0.043 NA
ATOM     36  N   UNL d   1      28.751 -13.217   5.518  0.00  0.00    -0.223 N 
BRANCH  36  37
ATOM     37  C   UNL d   1      29.068 -11.823   5.824  0.00  0.00     0.048 C 
ATOM     38  C   UNL d   1      29.093 -11.474   7.304  0.00  0.00     0.040 C 
ATOM     39  C   UNL d   1      30.483 -11.494   5.221  0.00  0.00     0.040 C 
ATOM     40  C   UNL d   1      27.890 -10.932   5.462  0.00  0.00     0.040 C 
ENDBRANCH  36  37
ENDBRANCH   1  32
TORSDOF 6
ENDMDL
MODEL 7
REMARK VINA RESULT:    -9.514      2.495      4.089
REMARK INTER + INTRA:         -13.693
REMARK INTER:                 -11.304
REMARK INTRA:                  -2.389
REMARK CONF_INDEPENDENT:        1.790
REMARK UNBOUND:                -2.389
REMARK  6 active torsions:
REMARK  status: ('A' for Active; 'I' for Inactive)
REMARK    1  A    between atoms: O_2  and  C_3 
REMARK    2  A    between atoms: C_7  and  N_8 
REMARK    3  A    between atoms: N_11  and  C_12 
REMARK    4  A    between atoms: C_12  and  C_13 
REMARK    5  A    between atoms: C_12  and  C_27 
REMARK    6  A    between atoms: N_31  and  C_32 
ROOT
ATOM      1  C   UNL d   1      28.198 -13.832  -1.837  0.00  0.00     0.298 C 
ENDROOT
BRANCH   1   2
ATOM      2  N   UNL d   1      28.583 -12.969  -0.377  0.00  0.00    -0.052 N 
ATOM      3  C   UNL d   1      27.394 -12.773   0.557  0.00  0.00     0.256 C 
ATOM      4  C   UNL d   1      27.769 -12.020   1.832  0.00  0.00     0.150 C 
ATOM      5  N   UNL d   1      28.790 -12.754   2.548  0.00  0.00    -0.378 N 
ATOM      6  C   UNL d   1      30.060 -12.767   1.863  0.00  0.00     0.150 C 
ATOM      7  C   UNL d   1      29.707 -13.484   0.565  0.00  0.00     0.256 C 
ATOM      8  H   UNL d   1      28.887 -12.063  -0.753  0.00  0.00     0.281 HD
BRANCH   5   9
ATOM      9  C   UNL d   1      28.497 -13.183   3.817  0.00  0.00     0.032 C 
ATOM     10  C   UNL d   1      28.775 -14.493   4.190  0.00  0.00     0.029 C 
ATOM     11  C   UNL d   1      28.847 -14.825   5.540  0.00  0.00     0.005 C 
ATOM     12  C   UNL d   1      28.532 -13.882   6.520  0.00  0.00     0.037 C 
ATOM     13  C   UNL d   1      28.182 -12.584   6.167  0.00  0.00     0.070 C 
ATOM     14  C   UNL d   1      28.129 -12.251   4.817  0.00  0.00     0.066 C 
BRANCH  13  15
ATOM     15  O   UNL d   1      28.101 -11.692   7.200  0.00  0.00    -0.356 OA
ATOM     16  C   UNL d   1      29.224 -11.578   8.063  0.00  0.00     0.210 C 
ENDBRANCH  13  15
ENDBRANCH   5   9
ENDBRANCH   1   2
BRANCH   1  17
ATOM     17  C   UNL d   1      27.010 -14.826  -1.607  0.00  0.00     0.043 C 
ATOM     18  C   UNL d   1      27.082 -16.099  -1.104  0.00  0.00     0.027 C 
ATOM     19  C   UNL d   1      25.902 -16.958  -0.905  0.00  0.00    -0.015 C 
ATOM     20  C   UNL d   1      25.602 -17.895   0.119  0.00  0.00     0.031 C 
ATOM     21  C   UNL d   1      24.929 -16.717  -1.845  0.00  0.00     0.024 C 
ATOM     22  C   UNL d   1      24.246 -18.296   0.270  0.00  0.00     0.158 C 
ATOM     23  C   UNL d   1      23.319 -17.467  -0.282  0.00  0.00     0.159 C 
ATOM     24  O   UNL d   1      23.656 -19.581  -0.170  0.00  0.00    -0.345 OA
ATOM     25  C   UNL d   1      23.637 -17.073  -1.573  0.00  0.00     0.043 C 
ATOM     26  O   UNL d   1      22.044 -17.887   0.015  0.00  0.00    -0.345 OA
ATOM     27  C   UNL d   1      22.253 -19.180  -0.520  0.00  0.00     0.341 C 
ATOM     28  N   UNL d   1      25.174 -15.779  -2.858  0.00  0.00    -0.225 NA
ATOM     29  C   UNL d   1      25.721 -14.620  -2.347  0.00  0.00     0.234 C 
ATOM     30  H   UNL d   1      24.408 -15.631  -3.504  0.00  0.00     0.137 HD
ATOM     31  O   UNL d   1      25.157 -13.532  -2.521  0.00  0.00    -0.274 OA
ENDBRANCH   1  17
BRANCH   1  32
ATOM     32  C   UNL d   1      28.269 -12.915  -3.147  0.00  0.00     0.184 A 
ATOM     33  N   UNL d   1      28.379 -11.595  -3.167  0.00  0.00    -0.111 NA
ATOM     34  N   UNL d   1      28.354 -11.161  -4.463  0.00  0.00    -0.023 NA
ATOM     35  N   UNL d   1      28.299 -12.185  -5.284  0.00  0.00    -0.043 NA
ATOM     36  N   UNL d   1      28.163 -13.273  -4.502  0.00  0.00    -0.223 N 
BRANCH  36  37
ATOM     37  C   UNL d   1      28.151 -14.561  -5.193  0.00  0.00     0.048 C 
ATOM     38  C   UNL d   1      28.879 -15.688  -4.477  0.00  0.00     0.040 C 
ATOM     39  C   UNL d   1      26.654 -14.999  -5.394  0.00  0.00     0.040 C 
ATOM     40  C   UNL d   1      29.070 -14.510  -6.403  0.00  0.00     0.040 C 
ENDBRANCH  36  37
ENDBRANCH   1  32
TORSDOF 6
ENDMDL
MODEL 8
REMARK VINA RESULT:    -9.409      2.477      8.962
REMARK INTER + INTRA:         -14.044
REMARK INTER:                 -11.199
REMARK INTRA:                  -2.845
REMARK CONF_INDEPENDENT:        1.790
REMARK UNBOUND:                -2.845
REMARK  6 active torsions:
REMARK  status: ('A' for Active; 'I' for Inactive)
REMARK    1  A    between atoms: O_2  and  C_3 
REMARK    2  A    between atoms: C_7  and  N_8 
REMARK    3  A    between atoms: N_11  and  C_12 
REMARK    4  A    between atoms: C_12  and  C_13 
REMARK    5  A    between atoms: C_12  and  C_27 
REMARK    6  A    between atoms: N_31  and  C_32 
ROOT
ATOM      1  C   UNL d   1      27.635 -12.153   4.096  0.00  0.00     0.298 C 
ENDROOT
BRANCH   1   2
ATOM      2  N   UNL d   1      28.168 -12.982   2.664  0.00  0.00    -0.052 N 
ATOM      3  C   UNL d   1      27.790 -14.459   2.628  0.00  0.00     0.256 C 
ATOM      4  C   UNL d   1      28.265 -15.155   1.354  0.00  0.00     0.150 C 
ATOM      5  N   UNL d   1      27.678 -14.510   0.200  0.00  0.00    -0.378 N 
ATOM      6  C   UNL d   1      28.184 -13.176  -0.020  0.00  0.00     0.150 C 
ATOM      7  C   UNL d   1      27.754 -12.465   1.257  0.00  0.00     0.256 C 
ATOM      8  H   UNL d   1      29.186 -12.882   2.741  0.00  0.00     0.281 HD
BRANCH   5   9
ATOM      9  C   UNL d   1      26.876 -15.267  -0.616  0.00  0.00     0.032 C 
ATOM     10  C   UNL d   1      26.269 -16.415  -0.123  0.00  0.00     0.029 C 
ATOM     11  C   UNL d   1      25.178 -16.961  -0.795  0.00  0.00     0.005 C 
ATOM     12  C   UNL d   1      24.760 -16.432  -2.018  0.00  0.00     0.037 C 
ATOM     13  C   UNL d   1      25.399 -15.325  -2.565  0.00  0.00     0.070 C 
ATOM     14  C   UNL d   1      26.477 -14.771  -1.881  0.00  0.00     0.066 C 
BRANCH  13  15
ATOM     15  O   UNL d   1      24.783 -14.762  -3.647  0.00  0.00    -0.356 OA
ATOM     16  C   UNL d   1      25.424 -13.660  -4.274  0.00  0.00     0.210 C 
ENDBRANCH  13  15
ENDBRANCH   5   9
ENDBRANCH   1   2
BRANCH   1  17
ATOM     17  C   UNL d   1      28.412 -12.655   5.359  0.00  0.00     0.043 C 
ATOM     18  C   UNL d   1      28.156 -12.338   6.668  0.00  0.00     0.027 C 
ATOM     19  C   UNL d   1      28.935 -12.876   7.798  0.00  0.00    -0.015 C 
ATOM     20  C   UNL d   1      28.526 -13.267   9.100  0.00  0.00     0.031 C 
ATOM     21  C   UNL d   1      30.249 -13.092   7.457  0.00  0.00     0.024 C 
ATOM     22  C   UNL d   1      29.406 -14.098   9.847  0.00  0.00     0.158 C 
ATOM     23  C   UNL d   1      30.341 -14.771   9.122  0.00  0.00     0.159 C 
ATOM     24  O   UNL d   1      30.281 -13.674  10.963  0.00  0.00    -0.345 OA
ATOM     25  C   UNL d   1      30.993 -13.972   8.194  0.00  0.00     0.043 C 
ATOM     26  O   UNL d   1      31.063 -15.625   9.922  0.00  0.00    -0.345 OA
ATOM     27  C   UNL d   1      31.453 -14.597  10.813  0.00  0.00     0.341 C 
ATOM     28  N   UNL d   1      30.687 -12.746   6.171  0.00  0.00    -0.225 NA
ATOM     29  C   UNL d   1      29.807 -13.187   5.205  0.00  0.00     0.234 C 
ATOM     30  H   UNL d   1      31.660 -12.953   5.977  0.00  0.00     0.137 HD
ATOM     31  O   UNL d   1      30.191 -13.949   4.308  0.00  0.00    -0.274 OA
ENDBRANCH   1  17
BRANCH   1  32
ATOM     32  C   UNL d   1      27.362 -10.595   3.856  0.00  0.00     0.184 A 
ATOM     33  N   UNL d   1      26.273 -10.071   3.312  0.00  0.00    -0.111 NA
ATOM     34  N   UNL d   1      26.423  -8.716   3.221  0.00  0.00    -0.023 NA
ATOM     35  N   UNL d   1      27.563  -8.347   3.761  0.00  0.00    -0.043 NA
ATOM     36  N   UNL d   1      28.198  -9.489   4.087  0.00  0.00    -0.223 N 
BRANCH  36  37
ATOM     37  C   UNL d   1      29.477  -9.336   4.778  0.00  0.00     0.048 C 
ATOM     38  C   UNL d   1      30.208  -8.030   4.509  0.00  0.00     0.040 C 
ATOM     39  C   UNL d   1      29.217  -9.439   6.326  0.00  0.00     0.040 C 
ATOM     40  C   UNL d   1      30.520 -10.245   4.146  0.00  0.00     0.040 C 
ENDBRANCH  36  37
ENDBRANCH   1  32
TORSDOF 6
ENDMDL
MODEL 9
REMARK VINA RESULT:    -9.193      2.821      3.690
REMARK INTER + INTRA:         -13.786
REMARK INTER:                 -10.982
REMARK INTRA:                  -2.803
REMARK CONF_INDEPENDENT:        1.790
REMARK UNBOUND:                -2.803
REMARK  6 active torsions:
REMARK  status: ('A' for Active; 'I' for Inactive)
REMARK    1  A    between atoms: O_2  and  C_3 
REMARK    2  A    between atoms: C_7  and  N_8 
REMARK    3  A    between atoms: N_11  and  C_12 
REMARK    4  A    between atoms: C_12  and  C_13 
REMARK    5  A    between atoms: C_12  and  C_27 
REMARK    6  A    between atoms: N_31  and  C_32 
ROOT
ATOM      1  C   UNL d   1      28.007 -12.228   1.834  0.00  0.00     0.298 C 
ENDROOT
BRANCH   1   2
ATOM      2  N   UNL d   1      28.425 -13.375   3.073  0.00  0.00    -0.052 N 
ATOM      3  C   UNL d   1      29.736 -13.064   3.786  0.00  0.00     0.256 C 
ATOM      4  C   UNL d   1      30.068 -14.085   4.873  0.00  0.00     0.150 C 
ATOM      5  N   UNL d   1      29.011 -14.105   5.860  0.00  0.00    -0.378 N 
ATOM      6  C   UNL d   1      27.775 -14.649   5.352  0.00  0.00     0.150 C 
ATOM      7  C   UNL d   1      27.436 -13.667   4.237  0.00  0.00     0.256 C 
ATOM      8  H   UNL d   1      28.519 -14.238   2.526  0.00  0.00     0.281 HD
BRANCH   5   9
ATOM      9  C   UNL d   1      29.338 -13.783   7.153  0.00  0.00     0.032 C 
ATOM     10  C   UNL d   1      28.491 -12.977   7.904  0.00  0.00     0.029 C 
ATOM     11  C   UNL d   1      28.605 -12.963   9.292  0.00  0.00     0.005 C 
ATOM     12  C   UNL d   1      29.632 -13.663   9.927  0.00  0.00     0.037 C 
ATOM     13  C   UNL d   1      30.534 -14.421   9.189  0.00  0.00     0.070 C 
ATOM     14  C   UNL d   1      30.406 -14.448   7.804  0.00  0.00     0.066 C 
BRANCH  13  15
ATOM     15  O   UNL d   1      31.361 -15.230   9.917  0.00  0.00    -0.356 OA
ATOM     16  C   UNL d   1      30.784 -16.359  10.559  0.00  0.00     0.210 C 
ENDBRANCH  13  15
ENDBRANCH   5   9
ENDBRANCH   1   2
BRANCH   1  17
ATOM     17  C   UNL d   1      27.619 -12.955   0.503  0.00  0.00     0.043 C 
ATOM     18  C   UNL d   1      26.652 -12.579  -0.393  0.00  0.00     0.027 C 
ATOM     19  C   UNL d   1      26.368 -13.320  -1.635  0.00  0.00    -0.015 C 
ATOM     20  C   UNL d   1      26.001 -12.856  -2.926  0.00  0.00     0.031 C 
ATOM     21  C   UNL d   1      26.587 -14.669  -1.488  0.00  0.00     0.024 C 
ATOM     22  C   UNL d   1      26.161 -13.751  -4.019  0.00  0.00     0.158 C 
ATOM     23  C   UNL d   1      27.013 -14.792  -3.812  0.00  0.00     0.159 C 
ATOM     24  O   UNL d   1      25.085 -14.503  -4.705  0.00  0.00    -0.345 OA
ATOM     25  C   UNL d   1      26.807 -15.434  -2.600  0.00  0.00     0.043 C 
ATOM     26  O   UNL d   1      27.180 -15.528  -4.961  0.00  0.00    -0.345 OA
ATOM     27  C   UNL d   1      25.792 -15.760  -5.115  0.00  0.00     0.341 C 
ATOM     28  N   UNL d   1      26.978 -15.166  -0.236  0.00  0.00    -0.225 NA
ATOM     29  C   UNL d   1      27.982 -14.399   0.316  0.00  0.00     0.234 C 
ATOM     30  H   UNL d   1      27.146 -16.164  -0.202  0.00  0.00     0.137 HD
ATOM     31  O   UNL d   1      29.067 -14.913   0.620  0.00  0.00    -0.274 OA
ENDBRANCH   1  17
BRANCH   1  32
ATOM     32  C   UNL d   1      27.154 -10.992   2.383  0.00  0.00     0.184 A 
ATOM     33  N   UNL d   1      25.909 -10.694   2.040  0.00  0.00    -0.111 NA
ATOM     34  N   UNL d   1      25.534  -9.540   2.670  0.00  0.00    -0.023 NA
ATOM     35  N   UNL d   1      26.491  -9.125   3.467  0.00  0.00    -0.043 NA
ATOM     36  N   UNL d   1      27.531  -9.952   3.251  0.00  0.00    -0.223 N 
BRANCH  36  37
ATOM     37  C   UNL d   1      28.710  -9.733   4.087  0.00  0.00     0.048 C 
ATOM     38  C   UNL d   1      28.992  -8.282   4.444  0.00  0.00     0.040 C 
ATOM     39  C   UNL d   1      28.522 -10.537   5.426  0.00  0.00     0.040 C 
ATOM     40  C   UNL d   1      29.973  -9.953   3.270  0.00  0.00     0.040 C 
ENDBRANCH  36  37
ENDBRANCH   1  32
TORSDOF 6
ENDMDL
