MODEL 1
REMARK VINA RESULT:    -9.772      0.000      0.000
REMARK INTER + INTRA:         -16.065
REMARK INTER:                 -13.948
REMARK INTRA:                  -2.117
REMARK CONF_INDEPENDENT:        4.176
REMARK UNBOUND:                -2.117
REMARK  14 active torsions:
REMARK  status: ('A' for Active; 'I' for Inactive)
REMARK    1  A    between atoms: C_2  and  C_14 
REMARK    2  A    between atoms: C_2  and  N_3 
REMARK       I    between atoms: N_3  and  C_4 
REMARK    3  A    between atoms: C_4  and  O_6 
REMARK    4  A    between atoms: O_6  and  C_7 
REMARK    5  A    between atoms: C_7  and  C_8 
REMARK       I    between atoms: C_14  and  N_16 
REMARK    6  A    between atoms: C_17  and  N_16 
REMARK    7  A    between atoms: C_17  and  C_27 
REMARK    8  A    between atoms: C_17  and  C_18 
REMARK    9  A    between atoms: C_18  and  S_19 
REMARK   10  A    between atoms: S_19  and  C_20 
REMARK   11  A    between atoms: C_20  and  C_21 
REMARK   12  A    between atoms: C_27  and  O_29 
REMARK   13  A    between atoms: O_29  and  C_30 
REMARK   14  A    between atoms: C_30  and  C_31 
ROOT
ATOM      1  C   UNL d   1      27.300 -15.135   0.411  0.00  0.00     0.193 C 
ENDROOT
BRANCH   1   2
ATOM      2  C   UNL d   1      27.404 -14.216   1.623  0.00  0.00     0.282 C 
ATOM      3  O   UNL d   1      27.192 -13.008   1.595  0.00  0.00    -0.263 OA
BRANCH   2   4
ATOM      4  O   UNL d   1      27.792 -14.877   2.734  0.00  0.00    -0.315 OA
BRANCH   4   5
ATOM      5  C   UNL d   1      29.004 -14.318   3.253  0.00  0.00     0.217 C 
BRANCH   5   6
ATOM      6  C   UNL d   1      28.673 -13.839   4.630  0.00  0.00    -0.034 A 
ATOM      7  C   UNL d   1      28.120 -12.570   4.827  0.00  0.00     0.009 A 
ATOM      8  C   UNL d   1      28.047 -12.041   6.112  0.00  0.00     0.001 A 
ATOM      9  C   UNL d   1      28.439 -12.812   7.207  0.00  0.00     0.000 A 
ATOM     10  C   UNL d   1      28.937 -14.099   7.018  0.00  0.00     0.001 A 
ATOM     11  C   UNL d   1      29.062 -14.610   5.732  0.00  0.00     0.009 A 
ENDBRANCH   5   6
ENDBRANCH   4   5
ENDBRANCH   2   4
ENDBRANCH   1   2
BRANCH   1  12
ATOM     12  C   UNL d   1      28.599 -15.025  -0.353  0.00  0.00     0.109 C 
BRANCH  12  13
ATOM     13  S   UNL d   1      28.920 -15.921  -1.846  0.00  0.00    -0.162 SA
BRANCH  13  14
ATOM     14  C   UNL d   1      28.997 -14.498  -3.084  0.00  0.00     0.112 C 
BRANCH  14  15
ATOM     15  C   UNL d   1      27.585 -14.249  -3.560  0.00  0.00    -0.049 A 
ATOM     16  C   UNL d   1      26.988 -13.004  -3.288  0.00  0.00     0.008 A 
ATOM     17  C   UNL d   1      25.691 -12.719  -3.667  0.00  0.00     0.001 A 
ATOM     18  C   UNL d   1      24.966 -13.671  -4.363  0.00  0.00     0.000 A 
ATOM     19  C   UNL d   1      25.530 -14.919  -4.644  0.00  0.00     0.001 A 
ATOM     20  C   UNL d   1      26.836 -15.217  -4.238  0.00  0.00     0.008 A 
ENDBRANCH  14  15
ENDBRANCH  13  14
ENDBRANCH  12  13
ENDBRANCH   1  12
BRANCH   1  21
ATOM     21  N   UNL d   1      27.007 -16.547   0.802  0.00  0.00    -0.345 N 
ATOM     22  C   UNL d   1      26.172 -17.501   0.250  0.00  0.00     0.240 C 
ATOM     23  O   UNL d   1      26.276 -18.657   0.673  0.00  0.00    -0.271 OA
ATOM     24  H   UNL d   1      27.631 -16.940   1.505  0.00  0.00     0.163 HD
BRANCH  22  25
ATOM     25  C   UNL d   1      25.121 -17.147  -0.860  0.00  0.00     0.174 C 
ATOM     26  C   UNL d   1      25.317 -15.720  -1.420  0.00  0.00     0.042 C 
BRANCH  25  27
ATOM     27  N   UNL d   1      23.710 -17.206  -0.440  0.00  0.00    -0.324 N 
ATOM     28  C   UNL d   1      22.859 -18.121  -1.046  0.00  0.00     0.361 C 
ATOM     29  O   UNL d   1      23.226 -19.032  -1.755  0.00  0.00    -0.238 OA
ATOM     30  H   UNL d   1      23.337 -16.466   0.139  0.00  0.00     0.165 HD
BRANCH  28  31
ATOM     31  O   UNL d   1      21.549 -17.844  -0.805  0.00  0.00    -0.299 OA
BRANCH  31  32
ATOM     32  C   UNL d   1      20.683 -18.916  -1.244  0.00  0.00     0.219 C 
BRANCH  32  33
ATOM     33  C   UNL d   1      20.021 -19.526  -0.035  0.00  0.00    -0.034 A 
ATOM     34  C   UNL d   1      20.515 -19.365   1.267  0.00  0.00     0.009 A 
ATOM     35  C   UNL d   1      19.918 -20.049   2.332  0.00  0.00     0.001 A 
ATOM     36  C   UNL d   1      18.777 -20.822   2.116  0.00  0.00     0.000 A 
ATOM     37  C   UNL d   1      18.255 -20.949   0.832  0.00  0.00     0.001 A 
ATOM     38  C   UNL d   1      18.879 -20.312  -0.236  0.00  0.00     0.009 A 
ENDBRANCH  32  33
ENDBRANCH  31  32
ENDBRANCH  28  31
ENDBRANCH  25  27
ENDBRANCH  22  25
ENDBRANCH   1  21
TORSDOF 14
ENDMDL
MODEL 2
REMARK VINA RESULT:    -9.560      2.819      8.655
REMARK INTER + INTRA:         -16.954
REMARK INTER:                 -13.736
REMARK INTRA:                  -3.218
REMARK CONF_INDEPENDENT:        4.176
REMARK UNBOUND:                -3.218
REMARK  14 active torsions:
REMARK  status: ('A' for Active; 'I' for Inactive)
REMARK    1  A    between atoms: C_2  and  C_14 
REMARK    2  A    between atoms: C_2  and  N_3 
REMARK       I    between atoms: N_3  and  C_4 
REMARK    3  A    between atoms: C_4  and  O_6 
REMARK    4  A    between atoms: O_6  and  C_7 
REMARK    5  A    between atoms: C_7  and  C_8 
REMARK       I    between atoms: C_14  and  N_16 
REMARK    6  A    between atoms: C_17  and  N_16 
REMARK    7  A    between atoms: C_17  and  C_27 
REMARK    8  A    between atoms: C_17  and  C_18 
REMARK    9  A    between atoms: C_18  and  S_19 
REMARK   10  A    between atoms: S_19  and  C_20 
REMARK   11  A    between atoms: C_20  and  C_21 
REMARK   12  A    between atoms: C_27  and  O_29 
REMARK   13  A    between atoms: O_29  and  C_30 
REMARK   14  A    between atoms: C_30  and  C_31 
ROOT
ATOM      1  C   UNL d   1      25.181 -16.226  -1.074  0.00  0.00     0.193 C 
ENDROOT
BRANCH   1   2
ATOM      2  C   UNL d   1      24.406 -17.460  -0.626  0.00  0.00     0.282 C 
ATOM      3  O   UNL d   1      24.907 -18.421  -0.052  0.00  0.00    -0.263 OA
BRANCH   2   4
ATOM      4  O   UNL d   1      23.101 -17.395  -0.965  0.00  0.00    -0.315 OA
BRANCH   4   5
ATOM      5  C   UNL d   1      22.627 -18.679  -1.390  0.00  0.00     0.217 C 
BRANCH   5   6
ATOM      6  C   UNL d   1      21.384 -18.934  -0.602  0.00  0.00    -0.034 A 
ATOM      7  C   UNL d   1      21.420 -18.950   0.796  0.00  0.00     0.009 A 
ATOM      8  C   UNL d   1      20.324 -19.429   1.510  0.00  0.00     0.001 A 
ATOM      9  C   UNL d   1      19.163 -19.803   0.834  0.00  0.00     0.000 A 
ATOM     10  C   UNL d   1      19.104 -19.733  -0.556  0.00  0.00     0.001 A 
ATOM     11  C   UNL d   1      20.214 -19.307  -1.275  0.00  0.00     0.009 A 
ENDBRANCH   5   6
ENDBRANCH   4   5
ENDBRANCH   2   4
ENDBRANCH   1   2
BRANCH   1  12
ATOM     12  C   UNL d   1      26.498 -16.701  -1.641  0.00  0.00     0.109 C 
BRANCH  12  13
ATOM     13  S   UNL d   1      28.044 -16.476  -0.807  0.00  0.00    -0.162 SA
BRANCH  13  14
ATOM     14  C   UNL d   1      27.445 -16.300   0.974  0.00  0.00     0.112 C 
BRANCH  14  15
ATOM     15  C   UNL d   1      27.571 -14.838   1.340  0.00  0.00    -0.049 A 
ATOM     16  C   UNL d   1      28.532 -14.461   2.295  0.00  0.00     0.008 A 
ATOM     17  C   UNL d   1      28.682 -13.149   2.699  0.00  0.00     0.001 A 
ATOM     18  C   UNL d   1      27.888 -12.170   2.126  0.00  0.00     0.000 A 
ATOM     19  C   UNL d   1      26.921 -12.516   1.177  0.00  0.00     0.001 A 
ATOM     20  C   UNL d   1      26.752 -13.849   0.786  0.00  0.00     0.008 A 
ENDBRANCH  14  15
ENDBRANCH  13  14
ENDBRANCH  12  13
ENDBRANCH   1  12
BRANCH   1  21
ATOM     21  N   UNL d   1      24.414 -15.412  -2.065  0.00  0.00    -0.345 N 
ATOM     22  C   UNL d   1      24.822 -14.499  -3.020  0.00  0.00     0.240 C 
ATOM     23  O   UNL d   1      23.977 -14.119  -3.837  0.00  0.00    -0.271 OA
ATOM     24  H   UNL d   1      23.434 -15.670  -2.172  0.00  0.00     0.163 HD
BRANCH  22  25
ATOM     25  C   UNL d   1      26.291 -13.948  -3.071  0.00  0.00     0.174 C 
ATOM     26  C   UNL d   1      26.380 -12.471  -2.626  0.00  0.00     0.042 C 
BRANCH  25  27
ATOM     27  N   UNL d   1      26.938 -13.991  -4.394  0.00  0.00    -0.324 N 
ATOM     28  C   UNL d   1      26.734 -15.094  -5.213  0.00  0.00     0.361 C 
ATOM     29  O   UNL d   1      25.893 -15.945  -5.021  0.00  0.00    -0.238 OA
ATOM     30  H   UNL d   1      27.661 -13.320  -4.612  0.00  0.00     0.165 HD
BRANCH  28  31
ATOM     31  O   UNL d   1      27.633 -15.152  -6.232  0.00  0.00    -0.299 OA
BRANCH  31  32
ATOM     32  C   UNL d   1      28.980 -14.881  -5.779  0.00  0.00     0.219 C 
BRANCH  32  33
ATOM     33  C   UNL d   1      29.609 -16.176  -5.335  0.00  0.00    -0.034 A 
ATOM     34  C   UNL d   1      29.661 -16.577  -3.993  0.00  0.00     0.009 A 
ATOM     35  C   UNL d   1      30.359 -17.736  -3.635  0.00  0.00     0.001 A 
ATOM     36  C   UNL d   1      30.928 -18.543  -4.620  0.00  0.00     0.000 A 
ATOM     37  C   UNL d   1      30.842 -18.173  -5.959  0.00  0.00     0.001 A 
ATOM     38  C   UNL d   1      30.194 -16.993  -6.311  0.00  0.00     0.009 A 
ENDBRANCH  32  33
ENDBRANCH  31  32
ENDBRANCH  28  31
ENDBRANCH  25  27
ENDBRANCH  22  25
ENDBRANCH   1  21
TORSDOF 14
ENDMDL
MODEL 3
REMARK VINA RESULT:    -9.059      3.525      6.880
REMARK INTER + INTRA:         -16.066
REMARK INTER:                 -13.235
REMARK INTRA:                  -2.831
REMARK CONF_INDEPENDENT:        4.176
REMARK UNBOUND:                -2.831
REMARK  14 active torsions:
REMARK  status: ('A' for Active; 'I' for Inactive)
REMARK    1  A    between atoms: C_2  and  C_14 
REMARK    2  A    between atoms: C_2  and  N_3 
REMARK       I    between atoms: N_3  and  C_4 
REMARK    3  A    between atoms: C_4  and  O_6 
REMARK    4  A    between atoms: O_6  and  C_7 
REMARK    5  A    between atoms: C_7  and  C_8 
REMARK       I    between atoms: C_14  and  N_16 
REMARK    6  A    between atoms: C_17  and  N_16 
REMARK    7  A    between atoms: C_17  and  C_27 
REMARK    8  A    between atoms: C_17  and  C_18 
REMARK    9  A    between atoms: C_18  and  S_19 
REMARK   10  A    between atoms: S_19  and  C_20 
REMARK   11  A    between atoms: C_20  and  C_21 
REMARK   12  A    between atoms: C_27  and  O_29 
REMARK   13  A    between atoms: O_29  and  C_30 
REMARK   14  A    between atoms: C_30  and  C_31 
ROOT
ATOM      1  C   UNL d   1      27.422 -15.212  -3.743  0.00  0.00     0.193 C 
ENDROOT
BRANCH   1   2
ATOM      2  C   UNL d   1      28.253 -15.547  -4.977  0.00  0.00     0.282 C 
ATOM      3  O   UNL d   1      27.978 -15.182  -6.115  0.00  0.00    -0.263 OA
BRANCH   2   4
ATOM      4  O   UNL d   1      29.315 -16.326  -4.682  0.00  0.00    -0.315 OA
BRANCH   4   5
ATOM      5  C   UNL d   1      30.283 -16.278  -5.737  0.00  0.00     0.217 C 
BRANCH   5   6
ATOM      6  C   UNL d   1      30.448 -17.689  -6.201  0.00  0.00    -0.034 A 
ATOM      7  C   UNL d   1      30.380 -18.748  -5.291  0.00  0.00     0.009 A 
ATOM      8  C   UNL d   1      30.778 -20.023  -5.685  0.00  0.00     0.001 A 
ATOM      9  C   UNL d   1      31.154 -20.259  -7.007  0.00  0.00     0.000 A 
ATOM     10  C   UNL d   1      31.166 -19.215  -7.931  0.00  0.00     0.001 A 
ATOM     11  C   UNL d   1      30.822 -17.931  -7.528  0.00  0.00     0.009 A 
ENDBRANCH   5   6
ENDBRANCH   4   5
ENDBRANCH   2   4
ENDBRANCH   1   2
BRANCH   1  12
ATOM     12  C   UNL d   1      25.969 -15.238  -4.156  0.00  0.00     0.109 C 
BRANCH  12  13
ATOM     13  S   UNL d   1      24.764 -14.111  -3.513  0.00  0.00    -0.162 SA
BRANCH  13  14
ATOM     14  C   UNL d   1      25.892 -12.744  -2.863  0.00  0.00     0.112 C 
BRANCH  14  15
ATOM     15  C   UNL d   1      25.958 -11.678  -3.932  0.00  0.00    -0.049 A 
ATOM     16  C   UNL d   1      25.954 -12.073  -5.283  0.00  0.00     0.008 A 
ATOM     17  C   UNL d   1      26.042 -11.155  -6.311  0.00  0.00     0.001 A 
ATOM     18  C   UNL d   1      26.103  -9.806  -6.008  0.00  0.00     0.000 A 
ATOM     19  C   UNL d   1      26.113  -9.383  -4.675  0.00  0.00     0.001 A 
ATOM     20  C   UNL d   1      26.049 -10.315  -3.633  0.00  0.00     0.008 A 
ENDBRANCH  14  15
ENDBRANCH  13  14
ENDBRANCH  12  13
ENDBRANCH   1  12
BRANCH   1  21
ATOM     21  N   UNL d   1      27.692 -16.153  -2.614  0.00  0.00    -0.345 N 
ATOM     22  C   UNL d   1      27.045 -16.355  -1.409  0.00  0.00     0.240 C 
ATOM     23  O   UNL d   1      27.377 -17.344  -0.747  0.00  0.00    -0.271 OA
ATOM     24  H   UNL d   1      28.378 -16.880  -2.810  0.00  0.00     0.163 HD
BRANCH  22  25
ATOM     25  C   UNL d   1      25.938 -15.374  -0.883  0.00  0.00     0.174 C 
ATOM     26  C   UNL d   1      26.462 -14.442   0.232  0.00  0.00     0.042 C 
BRANCH  25  27
ATOM     27  N   UNL d   1      24.739 -16.016  -0.317  0.00  0.00    -0.324 N 
ATOM     28  C   UNL d   1      24.008 -16.898  -1.101  0.00  0.00     0.361 C 
ATOM     29  O   UNL d   1      24.389 -17.354  -2.158  0.00  0.00    -0.238 OA
ATOM     30  H   UNL d   1      24.360 -15.672   0.554  0.00  0.00     0.165 HD
BRANCH  28  31
ATOM     31  O   UNL d   1      22.776 -17.150  -0.582  0.00  0.00    -0.299 OA
BRANCH  31  32
ATOM     32  C   UNL d   1      22.754 -18.378   0.182  0.00  0.00     0.219 C 
BRANCH  32  33
ATOM     33  C   UNL d   1      21.360 -18.951   0.135  0.00  0.00    -0.034 A 
ATOM     34  C   UNL d   1      20.659 -19.344   1.283  0.00  0.00     0.009 A 
ATOM     35  C   UNL d   1      19.415 -19.972   1.162  0.00  0.00     0.001 A 
ATOM     36  C   UNL d   1      18.828 -20.129  -0.094  0.00  0.00     0.000 A 
ATOM     37  C   UNL d   1      19.500 -19.699  -1.234  0.00  0.00     0.001 A 
ATOM     38  C   UNL d   1      20.762 -19.122  -1.120  0.00  0.00     0.009 A 
ENDBRANCH  32  33
ENDBRANCH  31  32
ENDBRANCH  28  31
ENDBRANCH  25  27
ENDBRANCH  22  25
ENDBRANCH   1  21
TORSDOF 14
ENDMDL
MODEL 4
REMARK VINA RESULT:    -8.535      3.346      7.091
REMARK INTER + INTRA:         -15.976
REMARK INTER:                 -12.711
REMARK INTRA:                  -3.265
REMARK CONF_INDEPENDENT:        4.176
REMARK UNBOUND:                -3.265
REMARK  14 active torsions:
REMARK  status: ('A' for Active; 'I' for Inactive)
REMARK    1  A    between atoms: C_2  and  C_14 
REMARK    2  A    between atoms: C_2  and  N_3 
REMARK       I    between atoms: N_3  and  C_4 
REMARK    3  A    between atoms: C_4  and  O_6 
REMARK    4  A    between atoms: O_6  and  C_7 
REMARK    5  A    between atoms: C_7  and  C_8 
REMARK       I    between atoms: C_14  and  N_16 
REMARK    6  A    between atoms: C_17  and  N_16 
REMARK    7  A    between atoms: C_17  and  C_27 
REMARK    8  A    between atoms: C_17  and  C_18 
REMARK    9  A    between atoms: C_18  and  S_19 
REMARK   10  A    between atoms: S_19  and  C_20 
REMARK   11  A    between atoms: C_20  and  C_21 
REMARK   12  A    between atoms: C_27  and  O_29 
REMARK   13  A    between atoms: O_29  and  C_30 
REMARK   14  A    between atoms: C_30  and  C_31 
ROOT
ATOM      1  C   UNL d   1      27.229 -13.749  -1.323  0.00  0.00     0.193 C 
ENDROOT
BRANCH   1   2
ATOM      2  C   UNL d   1      26.899 -13.867   0.161  0.00  0.00     0.282 C 
ATOM      3  O   UNL d   1      25.905 -14.431   0.605  0.00  0.00    -0.263 OA
BRANCH   2   4
ATOM      4  O   UNL d   1      27.811 -13.246   0.938  0.00  0.00    -0.315 OA
BRANCH   4   5
ATOM      5  C   UNL d   1      27.164 -12.507   1.980  0.00  0.00     0.217 C 
BRANCH   5   6
ATOM      6  C   UNL d   1      27.680 -13.078   3.262  0.00  0.00    -0.034 A 
ATOM      7  C   UNL d   1      27.915 -14.451   3.384  0.00  0.00     0.009 A 
ATOM      8  C   UNL d   1      28.154 -15.001   4.641  0.00  0.00     0.001 A 
ATOM      9  C   UNL d   1      28.250 -14.171   5.758  0.00  0.00     0.000 A 
ATOM     10  C   UNL d   1      28.072 -12.795   5.629  0.00  0.00     0.001 A 
ATOM     11  C   UNL d   1      27.780 -12.249   4.386  0.00  0.00     0.009 A 
ENDBRANCH   5   6
ENDBRANCH   4   5
ENDBRANCH   2   4
ENDBRANCH   1   2
BRANCH   1  12
ATOM     12  C   UNL d   1      28.388 -14.676  -1.604  0.00  0.00     0.109 C 
BRANCH  12  13
ATOM     13  S   UNL d   1      28.178 -16.341  -2.168  0.00  0.00    -0.162 SA
BRANCH  13  14
ATOM     14  C   UNL d   1      27.798 -17.206  -0.534  0.00  0.00     0.112 C 
BRANCH  14  15
ATOM     15  C   UNL d   1      26.304 -17.433  -0.490  0.00  0.00    -0.049 A 
ATOM     16  C   UNL d   1      25.523 -17.004  -1.579  0.00  0.00     0.008 A 
ATOM     17  C   UNL d   1      24.150 -17.152  -1.593  0.00  0.00     0.001 A 
ATOM     18  C   UNL d   1      23.526 -17.768  -0.522  0.00  0.00     0.000 A 
ATOM     19  C   UNL d   1      24.275 -18.200   0.575  0.00  0.00     0.001 A 
ATOM     20  C   UNL d   1      25.664 -18.028   0.601  0.00  0.00     0.008 A 
ENDBRANCH  14  15
ENDBRANCH  13  14
ENDBRANCH  12  13
ENDBRANCH   1  12
BRANCH   1  21
ATOM     21  N   UNL d   1      26.050 -14.062  -2.186  0.00  0.00    -0.345 N 
ATOM     22  C   UNL d   1      25.798 -13.823  -3.524  0.00  0.00     0.240 C 
ATOM     23  O   UNL d   1      24.808 -14.370  -4.021  0.00  0.00    -0.271 OA
ATOM     24  H   UNL d   1      25.365 -14.692  -1.771  0.00  0.00     0.163 HD
BRANCH  22  25
ATOM     25  C   UNL d   1      26.715 -12.889  -4.391  0.00  0.00     0.174 C 
ATOM     26  C   UNL d   1      25.905 -12.031  -5.387  0.00  0.00     0.042 C 
BRANCH  25  27
ATOM     27  N   UNL d   1      27.728 -13.577  -5.209  0.00  0.00    -0.324 N 
ATOM     28  C   UNL d   1      27.435 -14.825  -5.744  0.00  0.00     0.361 C 
ATOM     29  O   UNL d   1      26.328 -15.317  -5.770  0.00  0.00    -0.238 OA
ATOM     30  H   UNL d   1      28.677 -13.228  -5.217  0.00  0.00     0.165 HD
BRANCH  28  31
ATOM     31  O   UNL d   1      28.548 -15.472  -6.183  0.00  0.00    -0.299 OA
BRANCH  31  32
ATOM     32  C   UNL d   1      29.425 -15.837  -5.092  0.00  0.00     0.219 C 
BRANCH  32  33
ATOM     33  C   UNL d   1      30.083 -17.152  -5.422  0.00  0.00    -0.034 A 
ATOM     34  C   UNL d   1      30.517 -17.485  -6.713  0.00  0.00     0.009 A 
ATOM     35  C   UNL d   1      31.017 -18.765  -6.975  0.00  0.00     0.001 A 
ATOM     36  C   UNL d   1      31.169 -19.684  -5.937  0.00  0.00     0.000 A 
ATOM     37  C   UNL d   1      30.782 -19.344  -4.644  0.00  0.00     0.001 A 
ATOM     38  C   UNL d   1      30.235 -18.089  -4.391  0.00  0.00     0.009 A 
ENDBRANCH  32  33
ENDBRANCH  31  32
ENDBRANCH  28  31
ENDBRANCH  25  27
ENDBRANCH  22  25
ENDBRANCH   1  21
TORSDOF 14
ENDMDL
MODEL 5
REMARK VINA RESULT:    -8.321      2.569      8.179
REMARK INTER + INTRA:         -16.437
REMARK INTER:                 -12.497
REMARK INTRA:                  -3.940
REMARK CONF_INDEPENDENT:        4.176
REMARK UNBOUND:                -3.940
REMARK  14 active torsions:
REMARK  status: ('A' for Active; 'I' for Inactive)
REMARK    1  A    between atoms: C_2  and  C_14 
REMARK    2  A    between atoms: C_2  and  N_3 
REMARK       I    between atoms: N_3  and  C_4 
REMARK    3  A    between atoms: C_4  and  O_6 
REMARK    4  A    between atoms: O_6  and  C_7 
REMARK    5  A    between atoms: C_7  and  C_8 
REMARK       I    between atoms: C_14  and  N_16 
REMARK    6  A    between atoms: C_17  and  N_16 
REMARK    7  A    between atoms: C_17  and  C_27 
REMARK    8  A    between atoms: C_17  and  C_18 
REMARK    9  A    between atoms: C_18  and  S_19 
REMARK   10  A    between atoms: S_19  and  C_20 
REMARK   11  A    between atoms: C_20  and  C_21 
REMARK   12  A    between atoms: C_27  and  O_29 
REMARK   13  A    between atoms: O_29  and  C_30 
REMARK   14  A    between atoms: C_30  and  C_31 
ROOT
ATOM      1  C   UNL d   1      28.129 -14.891  -0.578  0.00  0.00     0.193 C 
ENDROOT
BRANCH   1   2
ATOM      2  C   UNL d   1      26.652 -15.222  -0.398  0.00  0.00     0.282 C 
ATOM      3  O   UNL d   1      25.920 -14.686   0.427  0.00  0.00    -0.263 OA
BRANCH   2   4
ATOM      4  O   UNL d   1      26.243 -16.203  -1.230  0.00  0.00    -0.315 OA
BRANCH   4   5
ATOM      5  C   UNL d   1      26.043 -17.423  -0.508  0.00  0.00     0.217 C 
BRANCH   5   6
ATOM      6  C   UNL d   1      24.564 -17.633  -0.467  0.00  0.00    -0.034 A 
ATOM      7  C   UNL d   1      24.033 -18.918  -0.313  0.00  0.00     0.009 A 
ATOM      8  C   UNL d   1      22.673 -19.132  -0.523  0.00  0.00     0.001 A 
ATOM      9  C   UNL d   1      21.831 -18.054  -0.796  0.00  0.00     0.000 A 
ATOM     10  C   UNL d   1      22.350 -16.764  -0.893  0.00  0.00     0.001 A 
ATOM     11  C   UNL d   1      23.715 -16.554  -0.737  0.00  0.00     0.009 A 
ENDBRANCH   5   6
ENDBRANCH   4   5
ENDBRANCH   2   4
ENDBRANCH   1   2
BRANCH   1  12
ATOM     12  C   UNL d   1      28.663 -14.455   0.766  0.00  0.00     0.109 C 
BRANCH  12  13
ATOM     13  S   UNL d   1      28.456 -12.814   1.400  0.00  0.00    -0.162 SA
BRANCH  13  14
ATOM     14  C   UNL d   1      27.042 -13.099   2.618  0.00  0.00     0.112 C 
BRANCH  14  15
ATOM     15  C   UNL d   1      27.666 -13.527   3.927  0.00  0.00    -0.049 A 
ATOM     16  C   UNL d   1      27.790 -12.579   4.960  0.00  0.00     0.008 A 
ATOM     17  C   UNL d   1      28.377 -12.893   6.170  0.00  0.00     0.001 A 
ATOM     18  C   UNL d   1      28.827 -14.184   6.388  0.00  0.00     0.000 A 
ATOM     19  C   UNL d   1      28.721 -15.146   5.379  0.00  0.00     0.001 A 
ATOM     20  C   UNL d   1      28.149 -14.822   4.144  0.00  0.00     0.008 A 
ENDBRANCH  14  15
ENDBRANCH  13  14
ENDBRANCH  12  13
ENDBRANCH   1  12
BRANCH   1  21
ATOM     21  N   UNL d   1      28.899 -16.047  -1.129  0.00  0.00    -0.345 N 
ATOM     22  C   UNL d   1      29.224 -16.404  -2.425  0.00  0.00     0.240 C 
ATOM     23  O   UNL d   1      30.043 -17.316  -2.573  0.00  0.00    -0.271 OA
ATOM     24  H   UNL d   1      29.406 -16.598  -0.439  0.00  0.00     0.163 HD
BRANCH  22  25
ATOM     25  C   UNL d   1      28.579 -15.697  -3.670  0.00  0.00     0.174 C 
ATOM     26  C   UNL d   1      29.088 -14.250  -3.852  0.00  0.00     0.042 C 
BRANCH  25  27
ATOM     27  N   UNL d   1      27.110 -15.590  -3.648  0.00  0.00    -0.324 N 
ATOM     28  C   UNL d   1      26.439 -15.232  -4.810  0.00  0.00     0.361 C 
ATOM     29  O   UNL d   1      26.943 -15.201  -5.911  0.00  0.00    -0.238 OA
ATOM     30  H   UNL d   1      26.629 -15.592  -2.759  0.00  0.00     0.165 HD
BRANCH  28  31
ATOM     31  O   UNL d   1      25.154 -14.855  -4.567  0.00  0.00    -0.299 OA
BRANCH  31  32
ATOM     32  C   UNL d   1      25.017 -14.205  -3.282  0.00  0.00     0.219 C 
BRANCH  32  33
ATOM     33  C   UNL d   1      25.741 -12.883  -3.332  0.00  0.00    -0.034 A 
ATOM     34  C   UNL d   1      26.475 -12.377  -2.251  0.00  0.00     0.009 A 
ATOM     35  C   UNL d   1      27.029 -11.093  -2.322  0.00  0.00     0.001 A 
ATOM     36  C   UNL d   1      26.928 -10.350  -3.498  0.00  0.00     0.000 A 
ATOM     37  C   UNL d   1      26.238 -10.868  -4.591  0.00  0.00     0.001 A 
ATOM     38  C   UNL d   1      25.641 -12.122  -4.503  0.00  0.00     0.009 A 
ENDBRANCH  32  33
ENDBRANCH  31  32
ENDBRANCH  28  31
ENDBRANCH  25  27
ENDBRANCH  22  25
ENDBRANCH   1  21
TORSDOF 14
ENDMDL
MODEL 6
REMARK VINA RESULT:    -8.254      3.785      8.681
REMARK INTER + INTRA:         -16.103
REMARK INTER:                 -12.430
REMARK INTRA:                  -3.672
REMARK CONF_INDEPENDENT:        4.176
REMARK UNBOUND:                -3.672
REMARK  14 active torsions:
REMARK  status: ('A' for Active; 'I' for Inactive)
REMARK    1  A    between atoms: C_2  and  C_14 
REMARK    2  A    between atoms: C_2  and  N_3 
REMARK       I    between atoms: N_3  and  C_4 
REMARK    3  A    between atoms: C_4  and  O_6 
REMARK    4  A    between atoms: O_6  and  C_7 
REMARK    5  A    between atoms: C_7  and  C_8 
REMARK       I    between atoms: C_14  and  N_16 
REMARK    6  A    between atoms: C_17  and  N_16 
REMARK    7  A    between atoms: C_17  and  C_27 
REMARK    8  A    between atoms: C_17  and  C_18 
REMARK    9  A    between atoms: C_18  and  S_19 
REMARK   10  A    between atoms: S_19  and  C_20 
REMARK   11  A    between atoms: C_20  and  C_21 
REMARK   12  A    between atoms: C_27  and  O_29 
REMARK   13  A    between atoms: O_29  and  C_30 
REMARK   14  A    between atoms: C_30  and  C_31 
ROOT
ATOM      1  C   UNL d   1      25.981 -16.245  -1.419  0.00  0.00     0.193 C 
ENDROOT
BRANCH   1   2
ATOM      2  C   UNL d   1      26.840 -15.200  -0.715  0.00  0.00     0.282 C 
ATOM      3  O   UNL d   1      26.391 -14.262  -0.064  0.00  0.00    -0.263 OA
BRANCH   2   4
ATOM      4  O   UNL d   1      28.159 -15.401  -0.918  0.00  0.00    -0.315 OA
BRANCH   4   5
ATOM      5  C   UNL d   1      28.503 -16.768  -0.669  0.00  0.00     0.217 C 
BRANCH   5   6
ATOM      6  C   UNL d   1      29.934 -16.907  -1.077  0.00  0.00    -0.034 A 
ATOM      7  C   UNL d   1      30.762 -15.783  -1.156  0.00  0.00     0.009 A 
ATOM      8  C   UNL d   1      32.009 -15.885  -1.769  0.00  0.00     0.001 A 
ATOM      9  C   UNL d   1      32.465 -17.124  -2.218  0.00  0.00     0.000 A 
ATOM     10  C   UNL d   1      31.664 -18.257  -2.088  0.00  0.00     0.001 A 
ATOM     11  C   UNL d   1      30.398 -18.149  -1.526  0.00  0.00     0.009 A 
ENDBRANCH   5   6
ENDBRANCH   4   5
ENDBRANCH   2   4
ENDBRANCH   1   2
BRANCH   1  12
ATOM     12  C   UNL d   1      25.205 -16.984  -0.356  0.00  0.00     0.109 C 
BRANCH  12  13
ATOM     13  S   UNL d   1      24.150 -18.361  -0.712  0.00  0.00    -0.162 SA
BRANCH  13  14
ATOM     14  C   UNL d   1      22.486 -17.482  -0.862  0.00  0.00     0.112 C 
BRANCH  14  15
ATOM     15  C   UNL d   1      21.430 -18.449  -0.379  0.00  0.00    -0.049 A 
ATOM     16  C   UNL d   1      20.414 -18.842  -1.270  0.00  0.00     0.008 A 
ATOM     17  C   UNL d   1      19.401 -19.699  -0.888  0.00  0.00     0.001 A 
ATOM     18  C   UNL d   1      19.399 -20.213   0.397  0.00  0.00     0.000 A 
ATOM     19  C   UNL d   1      20.393 -19.838   1.306  0.00  0.00     0.001 A 
ATOM     20  C   UNL d   1      21.406 -18.950   0.927  0.00  0.00     0.008 A 
ENDBRANCH  14  15
ENDBRANCH  13  14
ENDBRANCH  12  13
ENDBRANCH   1  12
BRANCH   1  21
ATOM     21  N   UNL d   1      25.077 -15.632  -2.439  0.00  0.00    -0.345 N 
ATOM     22  C   UNL d   1      25.277 -14.619  -3.358  0.00  0.00     0.240 C 
ATOM     23  O   UNL d   1      24.404 -14.450  -4.214  0.00  0.00    -0.271 OA
ATOM     24  H   UNL d   1      24.206 -16.134  -2.602  0.00  0.00     0.163 HD
BRANCH  22  25
ATOM     25  C   UNL d   1      26.552 -13.702  -3.323  0.00  0.00     0.174 C 
ATOM     26  C   UNL d   1      26.512 -12.599  -4.404  0.00  0.00     0.042 C 
BRANCH  25  27
ATOM     27  N   UNL d   1      27.836 -14.394  -3.525  0.00  0.00    -0.324 N 
ATOM     28  C   UNL d   1      27.984 -15.247  -4.611  0.00  0.00     0.361 C 
ATOM     29  O   UNL d   1      27.207 -15.316  -5.539  0.00  0.00    -0.238 OA
ATOM     30  H   UNL d   1      28.521 -14.390  -2.781  0.00  0.00     0.165 HD
BRANCH  28  31
ATOM     31  O   UNL d   1      29.073 -16.052  -4.490  0.00  0.00    -0.299 OA
BRANCH  31  32
ATOM     32  C   UNL d   1      29.948 -15.951  -5.637  0.00  0.00     0.219 C 
BRANCH  32  33
ATOM     33  C   UNL d   1      30.399 -17.337  -6.023  0.00  0.00    -0.034 A 
ATOM     34  C   UNL d   1      30.892 -17.651  -7.297  0.00  0.00     0.009 A 
ATOM     35  C   UNL d   1      31.188 -18.979  -7.624  0.00  0.00     0.001 A 
ATOM     36  C   UNL d   1      31.079 -19.980  -6.660  0.00  0.00     0.000 A 
ATOM     37  C   UNL d   1      30.632 -19.667  -5.379  0.00  0.00     0.001 A 
ATOM     38  C   UNL d   1      30.287 -18.355  -5.067  0.00  0.00     0.009 A 
ENDBRANCH  32  33
ENDBRANCH  31  32
ENDBRANCH  28  31
ENDBRANCH  25  27
ENDBRANCH  22  25
ENDBRANCH   1  21
TORSDOF 14
ENDMDL
MODEL 7
REMARK VINA RESULT:    -7.887      2.582      8.109
REMARK INTER + INTRA:         -16.176
REMARK INTER:                 -12.063
REMARK INTRA:                  -4.113
REMARK CONF_INDEPENDENT:        4.176
REMARK UNBOUND:                -4.113
REMARK  14 active torsions:
REMARK  status: ('A' for Active; 'I' for Inactive)
REMARK    1  A    between atoms: C_2  and  C_14 
REMARK    2  A    between atoms: C_2  and  N_3 
REMARK       I    between atoms: N_3  and  C_4 
REMARK    3  A    between atoms: C_4  and  O_6 
REMARK    4  A    between atoms: O_6  and  C_7 
REMARK    5  A    between atoms: C_7  and  C_8 
REMARK       I    between atoms: C_14  and  N_16 
REMARK    6  A    between atoms: C_17  and  N_16 
REMARK    7  A    between atoms: C_17  and  C_27 
REMARK    8  A    between atoms: C_17  and  C_18 
REMARK    9  A    between atoms: C_18  and  S_19 
REMARK   10  A    between atoms: S_19  and  C_20 
REMARK   11  A    between atoms: C_20  and  C_21 
REMARK   12  A    between atoms: C_27  and  O_29 
REMARK   13  A    between atoms: O_29  and  C_30 
REMARK   14  A    between atoms: C_30  and  C_31 
ROOT
ATOM      1  C   UNL d   1      28.747 -15.786   0.365  0.00  0.00     0.193 C 
ENDROOT
BRANCH   1   2
ATOM      2  C   UNL d   1      28.645 -17.109  -0.385  0.00  0.00     0.282 C 
ATOM      3  O   UNL d   1      29.577 -17.893  -0.533  0.00  0.00    -0.263 OA
BRANCH   2   4
ATOM      4  O   UNL d   1      27.415 -17.310  -0.904  0.00  0.00    -0.315 OA
BRANCH   4   5
ATOM      5  C   UNL d   1      26.619 -18.103  -0.017  0.00  0.00     0.217 C 
BRANCH   5   6
ATOM      6  C   UNL d   1      25.198 -17.808  -0.374  0.00  0.00    -0.034 A 
ATOM      7  C   UNL d   1      24.878 -16.688  -1.148  0.00  0.00     0.009 A 
ATOM      8  C   UNL d   1      23.550 -16.287  -1.266  0.00  0.00     0.001 A 
ATOM      9  C   UNL d   1      22.537 -17.052  -0.688  0.00  0.00     0.000 A 
ATOM     10  C   UNL d   1      22.849 -18.200   0.036  0.00  0.00     0.001 A 
ATOM     11  C   UNL d   1      24.177 -18.575   0.201  0.00  0.00     0.009 A 
ENDBRANCH   5   6
ENDBRANCH   4   5
ENDBRANCH   2   4
ENDBRANCH   1   2
BRANCH   1  12
ATOM     12  C   UNL d   1      29.808 -14.958  -0.321  0.00  0.00     0.109 C 
BRANCH  12  13
ATOM     13  S   UNL d   1      29.430 -13.659  -1.464  0.00  0.00    -0.162 SA
BRANCH  13  14
ATOM     14  C   UNL d   1      29.071 -14.670  -3.017  0.00  0.00     0.112 C 
BRANCH  14  15
ATOM     15  C   UNL d   1      27.604 -14.486  -3.335  0.00  0.00    -0.049 A 
ATOM     16  C   UNL d   1      26.852 -13.584  -2.561  0.00  0.00     0.008 A 
ATOM     17  C   UNL d   1      25.502 -13.388  -2.776  0.00  0.00     0.001 A 
ATOM     18  C   UNL d   1      24.876 -14.073  -3.804  0.00  0.00     0.000 A 
ATOM     19  C   UNL d   1      25.597 -14.979  -4.587  0.00  0.00     0.001 A 
ATOM     20  C   UNL d   1      26.959 -15.196  -4.353  0.00  0.00     0.008 A 
ENDBRANCH  14  15
ENDBRANCH  13  14
ENDBRANCH  12  13
ENDBRANCH   1  12
BRANCH   1  21
ATOM     21  N   UNL d   1      27.436 -15.070   0.418  0.00  0.00    -0.345 N 
ATOM     22  C   UNL d   1      26.989 -14.023   1.203  0.00  0.00     0.240 C 
ATOM     23  O   UNL d   1      25.913 -13.503   0.894  0.00  0.00    -0.271 OA
ATOM     24  H   UNL d   1      26.799 -15.276  -0.349  0.00  0.00     0.163 HD
BRANCH  22  25
ATOM     25  C   UNL d   1      27.798 -13.511   2.448  0.00  0.00     0.174 C 
ATOM     26  C   UNL d   1      29.087 -12.762   2.043  0.00  0.00     0.042 C 
BRANCH  25  27
ATOM     27  N   UNL d   1      28.237 -14.554   3.391  0.00  0.00    -0.324 N 
ATOM     28  C   UNL d   1      27.866 -14.462   4.725  0.00  0.00     0.361 C 
ATOM     29  O   UNL d   1      27.026 -13.699   5.152  0.00  0.00    -0.238 OA
ATOM     30  H   UNL d   1      28.949 -15.212   3.102  0.00  0.00     0.165 HD
BRANCH  28  31
ATOM     31  O   UNL d   1      28.599 -15.285   5.523  0.00  0.00    -0.299 OA
BRANCH  31  32
ATOM     32  C   UNL d   1      29.789 -14.632   6.022  0.00  0.00     0.219 C 
BRANCH  32  33
ATOM     33  C   UNL d   1      29.390 -13.674   7.115  0.00  0.00    -0.034 A 
ATOM     34  C   UNL d   1      29.074 -14.091   8.416  0.00  0.00     0.009 A 
ATOM     35  C   UNL d   1      28.603 -13.164   9.352  0.00  0.00     0.001 A 
ATOM     36  C   UNL d   1      28.530 -11.810   9.024  0.00  0.00     0.000 A 
ATOM     37  C   UNL d   1      28.886 -11.384   7.747  0.00  0.00     0.001 A 
ATOM     38  C   UNL d   1      29.305 -12.312   6.798  0.00  0.00     0.009 A 
ENDBRANCH  32  33
ENDBRANCH  31  32
ENDBRANCH  28  31
ENDBRANCH  25  27
ENDBRANCH  22  25
ENDBRANCH   1  21
TORSDOF 14
ENDMDL
MODEL 8
REMARK VINA RESULT:    -7.697      4.137      8.722
REMARK INTER + INTRA:         -15.893
REMARK INTER:                 -11.873
REMARK INTRA:                  -4.020
REMARK CONF_INDEPENDENT:        4.176
REMARK UNBOUND:                -4.020
REMARK  14 active torsions:
REMARK  status: ('A' for Active; 'I' for Inactive)
REMARK    1  A    between atoms: C_2  and  C_14 
REMARK    2  A    between atoms: C_2  and  N_3 
REMARK       I    between atoms: N_3  and  C_4 
REMARK    3  A    between atoms: C_4  and  O_6 
REMARK    4  A    between atoms: O_6  and  C_7 
REMARK    5  A    between atoms: C_7  and  C_8 
REMARK       I    between atoms: C_14  and  N_16 
REMARK    6  A    between atoms: C_17  and  N_16 
REMARK    7  A    between atoms: C_17  and  C_27 
REMARK    8  A    between atoms: C_17  and  C_18 
REMARK    9  A    between atoms: C_18  and  S_19 
REMARK   10  A    between atoms: S_19  and  C_20 
REMARK   11  A    between atoms: C_20  and  C_21 
REMARK   12  A    between atoms: C_27  and  O_29 
REMARK   13  A    between atoms: O_29  and  C_30 
REMARK   14  A    between atoms: C_30  and  C_31 
ROOT
ATOM      1  C   UNL d   1      25.698 -13.009  -3.430  0.00  0.00     0.193 C 
ENDROOT
BRANCH   1   2
ATOM      2  C   UNL d   1      25.230 -14.404  -3.832  0.00  0.00     0.282 C 
ATOM      3  O   UNL d   1      25.446 -14.917  -4.925  0.00  0.00    -0.263 OA
BRANCH   2   4
ATOM      4  O   UNL d   1      24.517 -15.005  -2.856  0.00  0.00    -0.315 OA
BRANCH   4   5
ATOM      5  C   UNL d   1      25.357 -15.859  -2.072  0.00  0.00     0.217 C 
BRANCH   5   6
ATOM      6  C   UNL d   1      24.431 -16.727  -1.283  0.00  0.00    -0.034 A 
ATOM      7  C   UNL d   1      24.825 -18.007  -0.883  0.00  0.00     0.009 A 
ATOM      8  C   UNL d   1      23.879 -18.892  -0.371  0.00  0.00     0.001 A 
ATOM      9  C   UNL d   1      22.564 -18.470  -0.173  0.00  0.00     0.000 A 
ATOM     10  C   UNL d   1      22.183 -17.175  -0.518  0.00  0.00     0.001 A 
ATOM     11  C   UNL d   1      23.111 -16.306  -1.079  0.00  0.00     0.009 A 
ENDBRANCH   5   6
ENDBRANCH   4   5
ENDBRANCH   2   4
ENDBRANCH   1   2
BRANCH   1  12
ATOM     12  C   UNL d   1      27.099 -13.142  -2.882  0.00  0.00     0.109 C 
BRANCH  12  13
ATOM     13  S   UNL d   1      27.718 -12.138  -1.562  0.00  0.00    -0.162 SA
BRANCH  13  14
ATOM     14  C   UNL d   1      29.263 -13.115  -1.091  0.00  0.00     0.112 C 
BRANCH  14  15
ATOM     15  C   UNL d   1      28.839 -14.555  -0.915  0.00  0.00    -0.049 A 
ATOM     16  C   UNL d   1      27.992 -14.885   0.158  0.00  0.00     0.008 A 
ATOM     17  C   UNL d   1      27.589 -16.185   0.396  0.00  0.00     0.001 A 
ATOM     18  C   UNL d   1      28.003 -17.188  -0.463  0.00  0.00     0.000 A 
ATOM     19  C   UNL d   1      28.849 -16.891  -1.536  0.00  0.00     0.001 A 
ATOM     20  C   UNL d   1      29.277 -15.578  -1.763  0.00  0.00     0.008 A 
ENDBRANCH  14  15
ENDBRANCH  13  14
ENDBRANCH  12  13
ENDBRANCH   1  12
BRANCH   1  21
ATOM     21  N   UNL d   1      25.639 -12.048  -4.573  0.00  0.00    -0.345 N 
ATOM     22  C   UNL d   1      26.475 -11.856  -5.657  0.00  0.00     0.240 C 
ATOM     23  O   UNL d   1      26.072 -11.110  -6.557  0.00  0.00    -0.271 OA
ATOM     24  H   UNL d   1      24.762 -11.539  -4.666  0.00  0.00     0.163 HD
BRANCH  22  25
ATOM     25  C   UNL d   1      27.885 -12.538  -5.755  0.00  0.00     0.174 C 
ATOM     26  C   UNL d   1      28.609 -12.205  -7.078  0.00  0.00     0.042 C 
BRANCH  25  27
ATOM     27  N   UNL d   1      27.884 -14.009  -5.675  0.00  0.00    -0.324 N 
ATOM     28  C   UNL d   1      28.997 -14.662  -5.161  0.00  0.00     0.361 C 
ATOM     29  O   UNL d   1      29.902 -14.112  -4.571  0.00  0.00    -0.238 OA
ATOM     30  H   UNL d   1      27.166 -14.529  -6.160  0.00  0.00     0.165 HD
BRANCH  28  31
ATOM     31  O   UNL d   1      28.994 -15.991  -5.450  0.00  0.00    -0.299 OA
BRANCH  31  32
ATOM     32  C   UNL d   1      30.035 -16.340  -6.391  0.00  0.00     0.219 C 
BRANCH  32  33
ATOM     33  C   UNL d   1      30.421 -17.781  -6.172  0.00  0.00    -0.034 A 
ATOM     34  C   UNL d   1      30.776 -18.642  -7.219  0.00  0.00     0.009 A 
ATOM     35  C   UNL d   1      31.013 -19.997  -6.960  0.00  0.00     0.001 A 
ATOM     36  C   UNL d   1      30.985 -20.476  -5.650  0.00  0.00     0.000 A 
ATOM     37  C   UNL d   1      30.677 -19.614  -4.601  0.00  0.00     0.001 A 
ATOM     38  C   UNL d   1      30.389 -18.278  -4.863  0.00  0.00     0.009 A 
ENDBRANCH  32  33
ENDBRANCH  31  32
ENDBRANCH  28  31
ENDBRANCH  25  27
ENDBRANCH  22  25
ENDBRANCH   1  21
TORSDOF 14
ENDMDL
MODEL 9
REMARK VINA RESULT:    -7.087      2.950      7.755
REMARK INTER + INTRA:         -15.770
REMARK INTER:                 -11.263
REMARK INTRA:                  -4.508
REMARK CONF_INDEPENDENT:        4.176
REMARK UNBOUND:                -4.508
REMARK  14 active torsions:
REMARK  status: ('A' for Active; 'I' for Inactive)
REMARK    1  A    between atoms: C_2  and  C_14 
REMARK    2  A    between atoms: C_2  and  N_3 
REMARK       I    between atoms: N_3  and  C_4 
REMARK    3  A    between atoms: C_4  and  O_6 
REMARK    4  A    between atoms: O_6  and  C_7 
REMARK    5  A    between atoms: C_7  and  C_8 
REMARK       I    between atoms: C_14  and  N_16 
REMARK    6  A    between atoms: C_17  and  N_16 
REMARK    7  A    between atoms: C_17  and  C_27 
REMARK    8  A    between atoms: C_17  and  C_18 
REMARK    9  A    between atoms: C_18  and  S_19 
REMARK   10  A    between atoms: S_19  and  C_20 
REMARK   11  A    between atoms: C_20  and  C_21 
REMARK   12  A    between atoms: C_27  and  O_29 
REMARK   13  A    between atoms: O_29  and  C_30 
REMARK   14  A    between atoms: C_30  and  C_31 
ROOT
ATOM      1  C   UNL d   1      29.316 -15.976  -1.638  0.00  0.00     0.193 C 
ENDROOT
BRANCH   1   2
ATOM      2  C   UNL d   1      28.348 -16.970  -1.003  0.00  0.00     0.282 C 
ATOM      3  O   UNL d   1      28.685 -18.035  -0.498  0.00  0.00    -0.263 OA
BRANCH   2   4
ATOM      4  O   UNL d   1      27.065 -16.560  -1.090  0.00  0.00    -0.315 OA
BRANCH   4   5
ATOM      5  C   UNL d   1      26.356 -16.867   0.116  0.00  0.00     0.217 C 
BRANCH   5   6
ATOM      6  C   UNL d   1      24.981 -17.265  -0.312  0.00  0.00    -0.034 A 
ATOM      7  C   UNL d   1      24.061 -16.299  -0.734  0.00  0.00     0.009 A 
ATOM      8  C   UNL d   1      22.721 -16.644  -0.891  0.00  0.00     0.001 A 
ATOM      9  C   UNL d   1      22.317 -17.968  -0.717  0.00  0.00     0.000 A 
ATOM     10  C   UNL d   1      23.243 -18.943  -0.352  0.00  0.00     0.001 A 
ATOM     11  C   UNL d   1      24.571 -18.592  -0.142  0.00  0.00     0.009 A 
ENDBRANCH   5   6
ENDBRANCH   4   5
ENDBRANCH   2   4
ENDBRANCH   1   2
BRANCH   1  12
ATOM     12  C   UNL d   1      30.297 -15.556  -0.570  0.00  0.00     0.109 C 
BRANCH  12  13
ATOM     13  S   UNL d   1      30.165 -14.027   0.315  0.00  0.00    -0.162 SA
BRANCH  13  14
ATOM     14  C   UNL d   1      30.824 -14.556   2.003  0.00  0.00     0.112 C 
BRANCH  14  15
ATOM     15  C   UNL d   1      29.711 -14.336   3.002  0.00  0.00    -0.049 A 
ATOM     16  C   UNL d   1      28.441 -13.960   2.527  0.00  0.00     0.008 A 
ATOM     17  C   UNL d   1      27.386 -13.713   3.384  0.00  0.00     0.001 A 
ATOM     18  C   UNL d   1      27.573 -13.870   4.747  0.00  0.00     0.000 A 
ATOM     19  C   UNL d   1      28.824 -14.238   5.248  0.00  0.00     0.001 A 
ATOM     20  C   UNL d   1      29.900 -14.464   4.382  0.00  0.00     0.008 A 
ENDBRANCH  14  15
ENDBRANCH  13  14
ENDBRANCH  12  13
ENDBRANCH   1  12
BRANCH   1  21
ATOM     21  N   UNL d   1      30.009 -16.553  -2.829  0.00  0.00    -0.345 N 
ATOM     22  C   UNL d   1      29.845 -16.336  -4.185  0.00  0.00     0.240 C 
ATOM     23  O   UNL d   1      30.697 -16.812  -4.942  0.00  0.00    -0.271 OA
ATOM     24  H   UNL d   1      30.850 -17.089  -2.624  0.00  0.00     0.163 HD
BRANCH  22  25
ATOM     25  C   UNL d   1      28.625 -15.529  -4.758  0.00  0.00     0.174 C 
ATOM     26  C   UNL d   1      28.943 -14.027  -4.929  0.00  0.00     0.042 C 
BRANCH  25  27
ATOM     27  N   UNL d   1      27.398 -15.574  -3.945  0.00  0.00    -0.324 N 
ATOM     28  C   UNL d   1      26.164 -15.480  -4.574  0.00  0.00     0.361 C 
ATOM     29  O   UNL d   1      25.995 -15.575  -5.771  0.00  0.00    -0.238 OA
ATOM     30  H   UNL d   1      27.468 -15.483  -2.940  0.00  0.00     0.165 HD
BRANCH  28  31
ATOM     31  O   UNL d   1      25.158 -15.205  -3.700  0.00  0.00    -0.299 OA
BRANCH  31  32
ATOM     32  C   UNL d   1      24.884 -13.787  -3.623  0.00  0.00     0.219 C 
BRANCH  32  33
ATOM     33  C   UNL d   1      25.854 -13.160  -2.654  0.00  0.00    -0.034 A 
ATOM     34  C   UNL d   1      26.279 -13.799  -1.481  0.00  0.00     0.009 A 
ATOM     35  C   UNL d   1      27.092 -13.117  -0.568  0.00  0.00     0.001 A 
ATOM     36  C   UNL d   1      27.554 -11.835  -0.863  0.00  0.00     0.000 A 
ATOM     37  C   UNL d   1      27.172 -11.213  -2.048  0.00  0.00     0.001 A 
ATOM     38  C   UNL d   1      26.320 -11.869  -2.932  0.00  0.00     0.009 A 
ENDBRANCH  32  33
ENDBRANCH  31  32
ENDBRANCH  28  31
ENDBRANCH  25  27
ENDBRANCH  22  25
ENDBRANCH   1  21
TORSDOF 14
ENDMDL
