MODEL 1
REMARK VINA RESULT:    -7.722      0.000      0.000
REMARK INTER + INTRA:         -10.611
REMARK INTER:                  -8.915
REMARK INTRA:                  -1.696
REMARK CONF_INDEPENDENT:        1.193
REMARK UNBOUND:                -1.696
REMARK  4 active torsions:
REMARK  status: ('A' for Active; 'I' for Inactive)
REMARK    1  A    between atoms: C_5  and  C_6 
REMARK       I    between atoms: C_6  and  N_8 
REMARK    2  A    between atoms: N_8  and  N_9 
REMARK       I    between atoms: N_9  and  C_10 
REMARK    3  A    between atoms: C_10  and  C_12 
REMARK    4  A    between atoms: C_18  and  O_19 
ROOT
ATOM      1  C   UNL d   1      21.965 -18.252  -0.290  0.00  0.00     0.272 C 
ATOM      2  O   UNL d   1      21.679 -17.287  -1.004  0.00  0.00    -0.266 OA
ATOM      3  N   UNL d   1      23.284 -18.558   0.039  0.00  0.00    -0.263 N 
ATOM      4  H   UNL d   1      23.572 -19.340   0.622  0.00  0.00     0.190 HD
ENDROOT
BRANCH   3   5
ATOM      5  N   UNL d   1      24.350 -17.732  -0.421  0.00  0.00    -0.263 N 
ATOM      6  C   UNL d   1      25.596 -17.807   0.202  0.00  0.00     0.277 C 
ATOM      7  O   UNL d   1      25.771 -18.575   1.157  0.00  0.00    -0.265 OA
ATOM      8  H   UNL d   1      24.183 -17.197  -1.271  0.00  0.00     0.190 HD
BRANCH   6   9
ATOM      9  C   UNL d   1      26.632 -16.922  -0.324  0.00  0.00     0.075 A 
ATOM     10  C   UNL d   1      27.978 -16.856   0.006  0.00  0.00     0.027 A 
ATOM     11  C   UNL d   1      28.700 -15.910  -0.788  0.00  0.00     0.033 A 
ATOM     12  C   UNL d   1      27.867 -15.255  -1.656  0.00  0.00     0.075 A 
ATOM     13 CL   UNL d   1      28.321 -14.007  -2.749  0.00  0.00    -0.076 Cl
ATOM     14  S   UNL d   1      26.264 -15.803  -1.585  0.00  0.00    -0.072 SA
ENDBRANCH   6   9
ENDBRANCH   3   5
BRANCH   1  15
ATOM     15  C   UNL d   1      20.853 -19.123   0.248  0.00  0.00     0.066 A 
ATOM     16  C   UNL d   1      20.655 -19.316   1.624  0.00  0.00     0.020 A 
ATOM     17  C   UNL d   1      19.600 -20.116   2.106  0.00  0.00     0.008 A 
ATOM     18  C   UNL d   1      18.709 -20.735   1.226  0.00  0.00    -0.059 A 
ATOM     19  C   UNL d   1      17.562 -21.575   1.713  0.00  0.00     0.048 C 
ATOM     20  C   UNL d   1      18.901 -20.559  -0.146  0.00  0.00     0.044 A 
ATOM     21  C   UNL d   1      19.958 -19.772  -0.628  0.00  0.00     0.082 A 
BRANCH  21  22
ATOM     22  O   UNL d   1      20.036 -19.700  -1.996  0.00  0.00    -0.360 OA
ATOM     23  H   UNL d   1      20.534 -18.890  -2.235  0.00  0.00     0.217 HD
ENDBRANCH  21  22
ENDBRANCH   1  15
TORSDOF 4
ENDMDL
MODEL 2
REMARK VINA RESULT:    -7.546      3.723      8.353
REMARK INTER + INTRA:          -9.814
REMARK INTER:                  -8.740
REMARK INTRA:                  -1.074
REMARK CONF_INDEPENDENT:        1.193
REMARK UNBOUND:                -1.074
REMARK  4 active torsions:
REMARK  status: ('A' for Active; 'I' for Inactive)
REMARK    1  A    between atoms: C_5  and  C_6 
REMARK       I    between atoms: C_6  and  N_8 
REMARK    2  A    between atoms: N_8  and  N_9 
REMARK       I    between atoms: N_9  and  C_10 
REMARK    3  A    between atoms: C_10  and  C_12 
REMARK    4  A    between atoms: C_18  and  O_19 
ROOT
ATOM      1  C   UNL d   1      24.842 -17.583  -0.956  0.00  0.00     0.272 C 
ATOM      2  O   UNL d   1      24.139 -17.469  -1.963  0.00  0.00    -0.266 OA
ATOM      3  N   UNL d   1      24.421 -18.309   0.156  0.00  0.00    -0.263 N 
ATOM      4  H   UNL d   1      24.961 -18.433   1.009  0.00  0.00     0.190 HD
ENDROOT
BRANCH   3   5
ATOM      5  N   UNL d   1      23.161 -18.976   0.144  0.00  0.00    -0.263 N 
ATOM      6  C   UNL d   1      22.006 -18.257  -0.164  0.00  0.00     0.277 C 
ATOM      7  O   UNL d   1      22.072 -17.045  -0.410  0.00  0.00    -0.265 OA
ATOM      8  H   UNL d   1      23.176 -19.988   0.251  0.00  0.00     0.190 HD
BRANCH   6   9
ATOM      9  C   UNL d   1      20.755 -19.011  -0.147  0.00  0.00     0.075 A 
ATOM     10  C   UNL d   1      19.832 -19.200  -1.165  0.00  0.00     0.027 A 
ATOM     11  C   UNL d   1      18.764 -20.077  -0.793  0.00  0.00     0.033 A 
ATOM     12  C   UNL d   1      18.888 -20.480   0.510  0.00  0.00     0.075 A 
ATOM     13 CL   UNL d   1      17.791 -21.493   1.365  0.00  0.00    -0.076 Cl
ATOM     14  S   UNL d   1      20.287 -19.889   1.263  0.00  0.00    -0.072 SA
ENDBRANCH   6   9
ENDBRANCH   3   5
BRANCH   1  15
ATOM     15  C   UNL d   1      26.201 -16.923  -0.930  0.00  0.00     0.066 A 
ATOM     16  C   UNL d   1      26.482 -15.760  -1.665  0.00  0.00     0.020 A 
ATOM     17  C   UNL d   1      27.749 -15.148  -1.611  0.00  0.00     0.008 A 
ATOM     18  C   UNL d   1      28.767 -15.676  -0.813  0.00  0.00    -0.059 A 
ATOM     19  C   UNL d   1      30.121 -15.032  -0.719  0.00  0.00     0.048 C 
ATOM     20  C   UNL d   1      28.505 -16.838  -0.084  0.00  0.00     0.044 A 
ATOM     21  C   UNL d   1      27.246 -17.455  -0.146  0.00  0.00     0.082 A 
BRANCH  21  22
ATOM     22  O   UNL d   1      27.135 -18.596   0.608  0.00  0.00    -0.360 OA
ATOM     23  H   UNL d   1      28.004 -18.776   1.025  0.00  0.00     0.217 HD
ENDBRANCH  21  22
ENDBRANCH   1  15
TORSDOF 4
ENDMDL
MODEL 3
REMARK VINA RESULT:    -7.320      3.736      8.394
REMARK INTER + INTRA:         -10.282
REMARK INTER:                  -8.513
REMARK INTRA:                  -1.769
REMARK CONF_INDEPENDENT:        1.193
REMARK UNBOUND:                -1.769
REMARK  4 active torsions:
REMARK  status: ('A' for Active; 'I' for Inactive)
REMARK    1  A    between atoms: C_5  and  C_6 
REMARK       I    between atoms: C_6  and  N_8 
REMARK    2  A    between atoms: N_8  and  N_9 
REMARK       I    between atoms: N_9  and  C_10 
REMARK    3  A    between atoms: C_10  and  C_12 
REMARK    4  A    between atoms: C_18  and  O_19 
ROOT
ATOM      1  C   UNL d   1      25.447 -17.782  -0.194  0.00  0.00     0.272 C 
ATOM      2  O   UNL d   1      25.773 -18.379   0.835  0.00  0.00    -0.266 OA
ATOM      3  N   UNL d   1      24.154 -17.857  -0.710  0.00  0.00    -0.263 N 
ATOM      4  H   UNL d   1      23.835 -17.386  -1.553  0.00  0.00     0.190 HD
ENDROOT
BRANCH   3   5
ATOM      5  N   UNL d   1      23.153 -18.611  -0.031  0.00  0.00    -0.263 N 
ATOM      6  C   UNL d   1      21.811 -18.433  -0.370  0.00  0.00     0.277 C 
ATOM      7  O   UNL d   1      21.491 -17.616  -1.243  0.00  0.00    -0.265 OA
ATOM      8  H   UNL d   1      23.476 -19.340   0.601  0.00  0.00     0.190 HD
BRANCH   6   9
ATOM      9  C   UNL d   1      20.847 -19.237   0.377  0.00  0.00     0.075 A 
ATOM     10  C   UNL d   1      20.657 -19.326   1.748  0.00  0.00     0.027 A 
ATOM     11  C   UNL d   1      19.552 -20.162   2.104  0.00  0.00     0.033 A 
ATOM     12  C   UNL d   1      18.975 -20.718   0.992  0.00  0.00     0.075 A 
ATOM     13 CL   UNL d   1      17.655 -21.821   0.980  0.00  0.00    -0.076 Cl
ATOM     14  S   UNL d   1      19.686 -20.202  -0.458  0.00  0.00    -0.072 SA
ENDBRANCH   6   9
ENDBRANCH   3   5
BRANCH   1  15
ATOM     15  C   UNL d   1      26.476 -16.941  -0.913  0.00  0.00     0.066 A 
ATOM     16  C   UNL d   1      27.851 -17.065  -0.661  0.00  0.00     0.020 A 
ATOM     17  C   UNL d   1      28.796 -16.286  -1.356  0.00  0.00     0.008 A 
ATOM     18  C   UNL d   1      28.393 -15.368  -2.329  0.00  0.00    -0.059 A 
ATOM     19  C   UNL d   1      29.380 -14.540  -3.102  0.00  0.00     0.048 C 
ATOM     20  C   UNL d   1      27.027 -15.227  -2.583  0.00  0.00     0.044 A 
ATOM     21  C   UNL d   1      26.083 -15.995  -1.883  0.00  0.00     0.082 A 
BRANCH  21  22
ATOM     22  O   UNL d   1      24.779 -15.741  -2.223  0.00  0.00    -0.360 OA
ATOM     23  H   UNL d   1      24.734 -14.852  -2.632  0.00  0.00     0.217 HD
ENDBRANCH  21  22
ENDBRANCH   1  15
TORSDOF 4
ENDMDL
MODEL 4
REMARK VINA RESULT:    -6.350      6.736     10.332
REMARK INTER + INTRA:          -9.304
REMARK INTER:                  -7.544
REMARK INTRA:                  -1.760
REMARK CONF_INDEPENDENT:        1.193
REMARK UNBOUND:                -1.760
REMARK  4 active torsions:
REMARK  status: ('A' for Active; 'I' for Inactive)
REMARK    1  A    between atoms: C_5  and  C_6 
REMARK       I    between atoms: C_6  and  N_8 
REMARK    2  A    between atoms: N_8  and  N_9 
REMARK       I    between atoms: N_9  and  C_10 
REMARK    3  A    between atoms: C_10  and  C_12 
REMARK    4  A    between atoms: C_18  and  O_19 
ROOT
ATOM      1  C   UNL d   1      25.802 -10.563  -3.433  0.00  0.00     0.272 C 
ATOM      2  O   UNL d   1      26.452 -10.408  -2.396  0.00  0.00    -0.266 OA
ATOM      3  N   UNL d   1      25.317 -11.812  -3.817  0.00  0.00    -0.263 N 
ATOM      4  H   UNL d   1      24.778 -11.993  -4.660  0.00  0.00     0.190 HD
ENDROOT
BRANCH   3   5
ATOM      5  N   UNL d   1      25.534 -12.952  -2.990  0.00  0.00    -0.263 N 
ATOM      6  C   UNL d   1      25.237 -14.224  -3.481  0.00  0.00     0.277 C 
ATOM      7  O   UNL d   1      24.774 -14.360  -4.621  0.00  0.00    -0.265 OA
ATOM      8  H   UNL d   1      26.012 -12.794  -2.105  0.00  0.00     0.190 HD
BRANCH   6   9
ATOM      9  C   UNL d   1      25.481 -15.339  -2.569  0.00  0.00     0.075 A 
ATOM     10  C   UNL d   1      26.677 -15.968  -2.255  0.00  0.00     0.027 A 
ATOM     11  C   UNL d   1      26.529 -16.974  -1.248  0.00  0.00     0.033 A 
ATOM     12  C   UNL d   1      25.218 -17.107  -0.871  0.00  0.00     0.075 A 
ATOM     13 CL   UNL d   1      24.603 -18.234   0.272  0.00  0.00    -0.076 Cl
ATOM     14  S   UNL d   1      24.186 -16.007  -1.645  0.00  0.00    -0.072 SA
ENDBRANCH   6   9
ENDBRANCH   3   5
BRANCH   1  15
ATOM     15  C   UNL d   1      25.519  -9.365  -4.309  0.00  0.00     0.066 A 
ATOM     16  C   UNL d   1      25.520  -8.054  -3.806  0.00  0.00     0.020 A 
ATOM     17  C   UNL d   1      25.273  -6.949  -4.643  0.00  0.00     0.008 A 
ATOM     18  C   UNL d   1      25.030  -7.122  -6.008  0.00  0.00    -0.059 A 
ATOM     19  C   UNL d   1      24.786  -5.961  -6.928  0.00  0.00     0.048 C 
ATOM     20  C   UNL d   1      25.016  -8.422  -6.520  0.00  0.00     0.044 A 
ATOM     21  C   UNL d   1      25.250  -9.525  -5.685  0.00  0.00     0.082 A 
BRANCH  21  22
ATOM     22  O   UNL d   1      25.191 -10.741  -6.318  0.00  0.00    -0.360 OA
ATOM     23  H   UNL d   1      24.477 -11.270  -5.904  0.00  0.00     0.217 HD
ENDBRANCH  21  22
ENDBRANCH   1  15
TORSDOF 4
ENDMDL
MODEL 5
REMARK VINA RESULT:    -6.125      4.947      9.512
REMARK INTER + INTRA:          -9.154
REMARK INTER:                  -7.318
REMARK INTRA:                  -1.836
REMARK CONF_INDEPENDENT:        1.193
REMARK UNBOUND:                -1.836
REMARK  4 active torsions:
REMARK  status: ('A' for Active; 'I' for Inactive)
REMARK    1  A    between atoms: C_5  and  C_6 
REMARK       I    between atoms: C_6  and  N_8 
REMARK    2  A    between atoms: N_8  and  N_9 
REMARK       I    between atoms: N_9  and  C_10 
REMARK    3  A    between atoms: C_10  and  C_12 
REMARK    4  A    between atoms: C_18  and  O_19 
ROOT
ATOM      1  C   UNL d   1      26.263 -14.898  -4.619  0.00  0.00     0.272 C 
ATOM      2  O   UNL d   1      25.852 -15.730  -5.431  0.00  0.00    -0.266 OA
ATOM      3  N   UNL d   1      25.942 -14.969  -3.265  0.00  0.00    -0.263 N 
ATOM      4  H   UNL d   1      26.255 -14.309  -2.557  0.00  0.00     0.190 HD
ENDROOT
BRANCH   3   5
ATOM      5  N   UNL d   1      25.145 -16.042  -2.771  0.00  0.00    -0.263 N 
ATOM      6  C   UNL d   1      24.815 -16.087  -1.416  0.00  0.00     0.277 C 
ATOM      7  O   UNL d   1      25.224 -15.208  -0.645  0.00  0.00    -0.265 OA
ATOM      8  H   UNL d   1      24.752 -16.677  -3.462  0.00  0.00     0.190 HD
BRANCH   6   9
ATOM      9  C   UNL d   1      24.003 -17.223  -0.989  0.00  0.00     0.075 A 
ATOM     10  C   UNL d   1      24.409 -18.480  -0.567  0.00  0.00     0.027 A 
ATOM     11  C   UNL d   1      23.318 -19.306  -0.147  0.00  0.00     0.033 A 
ATOM     12  C   UNL d   1      22.120 -18.663  -0.313  0.00  0.00     0.075 A 
ATOM     13 CL   UNL d   1      20.565 -19.318   0.020  0.00  0.00    -0.076 Cl
ATOM     14  S   UNL d   1      22.287 -17.078  -0.891  0.00  0.00    -0.072 SA
ENDBRANCH   6   9
ENDBRANCH   3   5
BRANCH   1  15
ATOM     15  C   UNL d   1      27.145 -13.771  -5.106  0.00  0.00     0.066 A 
ATOM     16  C   UNL d   1      26.935 -12.437  -4.719  0.00  0.00     0.020 A 
ATOM     17  C   UNL d   1      27.781 -11.404  -5.168  0.00  0.00     0.008 A 
ATOM     18  C   UNL d   1      28.865 -11.676  -6.006  0.00  0.00    -0.059 A 
ATOM     19  C   UNL d   1      29.796 -10.598  -6.482  0.00  0.00     0.048 C 
ATOM     20  C   UNL d   1      29.079 -12.997  -6.406  0.00  0.00     0.044 A 
ATOM     21  C   UNL d   1      28.231 -14.026  -5.970  0.00  0.00     0.082 A 
BRANCH  21  22
ATOM     22  O   UNL d   1      28.549 -15.270  -6.453  0.00  0.00    -0.360 OA
ATOM     23  H   UNL d   1      27.758 -15.843  -6.376  0.00  0.00     0.217 HD
ENDBRANCH  21  22
ENDBRANCH   1  15
TORSDOF 4
ENDMDL
MODEL 6
REMARK VINA RESULT:    -6.087      4.790      9.285
REMARK INTER + INTRA:          -9.196
REMARK INTER:                  -7.280
REMARK INTRA:                  -1.915
REMARK CONF_INDEPENDENT:        1.193
REMARK UNBOUND:                -1.915
REMARK  4 active torsions:
REMARK  status: ('A' for Active; 'I' for Inactive)
REMARK    1  A    between atoms: C_5  and  C_6 
REMARK       I    between atoms: C_6  and  N_8 
REMARK    2  A    between atoms: N_8  and  N_9 
REMARK       I    between atoms: N_9  and  C_10 
REMARK    3  A    between atoms: C_10  and  C_12 
REMARK    4  A    between atoms: C_18  and  O_19 
ROOT
ATOM      1  C   UNL d   1      25.319 -13.663  -3.556  0.00  0.00     0.272 C 
ATOM      2  O   UNL d   1      24.483 -13.935  -4.421  0.00  0.00    -0.266 OA
ATOM      3  N   UNL d   1      25.396 -14.371  -2.359  0.00  0.00    -0.263 N 
ATOM      4  H   UNL d   1      26.065 -14.187  -1.615  0.00  0.00     0.190 HD
ENDROOT
BRANCH   3   5
ATOM      5  N   UNL d   1      24.518 -15.467  -2.114  0.00  0.00    -0.263 N 
ATOM      6  C   UNL d   1      24.646 -16.201  -0.935  0.00  0.00     0.277 C 
ATOM      7  O   UNL d   1      25.525 -15.913  -0.113  0.00  0.00    -0.265 OA
ATOM      8  H   UNL d   1      23.750 -15.595  -2.770  0.00  0.00     0.190 HD
BRANCH   6   9
ATOM      9  C   UNL d   1      23.713 -17.311  -0.764  0.00  0.00     0.075 A 
ATOM     10  C   UNL d   1      23.976 -18.635  -0.444  0.00  0.00     0.027 A 
ATOM     11  C   UNL d   1      22.788 -19.416  -0.281  0.00  0.00     0.033 A 
ATOM     12  C   UNL d   1      21.668 -18.669  -0.534  0.00  0.00     0.075 A 
ATOM     13 CL   UNL d   1      20.044 -19.236  -0.500  0.00  0.00    -0.076 Cl
ATOM     14  S   UNL d   1      22.012 -17.047  -0.888  0.00  0.00    -0.072 SA
ENDBRANCH   6   9
ENDBRANCH   3   5
BRANCH   1  15
ATOM     15  C   UNL d   1      26.292 -12.533  -3.804  0.00  0.00     0.066 A 
ATOM     16  C   UNL d   1      27.363 -12.266  -2.936  0.00  0.00     0.020 A 
ATOM     17  C   UNL d   1      28.271 -11.220  -3.196  0.00  0.00     0.008 A 
ATOM     18  C   UNL d   1      28.140 -10.422  -4.334  0.00  0.00    -0.059 A 
ATOM     19  C   UNL d   1      29.106  -9.315  -4.648  0.00  0.00     0.048 C 
ATOM     20  C   UNL d   1      27.073 -10.671  -5.201  0.00  0.00     0.044 A 
ATOM     21  C   UNL d   1      26.160 -11.704  -4.938  0.00  0.00     0.082 A 
BRANCH  21  22
ATOM     22  O   UNL d   1      25.155 -11.824  -5.863  0.00  0.00    -0.360 OA
ATOM     23  H   UNL d   1      24.639 -12.631  -5.655  0.00  0.00     0.217 HD
ENDBRANCH  21  22
ENDBRANCH   1  15
TORSDOF 4
ENDMDL
MODEL 7
REMARK VINA RESULT:    -5.952      5.440      8.878
REMARK INTER + INTRA:          -8.981
REMARK INTER:                  -7.145
REMARK INTRA:                  -1.835
REMARK CONF_INDEPENDENT:        1.193
REMARK UNBOUND:                -1.835
REMARK  4 active torsions:
REMARK  status: ('A' for Active; 'I' for Inactive)
REMARK    1  A    between atoms: C_5  and  C_6 
REMARK       I    between atoms: C_6  and  N_8 
REMARK    2  A    between atoms: N_8  and  N_9 
REMARK       I    between atoms: N_9  and  C_10 
REMARK    3  A    between atoms: C_10  and  C_12 
REMARK    4  A    between atoms: C_18  and  O_19 
ROOT
ATOM      1  C   UNL d   1      27.374 -13.311   3.198  0.00  0.00     0.272 C 
ATOM      2  O   UNL d   1      26.662 -12.409   2.749  0.00  0.00    -0.266 OA
ATOM      3  N   UNL d   1      27.635 -14.472   2.472  0.00  0.00    -0.263 N 
ATOM      4  H   UNL d   1      28.213 -15.243   2.796  0.00  0.00     0.190 HD
ENDROOT
BRANCH   3   5
ATOM      5  N   UNL d   1      27.106 -14.632   1.158  0.00  0.00    -0.263 N 
ATOM      6  C   UNL d   1      27.015 -15.909   0.605  0.00  0.00     0.277 C 
ATOM      7  O   UNL d   1      27.405 -16.895   1.243  0.00  0.00    -0.265 OA
ATOM      8  H   UNL d   1      26.706 -13.805   0.720  0.00  0.00     0.190 HD
BRANCH   6   9
ATOM      9  C   UNL d   1      26.469 -15.987  -0.748  0.00  0.00     0.075 A 
ATOM     10  C   UNL d   1      25.483 -16.824  -1.248  0.00  0.00     0.027 A 
ATOM     11  C   UNL d   1      25.155 -16.546  -2.612  0.00  0.00     0.033 A 
ATOM     12  C   UNL d   1      25.940 -15.542  -3.114  0.00  0.00     0.075 A 
ATOM     13 CL   UNL d   1      25.905 -14.937  -4.724  0.00  0.00    -0.076 Cl
ATOM     14  S   UNL d   1      27.002 -14.887  -1.966  0.00  0.00    -0.072 SA
ENDBRANCH   6   9
ENDBRANCH   3   5
BRANCH   1  15
ATOM     15  C   UNL d   1      27.984 -13.152   4.571  0.00  0.00     0.066 A 
ATOM     16  C   UNL d   1      28.186 -11.892   5.157  0.00  0.00     0.020 A 
ATOM     17  C   UNL d   1      28.738 -11.766   6.447  0.00  0.00     0.008 A 
ATOM     18  C   UNL d   1      29.093 -12.894   7.190  0.00  0.00    -0.059 A 
ATOM     19  C   UNL d   1      29.662 -12.790   8.576  0.00  0.00     0.048 C 
ATOM     20  C   UNL d   1      28.906 -14.153   6.615  0.00  0.00     0.044 A 
ATOM     21  C   UNL d   1      28.367 -14.281   5.325  0.00  0.00     0.082 A 
BRANCH  21  22
ATOM     22  O   UNL d   1      28.255 -15.574   4.881  0.00  0.00    -0.360 OA
ATOM     23  H   UNL d   1      29.007 -15.760   4.281  0.00  0.00     0.217 HD
ENDBRANCH  21  22
ENDBRANCH   1  15
TORSDOF 4
ENDMDL
MODEL 8
REMARK VINA RESULT:    -5.939      3.887      5.630
REMARK INTER + INTRA:          -8.872
REMARK INTER:                  -7.133
REMARK INTRA:                  -1.739
REMARK CONF_INDEPENDENT:        1.193
REMARK UNBOUND:                -1.739
REMARK  4 active torsions:
REMARK  status: ('A' for Active; 'I' for Inactive)
REMARK    1  A    between atoms: C_5  and  C_6 
REMARK       I    between atoms: C_6  and  N_8 
REMARK    2  A    between atoms: N_8  and  N_9 
REMARK       I    between atoms: N_9  and  C_10 
REMARK    3  A    between atoms: C_10  and  C_12 
REMARK    4  A    between atoms: C_18  and  O_19 
ROOT
ATOM      1  C   UNL d   1      25.946 -16.134  -1.705  0.00  0.00     0.272 C 
ATOM      2  O   UNL d   1      26.914 -15.871  -0.987  0.00  0.00    -0.266 OA
ATOM      3  N   UNL d   1      25.927 -15.813  -3.061  0.00  0.00    -0.263 N 
ATOM      4  H   UNL d   1      25.155 -16.007  -3.694  0.00  0.00     0.190 HD
ENDROOT
BRANCH   3   5
ATOM      5  N   UNL d   1      27.058 -15.194  -3.668  0.00  0.00    -0.263 N 
ATOM      6  C   UNL d   1      27.128 -15.105  -5.059  0.00  0.00     0.277 C 
ATOM      7  O   UNL d   1      26.223 -15.575  -5.761  0.00  0.00    -0.265 OA
ATOM      8  H   UNL d   1      27.719 -14.734  -3.046  0.00  0.00     0.190 HD
BRANCH   6   9
ATOM      9  C   UNL d   1      28.322 -14.463  -5.602  0.00  0.00     0.075 A 
ATOM     10  C   UNL d   1      28.770 -13.161  -5.434  0.00  0.00     0.027 A 
ATOM     11  C   UNL d   1      30.035 -12.923  -6.059  0.00  0.00     0.033 A 
ATOM     12  C   UNL d   1      30.477 -14.037  -6.722  0.00  0.00     0.075 A 
ATOM     13 CL   UNL d   1      31.924 -14.161  -7.644  0.00  0.00    -0.076 Cl
ATOM     14  S   UNL d   1      29.445 -15.371  -6.548  0.00  0.00    -0.072 SA
ENDBRANCH   6   9
ENDBRANCH   3   5
BRANCH   1  15
ATOM     15  C   UNL d   1      24.749 -16.829  -1.098  0.00  0.00     0.066 A 
ATOM     16  C   UNL d   1      23.440 -16.350  -1.270  0.00  0.00     0.020 A 
ATOM     17  C   UNL d   1      22.336 -17.023  -0.713  0.00  0.00     0.008 A 
ATOM     18  C   UNL d   1      22.508 -18.199   0.021  0.00  0.00    -0.059 A 
ATOM     19  C   UNL d   1      21.346 -18.950   0.607  0.00  0.00     0.048 C 
ATOM     20  C   UNL d   1      23.805 -18.682   0.208  0.00  0.00     0.044 A 
ATOM     21  C   UNL d   1      24.908 -18.005  -0.336  0.00  0.00     0.082 A 
BRANCH  21  22
ATOM     22  O   UNL d   1      26.121 -18.582  -0.060  0.00  0.00    -0.360 OA
ATOM     23  H   UNL d   1      26.815 -17.894  -0.139  0.00  0.00     0.217 HD
ENDBRANCH  21  22
ENDBRANCH   1  15
TORSDOF 4
ENDMDL
MODEL 9
REMARK VINA RESULT:    -5.717      5.920      8.242
REMARK INTER + INTRA:          -8.774
REMARK INTER:                  -6.910
REMARK INTRA:                  -1.864
REMARK CONF_INDEPENDENT:        1.193
REMARK UNBOUND:                -1.864
REMARK  4 active torsions:
REMARK  status: ('A' for Active; 'I' for Inactive)
REMARK    1  A    between atoms: C_5  and  C_6 
REMARK       I    between atoms: C_6  and  N_8 
REMARK    2  A    between atoms: N_8  and  N_9 
REMARK       I    between atoms: N_9  and  C_10 
REMARK    3  A    between atoms: C_10  and  C_12 
REMARK    4  A    between atoms: C_18  and  O_19 
ROOT
ATOM      1  C   UNL d   1      25.180 -14.176  -3.217  0.00  0.00     0.272 C 
ATOM      2  O   UNL d   1      24.413 -14.450  -4.144  0.00  0.00    -0.266 OA
ATOM      3  N   UNL d   1      25.755 -12.914  -3.086  0.00  0.00    -0.263 N 
ATOM      4  H   UNL d   1      26.392 -12.639  -2.342  0.00  0.00     0.190 HD
ENDROOT
BRANCH   3   5
ATOM      5  N   UNL d   1      25.440 -11.881  -4.016  0.00  0.00    -0.263 N 
ATOM      6  C   UNL d   1      26.137 -10.674  -3.965  0.00  0.00     0.277 C 
ATOM      7  O   UNL d   1      27.013 -10.495  -3.108  0.00  0.00    -0.265 OA
ATOM      8  H   UNL d   1      24.788 -12.117  -4.761  0.00  0.00     0.190 HD
BRANCH   6   9
ATOM      9  C   UNL d   1      25.749  -9.665  -4.947  0.00  0.00     0.075 A 
ATOM     10  C   UNL d   1      26.283  -9.414  -6.203  0.00  0.00     0.027 A 
ATOM     11  C   UNL d   1      25.578  -8.391  -6.913  0.00  0.00     0.033 A 
ATOM     12  C   UNL d   1      24.568  -7.866  -6.151  0.00  0.00     0.075 A 
ATOM     13 CL   UNL d   1      23.516  -6.585  -6.607  0.00  0.00    -0.076 Cl
ATOM     14  S   UNL d   1      24.407  -8.624  -4.642  0.00  0.00    -0.072 SA
ENDBRANCH   6   9
ENDBRANCH   3   5
BRANCH   1  15
ATOM     15  C   UNL d   1      25.500 -15.239  -2.190  0.00  0.00     0.066 A 
ATOM     16  C   UNL d   1      24.649 -16.330  -1.954  0.00  0.00     0.020 A 
ATOM     17  C   UNL d   1      24.975 -17.320  -1.007  0.00  0.00     0.008 A 
ATOM     18  C   UNL d   1      26.165 -17.253  -0.278  0.00  0.00    -0.059 A 
ATOM     19  C   UNL d   1      26.549 -18.306   0.722  0.00  0.00     0.048 C 
ATOM     20  C   UNL d   1      27.016 -16.167  -0.497  0.00  0.00     0.044 A 
ATOM     21  C   UNL d   1      26.687 -15.173  -1.432  0.00  0.00     0.082 A 
BRANCH  21  22
ATOM     22  O   UNL d   1      27.605 -14.159  -1.530  0.00  0.00    -0.360 OA
ATOM     23  H   UNL d   1      28.475 -14.551  -1.758  0.00  0.00     0.217 HD
ENDBRANCH  21  22
ENDBRANCH   1  15
TORSDOF 4
ENDMDL
