MODEL 1
REMARK VINA RESULT:    -7.492      0.000      0.000
REMARK INTER + INTRA:         -14.130
REMARK INTER:                 -10.475
REMARK INTRA:                  -3.655
REMARK CONF_INDEPENDENT:        2.983
REMARK UNBOUND:                -3.655
REMARK  10 active torsions:
REMARK  status: ('A' for Active; 'I' for Inactive)
REMARK    1  A    between atoms: C_2  and  C_4 
REMARK    2  A    between atoms: C_7  and  N_8 
REMARK       I    between atoms: N_8  and  C_9 
REMARK    3  A    between atoms: C_9  and  C_11 
REMARK       I    between atoms: C_11  and  N_13 
REMARK    4  A    between atoms: N_13  and  N_14 
REMARK    5  A    between atoms: C_15  and  C_16 
REMARK    6  A    between atoms: C_19  and  O_20 
REMARK    7  A    between atoms: O_20  and  C_21 
REMARK    8  A    between atoms: C_21  and  C_22 
REMARK       I    between atoms: C_22  and  N_24 
REMARK    9  A    between atoms: N_24  and  C_25 
REMARK   10  A    between atoms: C_25  and  C_26 
ROOT
ATOM      1  N   UNL d   1      27.935 -14.707   1.296  0.00  0.00    -0.183 NA
ATOM      2  C   UNL d   1      27.692 -15.779   0.605  0.00  0.00     0.150 C 
ENDROOT
BRANCH   2   3
ATOM      3  C   UNL d   1      27.480 -15.698  -0.873  0.00  0.00    -0.017 A 
ATOM      4  C   UNL d   1      28.558 -15.605  -1.760  0.00  0.00     0.015 A 
ATOM      5  C   UNL d   1      28.321 -15.517  -3.148  0.00  0.00     0.037 A 
ATOM      6  C   UNL d   1      27.019 -15.573  -3.669  0.00  0.00     0.069 A 
ATOM      7  C   UNL d   1      25.952 -15.637  -2.776  0.00  0.00     0.037 A 
ATOM      8  C   UNL d   1      26.181 -15.701  -1.389  0.00  0.00     0.015 A 
BRANCH   6   9
ATOM      9  O   UNL d   1      26.914 -15.575  -5.036  0.00  0.00    -0.342 OA
BRANCH   9  10
ATOM     10  C   UNL d   1      27.286 -14.395  -5.762  0.00  0.00     0.278 C 
BRANCH  10  11
ATOM     11  C   UNL d   1      28.627 -14.591  -6.512  0.00  0.00     0.241 C 
ATOM     12  O   UNL d   1      29.072 -13.767  -7.309  0.00  0.00    -0.271 OA
ATOM     13  N   UNL d   1      29.317 -15.764  -6.225  0.00  0.00    -0.357 N 
ATOM     14  H   UNL d   1      28.910 -16.461  -5.615  0.00  0.00     0.162 HD
BRANCH  13  15
ATOM     15  C   UNL d   1      30.564 -16.078  -6.931  0.00  0.00     0.154 C 
BRANCH  15  16
ATOM     16  C   UNL d   1      31.233 -17.393  -6.488  0.00  0.00     0.139 C 
ATOM     17  C   UNL d   1      31.296 -18.449  -7.582  0.00  0.00     0.035 C 
ATOM     18  C   UNL d   1      31.279 -19.742  -6.802  0.00  0.00     0.029 C 
ATOM     19  C   UNL d   1      30.404 -19.407  -5.614  0.00  0.00     0.168 C 
ATOM     20  O   UNL d   1      30.509 -17.993  -5.393  0.00  0.00    -0.384 OA
ENDBRANCH  15  16
ENDBRANCH  13  15
ENDBRANCH  10  11
ENDBRANCH   9  10
ENDBRANCH   6   9
ENDBRANCH   2   3
BRANCH   1  21
ATOM     21  N   UNL d   1      28.112 -14.818   2.660  0.00  0.00    -0.239 N 
ATOM     22  C   UNL d   1      27.912 -13.705   3.492  0.00  0.00     0.329 C 
ATOM     23  O   UNL d   1      27.576 -12.570   3.153  0.00  0.00    -0.261 OA
ATOM     24  H   UNL d   1      28.384 -15.705   3.086  0.00  0.00     0.192 HD
BRANCH  22  25
ATOM     25  C   UNL d   1      28.156 -13.992   4.988  0.00  0.00     0.315 C 
ATOM     26  N   UNL d   1      28.242 -12.877   5.837  0.00  0.00    -0.319 N 
ATOM     27  H   UNL d   1      28.168 -11.963   5.393  0.00  0.00     0.169 HD
ATOM     28  O   UNL d   1      28.262 -15.179   5.294  0.00  0.00    -0.262 OA
BRANCH  26  29
ATOM     29  C   UNL d   1      28.531 -12.918   7.233  0.00  0.00     0.035 A 
ATOM     30  C   UNL d   1      29.054 -14.077   7.826  0.00  0.00     0.030 A 
ATOM     31  C   UNL d   1      29.206 -14.157   9.225  0.00  0.00     0.010 A 
ATOM     32  C   UNL d   1      28.932 -13.056  10.050  0.00  0.00    -0.055 A 
ATOM     33  C   UNL d   1      28.458 -11.892   9.452  0.00  0.00     0.010 A 
ATOM     34  C   UNL d   1      28.267 -11.832   8.070  0.00  0.00     0.030 A 
BRANCH  32  35
ATOM     35  C   UNL d   1      29.150 -13.087  11.549  0.00  0.00     0.010 C 
ATOM     36  C   UNL d   1      28.157 -14.036  12.214  0.00  0.00     0.015 C 
ATOM     37  C   UNL d   1      30.592 -13.470  11.885  0.00  0.00     0.015 C 
ENDBRANCH  32  35
ENDBRANCH  26  29
ENDBRANCH  22  25
ENDBRANCH   1  21
TORSDOF 10
ENDMDL
MODEL 2
REMARK VINA RESULT:    -7.160      1.919      2.353
REMARK INTER + INTRA:         -13.978
REMARK INTER:                 -10.143
REMARK INTRA:                  -3.835
REMARK CONF_INDEPENDENT:        2.983
REMARK UNBOUND:                -3.835
REMARK  10 active torsions:
REMARK  status: ('A' for Active; 'I' for Inactive)
REMARK    1  A    between atoms: C_2  and  C_4 
REMARK    2  A    between atoms: C_7  and  N_8 
REMARK       I    between atoms: N_8  and  C_9 
REMARK    3  A    between atoms: C_9  and  C_11 
REMARK       I    between atoms: C_11  and  N_13 
REMARK    4  A    between atoms: N_13  and  N_14 
REMARK    5  A    between atoms: C_15  and  C_16 
REMARK    6  A    between atoms: C_19  and  O_20 
REMARK    7  A    between atoms: O_20  and  C_21 
REMARK    8  A    between atoms: C_21  and  C_22 
REMARK       I    between atoms: C_22  and  N_24 
REMARK    9  A    between atoms: N_24  and  C_25 
REMARK   10  A    between atoms: C_25  and  C_26 
ROOT
ATOM      1  N   UNL d   1      27.839 -14.486   1.799  0.00  0.00    -0.183 NA
ATOM      2  C   UNL d   1      27.395 -15.502   1.122  0.00  0.00     0.150 C 
ENDROOT
BRANCH   2   3
ATOM      3  C   UNL d   1      26.803 -15.309  -0.237  0.00  0.00    -0.017 A 
ATOM      4  C   UNL d   1      26.739 -14.044  -0.831  0.00  0.00     0.015 A 
ATOM      5  C   UNL d   1      26.162 -13.896  -2.111  0.00  0.00     0.037 A 
ATOM      6  C   UNL d   1      25.692 -15.007  -2.830  0.00  0.00     0.069 A 
ATOM      7  C   UNL d   1      25.734 -16.257  -2.216  0.00  0.00     0.037 A 
ATOM      8  C   UNL d   1      26.286 -16.407  -0.931  0.00  0.00     0.015 A 
BRANCH   6   9
ATOM      9  O   UNL d   1      25.239 -14.758  -4.100  0.00  0.00    -0.342 OA
BRANCH   9  10
ATOM     10  C   UNL d   1      26.078 -14.024  -5.003  0.00  0.00     0.278 C 
BRANCH  10  11
ATOM     11  C   UNL d   1      27.333 -14.842  -5.399  0.00  0.00     0.241 C 
ATOM     12  O   UNL d   1      27.559 -15.198  -6.554  0.00  0.00    -0.271 OA
ATOM     13  N   UNL d   1      28.209 -15.149  -4.364  0.00  0.00    -0.357 N 
ATOM     14  H   UNL d   1      27.980 -14.903  -3.410  0.00  0.00     0.162 HD
BRANCH  13  15
ATOM     15  C   UNL d   1      29.392 -15.977  -4.620  0.00  0.00     0.154 C 
BRANCH  15  16
ATOM     16  C   UNL d   1      30.276 -16.226  -3.383  0.00  0.00     0.139 C 
ATOM     17  C   UNL d   1      30.535 -17.698  -3.100  0.00  0.00     0.035 C 
ATOM     18  C   UNL d   1      30.736 -17.721  -1.603  0.00  0.00     0.029 C 
ATOM     19  C   UNL d   1      29.802 -16.633  -1.121  0.00  0.00     0.168 C 
ATOM     20  O   UNL d   1      29.655 -15.692  -2.195  0.00  0.00    -0.384 OA
ENDBRANCH  15  16
ENDBRANCH  13  15
ENDBRANCH  10  11
ENDBRANCH   9  10
ENDBRANCH   6   9
ENDBRANCH   2   3
BRANCH   1  21
ATOM     21  N   UNL d   1      28.366 -14.701   3.056  0.00  0.00    -0.239 N 
ATOM     22  C   UNL d   1      28.036 -13.843   4.117  0.00  0.00     0.329 C 
ATOM     23  O   UNL d   1      27.290 -12.864   4.082  0.00  0.00    -0.261 OA
ATOM     24  H   UNL d   1      28.997 -15.483   3.237  0.00  0.00     0.192 HD
BRANCH  22  25
ATOM     25  C   UNL d   1      28.712 -14.214   5.454  0.00  0.00     0.315 C 
ATOM     26  N   UNL d   1      28.501 -13.338   6.530  0.00  0.00    -0.319 N 
ATOM     27  H   UNL d   1      27.943 -12.508   6.336  0.00  0.00     0.169 HD
ATOM     28  O   UNL d   1      29.384 -15.245   5.444  0.00  0.00    -0.262 OA
BRANCH  26  29
ATOM     29  C   UNL d   1      29.088 -13.459   7.825  0.00  0.00     0.035 A 
ATOM     30  C   UNL d   1      30.373 -13.998   7.984  0.00  0.00     0.030 A 
ATOM     31  C   UNL d   1      30.890 -14.242   9.273  0.00  0.00     0.010 A 
ATOM     32  C   UNL d   1      30.180 -13.868  10.423  0.00  0.00    -0.055 A 
ATOM     33  C   UNL d   1      28.925 -13.290  10.258  0.00  0.00     0.010 A 
ATOM     34  C   UNL d   1      28.398 -13.089   8.981  0.00  0.00     0.030 A 
BRANCH  32  35
ATOM     35  C   UNL d   1      30.737 -14.053  11.821  0.00  0.00     0.010 C 
ATOM     36  C   UNL d   1      30.674 -15.522  12.230  0.00  0.00     0.015 C 
ATOM     37  C   UNL d   1      32.163 -13.511  11.918  0.00  0.00     0.015 C 
ENDBRANCH  32  35
ENDBRANCH  26  29
ENDBRANCH  22  25
ENDBRANCH   1  21
TORSDOF 10
ENDMDL
MODEL 3
REMARK VINA RESULT:    -7.149      6.267      7.611
REMARK INTER + INTRA:         -13.079
REMARK INTER:                 -10.132
REMARK INTRA:                  -2.947
REMARK CONF_INDEPENDENT:        2.983
REMARK UNBOUND:                -2.947
REMARK  10 active torsions:
REMARK  status: ('A' for Active; 'I' for Inactive)
REMARK    1  A    between atoms: C_2  and  C_4 
REMARK    2  A    between atoms: C_7  and  N_8 
REMARK       I    between atoms: N_8  and  C_9 
REMARK    3  A    between atoms: C_9  and  C_11 
REMARK       I    between atoms: C_11  and  N_13 
REMARK    4  A    between atoms: N_13  and  N_14 
REMARK    5  A    between atoms: C_15  and  C_16 
REMARK    6  A    between atoms: C_19  and  O_20 
REMARK    7  A    between atoms: O_20  and  C_21 
REMARK    8  A    between atoms: C_21  and  C_22 
REMARK       I    between atoms: C_22  and  N_24 
REMARK    9  A    between atoms: N_24  and  C_25 
REMARK   10  A    between atoms: C_25  and  C_26 
ROOT
ATOM      1  N   UNL d   1      30.679 -18.540  -1.218  0.00  0.00    -0.183 NA
ATOM      2  C   UNL d   1      31.382 -18.110  -2.222  0.00  0.00     0.150 C 
ENDROOT
BRANCH   2   3
ATOM      3  C   UNL d   1      30.717 -17.460  -3.393  0.00  0.00    -0.017 A 
ATOM      4  C   UNL d   1      29.880 -16.351  -3.233  0.00  0.00     0.015 A 
ATOM      5  C   UNL d   1      29.258 -15.771  -4.360  0.00  0.00     0.037 A 
ATOM      6  C   UNL d   1      29.501 -16.255  -5.655  0.00  0.00     0.069 A 
ATOM      7  C   UNL d   1      30.312 -17.378  -5.799  0.00  0.00     0.037 A 
ATOM      8  C   UNL d   1      30.917 -17.975  -4.677  0.00  0.00     0.015 A 
BRANCH   6   9
ATOM      9  O   UNL d   1      28.919 -15.556  -6.681  0.00  0.00    -0.342 OA
BRANCH   9  10
ATOM     10  C   UNL d   1      29.268 -14.177  -6.866  0.00  0.00     0.278 C 
BRANCH  10  11
ATOM     11  C   UNL d   1      28.232 -13.238  -6.198  0.00  0.00     0.241 C 
ATOM     12  O   UNL d   1      28.366 -12.016  -6.161  0.00  0.00    -0.271 OA
ATOM     13  N   UNL d   1      27.119 -13.859  -5.641  0.00  0.00    -0.357 N 
ATOM     14  H   UNL d   1      27.052 -14.868  -5.624  0.00  0.00     0.162 HD
BRANCH  13  15
ATOM     15  C   UNL d   1      26.113 -13.067  -4.926  0.00  0.00     0.154 C 
BRANCH  15  16
ATOM     16  C   UNL d   1      25.287 -13.864  -3.899  0.00  0.00     0.139 C 
ATOM     17  C   UNL d   1      25.772 -13.709  -2.466  0.00  0.00     0.035 C 
ATOM     18  C   UNL d   1      25.362 -15.015  -1.829  0.00  0.00     0.029 C 
ATOM     19  C   UNL d   1      25.511 -16.004  -2.964  0.00  0.00     0.168 C 
ATOM     20  O   UNL d   1      25.335 -15.277  -4.188  0.00  0.00    -0.384 OA
ENDBRANCH  15  16
ENDBRANCH  13  15
ENDBRANCH  10  11
ENDBRANCH   9  10
ENDBRANCH   6   9
ENDBRANCH   2   3
BRANCH   1  21
ATOM     21  N   UNL d   1      31.326 -19.146  -0.161  0.00  0.00    -0.239 N 
ATOM     22  C   UNL d   1      31.574 -20.527  -0.181  0.00  0.00     0.329 C 
ATOM     23  O   UNL d   1      31.279 -21.326  -1.071  0.00  0.00    -0.261 OA
ATOM     24  H   UNL d   1      31.637 -18.605   0.647  0.00  0.00     0.192 HD
BRANCH  22  25
ATOM     25  C   UNL d   1      32.298 -21.050   1.077  0.00  0.00     0.315 C 
ATOM     26  N   UNL d   1      31.659 -20.831   2.308  0.00  0.00    -0.319 N 
ATOM     27  H   UNL d   1      30.781 -20.315   2.277  0.00  0.00     0.169 HD
ATOM     28  O   UNL d   1      33.378 -21.605   0.880  0.00  0.00    -0.262 OA
BRANCH  26  29
ATOM     29  C   UNL d   1      32.187 -21.170   3.589  0.00  0.00     0.035 A 
ATOM     30  C   UNL d   1      31.338 -21.380   4.685  0.00  0.00     0.030 A 
ATOM     31  C   UNL d   1      31.872 -21.578   5.974  0.00  0.00     0.010 A 
ATOM     32  C   UNL d   1      33.257 -21.666   6.181  0.00  0.00    -0.055 A 
ATOM     33  C   UNL d   1      34.094 -21.505   5.082  0.00  0.00     0.010 A 
ATOM     34  C   UNL d   1      33.563 -21.266   3.814  0.00  0.00     0.030 A 
BRANCH  32  35
ATOM     35  C   UNL d   1      33.861 -21.947   7.543  0.00  0.00     0.010 C 
ATOM     36  C   UNL d   1      34.391 -23.376   7.609  0.00  0.00     0.015 C 
ATOM     37  C   UNL d   1      34.957 -20.934   7.874  0.00  0.00     0.015 C 
ENDBRANCH  32  35
ENDBRANCH  26  29
ENDBRANCH  22  25
ENDBRANCH   1  21
TORSDOF 10
ENDMDL
MODEL 4
REMARK VINA RESULT:    -6.819      2.007      3.480
REMARK INTER + INTRA:         -13.263
REMARK INTER:                  -9.802
REMARK INTRA:                  -3.461
REMARK CONF_INDEPENDENT:        2.983
REMARK UNBOUND:                -3.461
REMARK  10 active torsions:
REMARK  status: ('A' for Active; 'I' for Inactive)
REMARK    1  A    between atoms: C_2  and  C_4 
REMARK    2  A    between atoms: C_7  and  N_8 
REMARK       I    between atoms: N_8  and  C_9 
REMARK    3  A    between atoms: C_9  and  C_11 
REMARK       I    between atoms: C_11  and  N_13 
REMARK    4  A    between atoms: N_13  and  N_14 
REMARK    5  A    between atoms: C_15  and  C_16 
REMARK    6  A    between atoms: C_19  and  O_20 
REMARK    7  A    between atoms: O_20  and  C_21 
REMARK    8  A    between atoms: C_21  and  C_22 
REMARK       I    between atoms: C_22  and  N_24 
REMARK    9  A    between atoms: N_24  and  C_25 
REMARK   10  A    between atoms: C_25  and  C_26 
ROOT
ATOM      1  N   UNL d   1      28.020 -14.389   1.134  0.00  0.00    -0.183 NA
ATOM      2  C   UNL d   1      28.842 -15.282   0.672  0.00  0.00     0.150 C 
ENDROOT
BRANCH   2   3
ATOM      3  C   UNL d   1      29.098 -15.392  -0.797  0.00  0.00    -0.017 A 
ATOM      4  C   UNL d   1      29.628 -14.323  -1.527  0.00  0.00     0.015 A 
ATOM      5  C   UNL d   1      29.845 -14.457  -2.915  0.00  0.00     0.037 A 
ATOM      6  C   UNL d   1      29.586 -15.667  -3.578  0.00  0.00     0.069 A 
ATOM      7  C   UNL d   1      29.031 -16.715  -2.847  0.00  0.00     0.037 A 
ATOM      8  C   UNL d   1      28.790 -16.580  -1.468  0.00  0.00     0.015 A 
BRANCH   6   9
ATOM      9  O   UNL d   1      29.923 -15.713  -4.906  0.00  0.00    -0.342 OA
BRANCH   9  10
ATOM     10  C   UNL d   1      29.348 -14.750  -5.801  0.00  0.00     0.278 C 
BRANCH  10  11
ATOM     11  C   UNL d   1      27.828 -14.586  -5.554  0.00  0.00     0.241 C 
ATOM     12  O   UNL d   1      27.016 -15.485  -5.770  0.00  0.00    -0.271 OA
ATOM     13  N   UNL d   1      27.423 -13.352  -5.057  0.00  0.00    -0.357 N 
ATOM     14  H   UNL d   1      28.092 -12.602  -4.943  0.00  0.00     0.162 HD
BRANCH  13  15
ATOM     15  C   UNL d   1      25.998 -13.070  -4.852  0.00  0.00     0.154 C 
BRANCH  15  16
ATOM     16  C   UNL d   1      25.379 -13.774  -3.629  0.00  0.00     0.139 C 
ATOM     17  C   UNL d   1      26.251 -13.720  -2.384  0.00  0.00     0.035 C 
ATOM     18  C   UNL d   1      25.853 -14.974  -1.642  0.00  0.00     0.029 C 
ATOM     19  C   UNL d   1      25.554 -15.946  -2.761  0.00  0.00     0.168 C 
ATOM     20  O   UNL d   1      25.155 -15.173  -3.902  0.00  0.00    -0.384 OA
ENDBRANCH  15  16
ENDBRANCH  13  15
ENDBRANCH  10  11
ENDBRANCH   9  10
ENDBRANCH   6   9
ENDBRANCH   2   3
BRANCH   1  21
ATOM     21  N   UNL d   1      27.798 -14.326   2.494  0.00  0.00    -0.239 N 
ATOM     22  C   UNL d   1      28.732 -13.700   3.335  0.00  0.00     0.329 C 
ATOM     23  O   UNL d   1      29.790 -13.162   3.006  0.00  0.00    -0.261 OA
ATOM     24  H   UNL d   1      26.955 -14.725   2.910  0.00  0.00     0.192 HD
BRANCH  22  25
ATOM     25  C   UNL d   1      28.339 -13.720   4.827  0.00  0.00     0.315 C 
ATOM     26  N   UNL d   1      29.225 -13.093   5.718  0.00  0.00    -0.319 N 
ATOM     27  H   UNL d   1      30.074 -12.701   5.313  0.00  0.00     0.169 HD
ATOM     28  O   UNL d   1      27.286 -14.295   5.095  0.00  0.00    -0.262 OA
BRANCH  26  29
ATOM     29  C   UNL d   1      29.086 -13.058   7.137  0.00  0.00     0.035 A 
ATOM     30  C   UNL d   1      29.625 -14.075   7.938  0.00  0.00     0.030 A 
ATOM     31  C   UNL d   1      29.365 -14.107   9.323  0.00  0.00     0.010 A 
ATOM     32  C   UNL d   1      28.647 -13.079   9.951  0.00  0.00    -0.055 A 
ATOM     33  C   UNL d   1      28.155 -12.046   9.159  0.00  0.00     0.010 A 
ATOM     34  C   UNL d   1      28.377 -12.041   7.781  0.00  0.00     0.030 A 
BRANCH  32  35
ATOM     35  C   UNL d   1      28.409 -13.048  11.448  0.00  0.00     0.010 C 
ATOM     36  C   UNL d   1      28.530 -14.450  12.038  0.00  0.00     0.015 C 
ATOM     37  C   UNL d   1      29.367 -12.073  12.135  0.00  0.00     0.015 C 
ENDBRANCH  32  35
ENDBRANCH  26  29
ENDBRANCH  22  25
ENDBRANCH   1  21
TORSDOF 10
ENDMDL
MODEL 5
REMARK VINA RESULT:    -6.810      2.647      4.236
REMARK INTER + INTRA:         -13.288
REMARK INTER:                  -9.793
REMARK INTRA:                  -3.495
REMARK CONF_INDEPENDENT:        2.983
REMARK UNBOUND:                -3.495
REMARK  10 active torsions:
REMARK  status: ('A' for Active; 'I' for Inactive)
REMARK    1  A    between atoms: C_2  and  C_4 
REMARK    2  A    between atoms: C_7  and  N_8 
REMARK       I    between atoms: N_8  and  C_9 
REMARK    3  A    between atoms: C_9  and  C_11 
REMARK       I    between atoms: C_11  and  N_13 
REMARK    4  A    between atoms: N_13  and  N_14 
REMARK    5  A    between atoms: C_15  and  C_16 
REMARK    6  A    between atoms: C_19  and  O_20 
REMARK    7  A    between atoms: O_20  and  C_21 
REMARK    8  A    between atoms: C_21  and  C_22 
REMARK       I    between atoms: C_22  and  N_24 
REMARK    9  A    between atoms: N_24  and  C_25 
REMARK   10  A    between atoms: C_25  and  C_26 
ROOT
ATOM      1  N   UNL d   1      27.707 -14.623   1.957  0.00  0.00    -0.183 NA
ATOM      2  C   UNL d   1      27.576 -15.633   1.151  0.00  0.00     0.150 C 
ENDROOT
BRANCH   2   3
ATOM      3  C   UNL d   1      26.911 -15.464  -0.178  0.00  0.00    -0.017 A 
ATOM      4  C   UNL d   1      27.041 -14.281  -0.912  0.00  0.00     0.015 A 
ATOM      5  C   UNL d   1      26.389 -14.151  -2.158  0.00  0.00     0.037 A 
ATOM      6  C   UNL d   1      25.648 -15.210  -2.705  0.00  0.00     0.069 A 
ATOM      7  C   UNL d   1      25.502 -16.372  -1.951  0.00  0.00     0.037 A 
ATOM      8  C   UNL d   1      26.129 -16.499  -0.699  0.00  0.00     0.015 A 
BRANCH   6   9
ATOM      9  O   UNL d   1      25.139 -15.006  -3.961  0.00  0.00    -0.342 OA
BRANCH   9  10
ATOM     10  C   UNL d   1      25.821 -15.576  -5.087  0.00  0.00     0.278 C 
BRANCH  10  11
ATOM     11  C   UNL d   1      26.976 -14.663  -5.569  0.00  0.00     0.241 C 
ATOM     12  O   UNL d   1      28.001 -15.103  -6.089  0.00  0.00    -0.271 OA
ATOM     13  N   UNL d   1      26.788 -13.297  -5.388  0.00  0.00    -0.357 N 
ATOM     14  H   UNL d   1      25.969 -12.954  -4.903  0.00  0.00     0.162 HD
BRANCH  13  15
ATOM     15  C   UNL d   1      27.849 -12.352  -5.748  0.00  0.00     0.154 C 
BRANCH  15  16
ATOM     16  C   UNL d   1      27.432 -10.870  -5.683  0.00  0.00     0.139 C 
ATOM     17  C   UNL d   1      27.987 -10.127  -4.478  0.00  0.00     0.035 C 
ATOM     18  C   UNL d   1      26.950  -9.057  -4.236  0.00  0.00     0.029 C 
ATOM     19  C   UNL d   1      25.661  -9.740  -4.639  0.00  0.00     0.168 C 
ATOM     20  O   UNL d   1      25.997 -10.745  -5.606  0.00  0.00    -0.384 OA
ENDBRANCH  15  16
ENDBRANCH  13  15
ENDBRANCH  10  11
ENDBRANCH   9  10
ENDBRANCH   6   9
ENDBRANCH   2   3
BRANCH   1  21
ATOM     21  N   UNL d   1      28.313 -14.819   3.181  0.00  0.00    -0.239 N 
ATOM     22  C   UNL d   1      28.009 -13.980   4.263  0.00  0.00     0.329 C 
ATOM     23  O   UNL d   1      27.221 -13.032   4.276  0.00  0.00    -0.261 OA
ATOM     24  H   UNL d   1      28.985 -15.574   3.321  0.00  0.00     0.192 HD
BRANCH  22  25
ATOM     25  C   UNL d   1      28.775 -14.326   5.557  0.00  0.00     0.315 C 
ATOM     26  N   UNL d   1      28.500 -13.534   6.683  0.00  0.00    -0.319 N 
ATOM     27  H   UNL d   1      27.838 -12.770   6.549  0.00  0.00     0.169 HD
ATOM     28  O   UNL d   1      29.566 -15.265   5.474  0.00  0.00    -0.262 OA
BRANCH  26  29
ATOM     29  C   UNL d   1      29.146 -13.641   7.950  0.00  0.00     0.035 A 
ATOM     30  C   UNL d   1      28.489 -13.254   9.127  0.00  0.00     0.030 A 
ATOM     31  C   UNL d   1      29.180 -13.232  10.356  0.00  0.00     0.010 A 
ATOM     32  C   UNL d   1      30.504 -13.686  10.453  0.00  0.00    -0.055 A 
ATOM     33  C   UNL d   1      31.136 -14.114   9.290  0.00  0.00     0.010 A 
ATOM     34  C   UNL d   1      30.462 -14.092   8.067  0.00  0.00     0.030 A 
BRANCH  32  35
ATOM     35  C   UNL d   1      31.252 -13.740  11.770  0.00  0.00     0.010 C 
ATOM     36  C   UNL d   1      32.070 -15.024  11.868  0.00  0.00     0.015 C 
ATOM     37  C   UNL d   1      32.137 -12.505  11.949  0.00  0.00     0.015 C 
ENDBRANCH  32  35
ENDBRANCH  26  29
ENDBRANCH  22  25
ENDBRANCH   1  21
TORSDOF 10
ENDMDL
MODEL 6
REMARK VINA RESULT:    -6.799      2.375      3.178
REMARK INTER + INTRA:         -12.920
REMARK INTER:                  -9.782
REMARK INTRA:                  -3.138
REMARK CONF_INDEPENDENT:        2.983
REMARK UNBOUND:                -3.138
REMARK  10 active torsions:
REMARK  status: ('A' for Active; 'I' for Inactive)
REMARK    1  A    between atoms: C_2  and  C_4 
REMARK    2  A    between atoms: C_7  and  N_8 
REMARK       I    between atoms: N_8  and  C_9 
REMARK    3  A    between atoms: C_9  and  C_11 
REMARK       I    between atoms: C_11  and  N_13 
REMARK    4  A    between atoms: N_13  and  N_14 
REMARK    5  A    between atoms: C_15  and  C_16 
REMARK    6  A    between atoms: C_19  and  O_20 
REMARK    7  A    between atoms: O_20  and  C_21 
REMARK    8  A    between atoms: C_21  and  C_22 
REMARK       I    between atoms: C_22  and  N_24 
REMARK    9  A    between atoms: N_24  and  C_25 
REMARK   10  A    between atoms: C_25  and  C_26 
ROOT
ATOM      1  N   UNL d   1      27.843 -14.512   1.605  0.00  0.00    -0.183 NA
ATOM      2  C   UNL d   1      27.053 -15.389   1.063  0.00  0.00     0.150 C 
ENDROOT
BRANCH   2   3
ATOM      3  C   UNL d   1      26.608 -15.238  -0.356  0.00  0.00    -0.017 A 
ATOM      4  C   UNL d   1      26.325 -16.351  -1.153  0.00  0.00     0.015 A 
ATOM      5  C   UNL d   1      25.920 -16.172  -2.494  0.00  0.00     0.037 A 
ATOM      6  C   UNL d   1      25.744 -14.889  -3.035  0.00  0.00     0.069 A 
ATOM      7  C   UNL d   1      26.057 -13.789  -2.241  0.00  0.00     0.037 A 
ATOM      8  C   UNL d   1      26.484 -13.961  -0.912  0.00  0.00     0.015 A 
BRANCH   6   9
ATOM      9  O   UNL d   1      25.257 -14.835  -4.316  0.00  0.00    -0.342 OA
BRANCH   9  10
ATOM     10  C   UNL d   1      25.914 -15.594  -5.340  0.00  0.00     0.278 C 
BRANCH  10  11
ATOM     11  C   UNL d   1      27.275 -14.964  -5.726  0.00  0.00     0.241 C 
ATOM     12  O   UNL d   1      28.038 -15.474  -6.545  0.00  0.00    -0.271 OA
ATOM     13  N   UNL d   1      27.591 -13.766  -5.094  0.00  0.00    -0.357 N 
ATOM     14  H   UNL d   1      26.983 -13.390  -4.378  0.00  0.00     0.162 HD
BRANCH  13  15
ATOM     15  C   UNL d   1      28.885 -13.122  -5.339  0.00  0.00     0.154 C 
BRANCH  15  16
ATOM     16  C   UNL d   1      28.923 -12.221  -6.588  0.00  0.00     0.139 C 
ATOM     17  C   UNL d   1      27.593 -11.555  -6.906  0.00  0.00     0.035 C 
ATOM     18  C   UNL d   1      27.656 -11.376  -8.404  0.00  0.00     0.029 C 
ATOM     19  C   UNL d   1      28.441 -12.589  -8.854  0.00  0.00     0.168 C 
ATOM     20  O   UNL d   1      29.279 -12.984  -7.760  0.00  0.00    -0.384 OA
ENDBRANCH  15  16
ENDBRANCH  13  15
ENDBRANCH  10  11
ENDBRANCH   9  10
ENDBRANCH   6   9
ENDBRANCH   2   3
BRANCH   1  21
ATOM     21  N   UNL d   1      28.222 -14.677   2.921  0.00  0.00    -0.239 N 
ATOM     22  C   UNL d   1      27.861 -13.723   3.886  0.00  0.00     0.329 C 
ATOM     23  O   UNL d   1      27.207 -12.694   3.711  0.00  0.00    -0.261 OA
ATOM     24  H   UNL d   1      28.764 -15.490   3.216  0.00  0.00     0.192 HD
BRANCH  22  25
ATOM     25  C   UNL d   1      28.367 -14.050   5.307  0.00  0.00     0.315 C 
ATOM     26  N   UNL d   1      28.102 -13.097   6.303  0.00  0.00    -0.319 N 
ATOM     27  H   UNL d   1      27.624 -12.249   6.003  0.00  0.00     0.169 HD
ATOM     28  O   UNL d   1      28.967 -15.117   5.428  0.00  0.00    -0.262 OA
BRANCH  26  29
ATOM     29  C   UNL d   1      28.541 -13.172   7.659  0.00  0.00     0.035 A 
ATOM     30  C   UNL d   1      29.125 -14.343   8.162  0.00  0.00     0.030 A 
ATOM     31  C   UNL d   1      29.428 -14.457   9.534  0.00  0.00     0.010 A 
ATOM     32  C   UNL d   1      29.245 -13.377  10.411  0.00  0.00    -0.055 A 
ATOM     33  C   UNL d   1      28.709 -12.200   9.896  0.00  0.00     0.010 A 
ATOM     34  C   UNL d   1      28.370 -12.106   8.546  0.00  0.00     0.030 A 
BRANCH  32  35
ATOM     35  C   UNL d   1      29.625 -13.444  11.877  0.00  0.00     0.010 C 
ATOM     36  C   UNL d   1      30.149 -14.832  12.230  0.00  0.00     0.015 C 
ATOM     37  C   UNL d   1      30.645 -12.360  12.228  0.00  0.00     0.015 C 
ENDBRANCH  32  35
ENDBRANCH  26  29
ENDBRANCH  22  25
ENDBRANCH   1  21
TORSDOF 10
ENDMDL
MODEL 7
REMARK VINA RESULT:    -6.715      2.267      3.971
REMARK INTER + INTRA:         -13.548
REMARK INTER:                  -9.698
REMARK INTRA:                  -3.850
REMARK CONF_INDEPENDENT:        2.983
REMARK UNBOUND:                -3.850
REMARK  10 active torsions:
REMARK  status: ('A' for Active; 'I' for Inactive)
REMARK    1  A    between atoms: C_2  and  C_4 
REMARK    2  A    between atoms: C_7  and  N_8 
REMARK       I    between atoms: N_8  and  C_9 
REMARK    3  A    between atoms: C_9  and  C_11 
REMARK       I    between atoms: C_11  and  N_13 
REMARK    4  A    between atoms: N_13  and  N_14 
REMARK    5  A    between atoms: C_15  and  C_16 
REMARK    6  A    between atoms: C_19  and  O_20 
REMARK    7  A    between atoms: O_20  and  C_21 
REMARK    8  A    between atoms: C_21  and  C_22 
REMARK       I    between atoms: C_22  and  N_24 
REMARK    9  A    between atoms: N_24  and  C_25 
REMARK   10  A    between atoms: C_25  and  C_26 
ROOT
ATOM      1  N   UNL d   1      27.897 -14.704   1.015  0.00  0.00    -0.183 NA
ATOM      2  C   UNL d   1      27.544 -15.745   0.324  0.00  0.00     0.150 C 
ENDROOT
BRANCH   2   3
ATOM      3  C   UNL d   1      27.358 -15.648  -1.156  0.00  0.00    -0.017 A 
ATOM      4  C   UNL d   1      28.450 -15.531  -2.022  0.00  0.00     0.015 A 
ATOM      5  C   UNL d   1      28.237 -15.428  -3.413  0.00  0.00     0.037 A 
ATOM      6  C   UNL d   1      26.946 -15.492  -3.959  0.00  0.00     0.069 A 
ATOM      7  C   UNL d   1      25.864 -15.580  -3.085  0.00  0.00     0.037 A 
ATOM      8  C   UNL d   1      26.068 -15.659  -1.695  0.00  0.00     0.015 A 
BRANCH   6   9
ATOM      9  O   UNL d   1      26.865 -15.478  -5.327  0.00  0.00    -0.342 OA
BRANCH   9  10
ATOM     10  C   UNL d   1      27.746 -14.619  -6.065  0.00  0.00     0.278 C 
BRANCH  10  11
ATOM     11  C   UNL d   1      27.436 -13.126  -5.795  0.00  0.00     0.241 C 
ATOM     12  O   UNL d   1      28.141 -12.211  -6.219  0.00  0.00    -0.271 OA
ATOM     13  N   UNL d   1      26.295 -12.868  -5.043  0.00  0.00    -0.357 N 
ATOM     14  H   UNL d   1      25.760 -13.631  -4.648  0.00  0.00     0.162 HD
BRANCH  13  15
ATOM     15  C   UNL d   1      25.950 -11.491  -4.674  0.00  0.00     0.154 C 
BRANCH  15  16
ATOM     16  C   UNL d   1      25.989 -11.208  -3.160  0.00  0.00     0.139 C 
ATOM     17  C   UNL d   1      27.175 -10.361  -2.724  0.00  0.00     0.035 C 
ATOM     18  C   UNL d   1      27.405 -10.812  -1.301  0.00  0.00     0.029 C 
ATOM     19  C   UNL d   1      27.029 -12.277  -1.348  0.00  0.00     0.168 C 
ATOM     20  O   UNL d   1      26.079 -12.438  -2.411  0.00  0.00    -0.384 OA
ENDBRANCH  15  16
ENDBRANCH  13  15
ENDBRANCH  10  11
ENDBRANCH   9  10
ENDBRANCH   6   9
ENDBRANCH   2   3
BRANCH   1  21
ATOM     21  N   UNL d   1      28.046 -14.828   2.381  0.00  0.00    -0.239 N 
ATOM     22  C   UNL d   1      27.761 -13.743   3.225  0.00  0.00     0.329 C 
ATOM     23  O   UNL d   1      27.366 -12.624   2.895  0.00  0.00    -0.261 OA
ATOM     24  H   UNL d   1      28.360 -15.704   2.800  0.00  0.00     0.192 HD
BRANCH  22  25
ATOM     25  C   UNL d   1      27.984 -14.041   4.722  0.00  0.00     0.315 C 
ATOM     26  N   UNL d   1      28.317 -12.948   5.538  0.00  0.00    -0.319 N 
ATOM     27  H   UNL d   1      28.415 -12.048   5.072  0.00  0.00     0.169 HD
ATOM     28  O   UNL d   1      27.858 -15.218   5.057  0.00  0.00    -0.262 OA
BRANCH  26  29
ATOM     29  C   UNL d   1      28.631 -13.017   6.928  0.00  0.00     0.035 A 
ATOM     30  C   UNL d   1      29.395 -14.074   7.442  0.00  0.00     0.030 A 
ATOM     31  C   UNL d   1      29.583 -14.210   8.832  0.00  0.00     0.010 A 
ATOM     32  C   UNL d   1      29.098 -13.246   9.728  0.00  0.00    -0.055 A 
ATOM     33  C   UNL d   1      28.380 -12.172   9.209  0.00  0.00     0.010 A 
ATOM     34  C   UNL d   1      28.159 -12.065   7.835  0.00  0.00     0.030 A 
BRANCH  32  35
ATOM     35  C   UNL d   1      29.342 -13.326  11.222  0.00  0.00     0.010 C 
ATOM     36  C   UNL d   1      29.037 -11.986  11.886  0.00  0.00     0.015 C 
ATOM     37  C   UNL d   1      28.524 -14.455  11.851  0.00  0.00     0.015 C 
ENDBRANCH  32  35
ENDBRANCH  26  29
ENDBRANCH  22  25
ENDBRANCH   1  21
TORSDOF 10
ENDMDL
MODEL 8
REMARK VINA RESULT:    -6.661      2.537      3.724
REMARK INTER + INTRA:         -13.616
REMARK INTER:                  -9.644
REMARK INTRA:                  -3.971
REMARK CONF_INDEPENDENT:        2.983
REMARK UNBOUND:                -3.971
REMARK  10 active torsions:
REMARK  status: ('A' for Active; 'I' for Inactive)
REMARK    1  A    between atoms: C_2  and  C_4 
REMARK    2  A    between atoms: C_7  and  N_8 
REMARK       I    between atoms: N_8  and  C_9 
REMARK    3  A    between atoms: C_9  and  C_11 
REMARK       I    between atoms: C_11  and  N_13 
REMARK    4  A    between atoms: N_13  and  N_14 
REMARK    5  A    between atoms: C_15  and  C_16 
REMARK    6  A    between atoms: C_19  and  O_20 
REMARK    7  A    between atoms: O_20  and  C_21 
REMARK    8  A    between atoms: C_21  and  C_22 
REMARK       I    between atoms: C_22  and  N_24 
REMARK    9  A    between atoms: N_24  and  C_25 
REMARK   10  A    between atoms: C_25  and  C_26 
ROOT
ATOM      1  N   UNL d   1      27.430 -14.618   1.797  0.00  0.00    -0.183 NA
ATOM      2  C   UNL d   1      27.362 -15.624   0.979  0.00  0.00     0.150 C 
ENDROOT
BRANCH   2   3
ATOM      3  C   UNL d   1      26.760 -15.460  -0.380  0.00  0.00    -0.017 A 
ATOM      4  C   UNL d   1      26.898 -14.268  -1.098  0.00  0.00     0.015 A 
ATOM      5  C   UNL d   1      26.306 -14.142  -2.373  0.00  0.00     0.037 A 
ATOM      6  C   UNL d   1      25.617 -15.213  -2.964  0.00  0.00     0.069 A 
ATOM      7  C   UNL d   1      25.461 -16.385  -2.227  0.00  0.00     0.037 A 
ATOM      8  C   UNL d   1      26.029 -16.508  -0.946  0.00  0.00     0.015 A 
BRANCH   6   9
ATOM      9  O   UNL d   1      25.166 -15.010  -4.243  0.00  0.00    -0.342 OA
BRANCH   9  10
ATOM     10  C   UNL d   1      25.903 -15.575  -5.336  0.00  0.00     0.278 C 
BRANCH  10  11
ATOM     11  C   UNL d   1      27.171 -14.744  -5.652  0.00  0.00     0.241 C 
ATOM     12  O   UNL d   1      28.129 -15.200  -6.275  0.00  0.00    -0.271 OA
ATOM     13  N   UNL d   1      27.168 -13.431  -5.193  0.00  0.00    -0.357 N 
ATOM     14  H   UNL d   1      26.400 -13.089  -4.629  0.00  0.00     0.162 HD
BRANCH  13  15
ATOM     15  C   UNL d   1      28.347 -12.581  -5.380  0.00  0.00     0.154 C 
BRANCH  15  16
ATOM     16  C   UNL d   1      28.376 -11.326  -4.487  0.00  0.00     0.139 C 
ATOM     17  C   UNL d   1      29.517 -11.314  -3.481  0.00  0.00     0.035 C 
ATOM     18  C   UNL d   1      28.957 -10.485  -2.349  0.00  0.00     0.029 C 
ATOM     19  C   UNL d   1      27.485 -10.832  -2.374  0.00  0.00     0.168 C 
ATOM     20  O   UNL d   1      27.161 -11.217  -3.717  0.00  0.00    -0.384 OA
ENDBRANCH  15  16
ENDBRANCH  13  15
ENDBRANCH  10  11
ENDBRANCH   9  10
ENDBRANCH   6   9
ENDBRANCH   2   3
BRANCH   1  21
ATOM     21  N   UNL d   1      27.980 -14.810   3.048  0.00  0.00    -0.239 N 
ATOM     22  C   UNL d   1      27.785 -13.858   4.060  0.00  0.00     0.329 C 
ATOM     23  O   UNL d   1      27.147 -12.807   3.985  0.00  0.00    -0.261 OA
ATOM     24  H   UNL d   1      28.530 -15.644   3.260  0.00  0.00     0.192 HD
BRANCH  22  25
ATOM     25  C   UNL d   1      28.469 -14.217   5.396  0.00  0.00     0.315 C 
ATOM     26  N   UNL d   1      28.274 -13.325   6.462  0.00  0.00    -0.319 N 
ATOM     27  H   UNL d   1      27.722 -12.493   6.262  0.00  0.00     0.169 HD
ATOM     28  O   UNL d   1      29.132 -15.254   5.395  0.00  0.00    -0.262 OA
BRANCH  26  29
ATOM     29  C   UNL d   1      28.871 -13.434   7.754  0.00  0.00     0.035 A 
ATOM     30  C   UNL d   1      30.107 -14.074   7.923  0.00  0.00     0.030 A 
ATOM     31  C   UNL d   1      30.623 -14.300   9.215  0.00  0.00     0.010 A 
ATOM     32  C   UNL d   1      29.968 -13.810  10.355  0.00  0.00    -0.055 A 
ATOM     33  C   UNL d   1      28.765 -13.133  10.178  0.00  0.00     0.010 A 
ATOM     34  C   UNL d   1      28.236 -12.950   8.899  0.00  0.00     0.030 A 
BRANCH  32  35
ATOM     35  C   UNL d   1      30.530 -13.976  11.753  0.00  0.00     0.010 C 
ATOM     36  C   UNL d   1      30.636 -15.454  12.114  0.00  0.00     0.015 C 
ATOM     37  C   UNL d   1      31.883 -13.275  11.885  0.00  0.00     0.015 C 
ENDBRANCH  32  35
ENDBRANCH  26  29
ENDBRANCH  22  25
ENDBRANCH   1  21
TORSDOF 10
ENDMDL
MODEL 9
REMARK VINA RESULT:    -6.011      1.592      3.421
REMARK INTER + INTRA:         -12.965
REMARK INTER:                  -8.994
REMARK INTRA:                  -3.970
REMARK CONF_INDEPENDENT:        2.983
REMARK UNBOUND:                -3.970
REMARK  10 active torsions:
REMARK  status: ('A' for Active; 'I' for Inactive)
REMARK    1  A    between atoms: C_2  and  C_4 
REMARK    2  A    between atoms: C_7  and  N_8 
REMARK       I    between atoms: N_8  and  C_9 
REMARK    3  A    between atoms: C_9  and  C_11 
REMARK       I    between atoms: C_11  and  N_13 
REMARK    4  A    between atoms: N_13  and  N_14 
REMARK    5  A    between atoms: C_15  and  C_16 
REMARK    6  A    between atoms: C_19  and  O_20 
REMARK    7  A    between atoms: O_20  and  C_21 
REMARK    8  A    between atoms: C_21  and  C_22 
REMARK       I    between atoms: C_22  and  N_24 
REMARK    9  A    between atoms: N_24  and  C_25 
REMARK   10  A    between atoms: C_25  and  C_26 
ROOT
ATOM      1  N   UNL d   1      28.786 -15.070   0.487  0.00  0.00    -0.183 NA
ATOM      2  C   UNL d   1      29.126 -16.297   0.230  0.00  0.00     0.150 C 
ENDROOT
BRANCH   2   3
ATOM      3  C   UNL d   1      29.501 -16.707  -1.158  0.00  0.00    -0.017 A 
ATOM      4  C   UNL d   1      28.957 -16.070  -2.278  0.00  0.00     0.015 A 
ATOM      5  C   UNL d   1      29.324 -16.492  -3.574  0.00  0.00     0.037 A 
ATOM      6  C   UNL d   1      30.268 -17.512  -3.768  0.00  0.00     0.069 A 
ATOM      7  C   UNL d   1      30.780 -18.159  -2.645  0.00  0.00     0.037 A 
ATOM      8  C   UNL d   1      30.401 -17.759  -1.351  0.00  0.00     0.015 A 
BRANCH   6   9
ATOM      9  O   UNL d   1      30.618 -17.775  -5.067  0.00  0.00    -0.342 OA
BRANCH   9  10
ATOM     10  C   UNL d   1      31.612 -16.953  -5.697  0.00  0.00     0.278 C 
BRANCH  10  11
ATOM     11  C   UNL d   1      30.999 -15.633  -6.227  0.00  0.00     0.241 C 
ATOM     12  O   UNL d   1      31.685 -14.688  -6.614  0.00  0.00    -0.271 OA
ATOM     13  N   UNL d   1      29.610 -15.574  -6.254  0.00  0.00    -0.357 N 
ATOM     14  H   UNL d   1      29.059 -16.334  -5.875  0.00  0.00     0.162 HD
BRANCH  13  15
ATOM     15  C   UNL d   1      28.931 -14.345  -6.675  0.00  0.00     0.154 C 
BRANCH  15  16
ATOM     16  C   UNL d   1      27.492 -14.198  -6.145  0.00  0.00     0.139 C 
ATOM     17  C   UNL d   1      27.350 -13.176  -5.027  0.00  0.00     0.035 C 
ATOM     18  C   UNL d   1      26.172 -13.700  -4.241  0.00  0.00     0.029 C 
ATOM     19  C   UNL d   1      26.316 -15.200  -4.379  0.00  0.00     0.168 C 
ATOM     20  O   UNL d   1      27.014 -15.449  -5.607  0.00  0.00    -0.384 OA
ENDBRANCH  15  16
ENDBRANCH  13  15
ENDBRANCH  10  11
ENDBRANCH   9  10
ENDBRANCH   6   9
ENDBRANCH   2   3
BRANCH   1  21
ATOM     21  N   UNL d   1      28.433 -14.730   1.777  0.00  0.00    -0.239 N 
ATOM     22  C   UNL d   1      29.424 -14.450   2.731  0.00  0.00     0.329 C 
ATOM     23  O   UNL d   1      30.644 -14.462   2.566  0.00  0.00    -0.261 OA
ATOM     24  H   UNL d   1      27.453 -14.673   2.058  0.00  0.00     0.192 HD
BRANCH  22  25
ATOM     25  C   UNL d   1      28.866 -14.094   4.125  0.00  0.00     0.315 C 
ATOM     26  N   UNL d   1      29.808 -13.809   5.125  0.00  0.00    -0.319 N 
ATOM     27  H   UNL d   1      30.788 -13.891   4.861  0.00  0.00     0.169 HD
ATOM     28  O   UNL d   1      27.640 -14.104   4.228  0.00  0.00    -0.262 OA
BRANCH  26  29
ATOM     29  C   UNL d   1      29.507 -13.528   6.491  0.00  0.00     0.035 A 
ATOM     30  C   UNL d   1      28.680 -12.450   6.838  0.00  0.00     0.030 A 
ATOM     31  C   UNL d   1      28.499 -12.094   8.190  0.00  0.00     0.010 A 
ATOM     32  C   UNL d   1      29.059 -12.860   9.223  0.00  0.00    -0.055 A 
ATOM     33  C   UNL d   1      29.841 -13.956   8.875  0.00  0.00     0.010 A 
ATOM     34  C   UNL d   1      30.053 -14.280   7.534  0.00  0.00     0.030 A 
BRANCH  32  35
ATOM     35  C   UNL d   1      28.828 -12.544  10.688  0.00  0.00     0.010 C 
ATOM     36  C   UNL d   1      27.781 -13.484  11.278  0.00  0.00     0.015 C 
ATOM     37  C   UNL d   1      30.138 -12.610  11.475  0.00  0.00     0.015 C 
ENDBRANCH  32  35
ENDBRANCH  26  29
ENDBRANCH  22  25
ENDBRANCH   1  21
TORSDOF 10
ENDMDL
