MODEL 1
REMARK VINA RESULT:    -8.348      0.000      0.000
REMARK INTER + INTRA:         -11.162
REMARK INTER:                  -9.840
REMARK INTRA:                  -1.322
REMARK CONF_INDEPENDENT:        1.492
REMARK UNBOUND:                -1.322
REMARK  5 active torsions:
REMARK  status: ('A' for Active; 'I' for Inactive)
REMARK    1  A    between atoms: S_2  and  C_3 
REMARK    2  A    between atoms: C_8  and  N_9 
REMARK       I    between atoms: N_9  and  C_10 
REMARK    3  A    between atoms: C_10  and  C_12 
REMARK    4  A    between atoms: C_12  and  N_14 
REMARK       I    between atoms: N_14  and  C_15 
REMARK    5  A    between atoms: C_15  and  C_17 
ROOT
ATOM      1  C   UNL d   1      27.486 -14.872   0.355  0.00  0.00     0.173 C 
ATOM      2  C   UNL d   1      28.551 -15.954   0.471  0.00  0.00     0.042 C 
ENDROOT
BRANCH   1   3
ATOM      3  C   UNL d   1      27.409 -14.181   1.723  0.00  0.00     0.244 C 
ATOM      4  N   UNL d   1      28.314 -14.524   2.716  0.00  0.00    -0.324 N 
ATOM      5  H   UNL d   1      28.868 -15.365   2.566  0.00  0.00     0.169 HD
ATOM      6  O   UNL d   1      26.447 -13.421   1.857  0.00  0.00    -0.271 OA
BRANCH   4   7
ATOM      7  C   UNL d   1      28.391 -13.953   4.039  0.00  0.00     0.051 C 
ATOM      8  C   UNL d   1      28.818 -14.823   5.081  0.00  0.00     0.031 C 
ATOM      9  C   UNL d   1      28.910 -14.389   6.418  0.00  0.00     0.002 C 
ATOM     10  C   UNL d   1      28.543 -13.097   6.755  0.00  0.00     0.002 C 
ATOM     11  C   UNL d   1      28.085 -12.247   5.764  0.00  0.00     0.021 C 
ATOM     12  C   UNL d   1      28.078 -12.616   4.407  0.00  0.00     0.026 C 
BRANCH  12  13
ATOM     13  S   UNL d   1      27.696 -11.162   3.421  0.00  0.00    -0.132 SA
ATOM     14  C   UNL d   1      27.784  -9.868   4.674  0.00  0.00     0.095 C 
ENDBRANCH  12  13
ENDBRANCH   4   7
ENDBRANCH   1   3
BRANCH   1  15
ATOM     15  N   UNL d   1      26.132 -15.451   0.138  0.00  0.00    -0.344 N 
ATOM     16  C   UNL d   1      25.916 -16.671  -0.451  0.00  0.00     0.252 C 
ATOM     17  O   UNL d   1      26.818 -17.344  -0.940  0.00  0.00    -0.268 OA
ATOM     18  H   UNL d   1      25.382 -14.985   0.651  0.00  0.00     0.163 HD
BRANCH  16  19
ATOM     19  C   UNL d   1      24.530 -17.216  -0.465  0.00  0.00     0.032 A 
ATOM     20  C   UNL d   1      24.374 -18.606  -0.340  0.00  0.00     0.018 A 
ATOM     21  C   UNL d   1      23.123 -19.203  -0.520  0.00  0.00     0.025 A 
ATOM     22  C   UNL d   1      22.011 -18.405  -0.772  0.00  0.00     0.034 A 
ATOM     23 CL   UNL d   1      20.455 -19.129  -0.904  0.00  0.00    -0.084 Cl
ATOM     24  C   UNL d   1      22.150 -17.019  -0.895  0.00  0.00     0.025 A 
ATOM     25  C   UNL d   1      23.413 -16.421  -0.743  0.00  0.00     0.018 A 
ENDBRANCH  16  19
ENDBRANCH   1  15
TORSDOF 5
ENDMDL
MODEL 2
REMARK VINA RESULT:    -7.803      3.865      6.544
REMARK INTER + INTRA:         -11.312
REMARK INTER:                  -9.294
REMARK INTRA:                  -2.017
REMARK CONF_INDEPENDENT:        1.492
REMARK UNBOUND:                -2.017
REMARK  5 active torsions:
REMARK  status: ('A' for Active; 'I' for Inactive)
REMARK    1  A    between atoms: S_2  and  C_3 
REMARK    2  A    between atoms: C_8  and  N_9 
REMARK       I    between atoms: N_9  and  C_10 
REMARK    3  A    between atoms: C_10  and  C_12 
REMARK    4  A    between atoms: C_12  and  N_14 
REMARK       I    between atoms: N_14  and  C_15 
REMARK    5  A    between atoms: C_15  and  C_17 
ROOT
ATOM      1  C   UNL d   1      28.080 -16.771   0.043  0.00  0.00     0.173 C 
ATOM      2  C   UNL d   1      28.075 -15.356   0.607  0.00  0.00     0.042 C 
ENDROOT
BRANCH   1   3
ATOM      3  C   UNL d   1      28.536 -16.660  -1.418  0.00  0.00     0.244 C 
ATOM      4  N   UNL d   1      27.840 -15.841  -2.293  0.00  0.00    -0.324 N 
ATOM      5  H   UNL d   1      26.933 -15.499  -1.984  0.00  0.00     0.169 HD
ATOM      6  O   UNL d   1      29.461 -17.419  -1.723  0.00  0.00    -0.271 OA
BRANCH   4   7
ATOM      7  C   UNL d   1      28.153 -15.610  -3.683  0.00  0.00     0.051 C 
ATOM      8  C   UNL d   1      29.472 -15.948  -4.099  0.00  0.00     0.031 C 
ATOM      9  C   UNL d   1      29.905 -15.746  -5.425  0.00  0.00     0.002 C 
ATOM     10  C   UNL d   1      29.054 -15.171  -6.353  0.00  0.00     0.002 C 
ATOM     11  C   UNL d   1      27.782 -14.797  -5.959  0.00  0.00     0.021 C 
ATOM     12  C   UNL d   1      27.285 -15.076  -4.673  0.00  0.00     0.026 C 
BRANCH  12  13
ATOM     13  S   UNL d   1      25.526 -14.702  -4.646  0.00  0.00    -0.132 SA
ATOM     14  C   UNL d   1      25.421 -13.665  -3.175  0.00  0.00     0.095 C 
ENDBRANCH  12  13
ENDBRANCH   4   7
ENDBRANCH   1   3
BRANCH   1  15
ATOM     15  N   UNL d   1      26.708 -17.344  -0.022  0.00  0.00    -0.344 N 
ATOM     16  C   UNL d   1      25.609 -16.631  -0.427  0.00  0.00     0.252 C 
ATOM     17  O   UNL d   1      25.647 -15.430  -0.675  0.00  0.00    -0.268 OA
ATOM     18  H   UNL d   1      26.668 -18.362   0.045  0.00  0.00     0.163 HD
BRANCH  16  19
ATOM     19  C   UNL d   1      24.320 -17.356  -0.607  0.00  0.00     0.032 A 
ATOM     20  C   UNL d   1      23.176 -16.593  -0.888  0.00  0.00     0.018 A 
ATOM     21  C   UNL d   1      21.908 -17.184  -0.895  0.00  0.00     0.025 A 
ATOM     22  C   UNL d   1      21.788 -18.553  -0.674  0.00  0.00     0.034 A 
ATOM     23 CL   UNL d   1      20.239 -19.298  -0.773  0.00  0.00    -0.084 Cl
ATOM     24  C   UNL d   1      22.919 -19.325  -0.398  0.00  0.00     0.025 A 
ATOM     25  C   UNL d   1      24.190 -18.728  -0.361  0.00  0.00     0.018 A 
ENDBRANCH  16  19
ENDBRANCH   1  15
TORSDOF 5
ENDMDL
MODEL 3
REMARK VINA RESULT:    -7.533      1.136      2.045
REMARK INTER + INTRA:         -10.593
REMARK INTER:                  -9.025
REMARK INTRA:                  -1.568
REMARK CONF_INDEPENDENT:        1.492
REMARK UNBOUND:                -1.568
REMARK  5 active torsions:
REMARK  status: ('A' for Active; 'I' for Inactive)
REMARK    1  A    between atoms: S_2  and  C_3 
REMARK    2  A    between atoms: C_8  and  N_9 
REMARK       I    between atoms: N_9  and  C_10 
REMARK    3  A    between atoms: C_10  and  C_12 
REMARK    4  A    between atoms: C_12  and  N_14 
REMARK       I    between atoms: N_14  and  C_15 
REMARK    5  A    between atoms: C_15  and  C_17 
ROOT
ATOM      1  C   UNL d   1      27.147 -14.845   0.142  0.00  0.00     0.173 C 
ATOM      2  C   UNL d   1      28.195 -15.861   0.577  0.00  0.00     0.042 C 
ENDROOT
BRANCH   1   3
ATOM      3  C   UNL d   1      26.989 -13.853   1.301  0.00  0.00     0.244 C 
ATOM      4  N   UNL d   1      27.965 -13.784   2.283  0.00  0.00    -0.324 N 
ATOM      5  H   UNL d   1      28.651 -14.535   2.306  0.00  0.00     0.169 HD
ATOM      6  O   UNL d   1      25.913 -13.247   1.311  0.00  0.00    -0.271 OA
BRANCH   4   7
ATOM      7  C   UNL d   1      27.977 -12.893   3.418  0.00  0.00     0.051 C 
ATOM      8  C   UNL d   1      27.717 -11.520   3.147  0.00  0.00     0.031 C 
ATOM      9  C   UNL d   1      27.725 -10.548   4.168  0.00  0.00     0.002 C 
ATOM     10  C   UNL d   1      28.028 -10.912   5.470  0.00  0.00     0.002 C 
ATOM     11  C   UNL d   1      28.324 -12.235   5.747  0.00  0.00     0.021 C 
ATOM     12  C   UNL d   1      28.226 -13.243   4.772  0.00  0.00     0.026 C 
BRANCH  12  13
ATOM     13  S   UNL d   1      28.403 -14.839   5.581  0.00  0.00    -0.132 SA
ATOM     14  C   UNL d   1      29.207 -14.354   7.121  0.00  0.00     0.095 C 
ENDBRANCH  12  13
ENDBRANCH   4   7
ENDBRANCH   1   3
BRANCH   1  15
ATOM     15  N   UNL d   1      25.806 -15.471  -0.018  0.00  0.00    -0.344 N 
ATOM     16  C   UNL d   1      25.607 -16.699  -0.594  0.00  0.00     0.252 C 
ATOM     17  O   UNL d   1      26.510 -17.344  -1.117  0.00  0.00    -0.268 OA
ATOM     18  H   UNL d   1      25.062 -15.027   0.524  0.00  0.00     0.163 HD
BRANCH  16  19
ATOM     19  C   UNL d   1      24.241 -17.291  -0.549  0.00  0.00     0.032 A 
ATOM     20  C   UNL d   1      24.137 -18.683  -0.397  0.00  0.00     0.018 A 
ATOM     21  C   UNL d   1      22.901 -19.324  -0.523  0.00  0.00     0.025 A 
ATOM     22  C   UNL d   1      21.755 -18.567  -0.748  0.00  0.00     0.034 A 
ATOM     23 CL   UNL d   1      20.220 -19.345  -0.812  0.00  0.00    -0.084 Cl
ATOM     24  C   UNL d   1      21.842 -17.181  -0.896  0.00  0.00     0.025 A 
ATOM     25  C   UNL d   1      23.088 -16.538  -0.799  0.00  0.00     0.018 A 
ENDBRANCH  16  19
ENDBRANCH   1  15
TORSDOF 5
ENDMDL
MODEL 4
REMARK VINA RESULT:    -7.352      5.883      8.178
REMARK INTER + INTRA:         -10.657
REMARK INTER:                  -8.844
REMARK INTRA:                  -1.814
REMARK CONF_INDEPENDENT:        1.492
REMARK UNBOUND:                -1.814
REMARK  5 active torsions:
REMARK  status: ('A' for Active; 'I' for Inactive)
REMARK    1  A    between atoms: S_2  and  C_3 
REMARK    2  A    between atoms: C_8  and  N_9 
REMARK       I    between atoms: N_9  and  C_10 
REMARK    3  A    between atoms: C_10  and  C_12 
REMARK    4  A    between atoms: C_12  and  N_14 
REMARK       I    between atoms: N_14  and  C_15 
REMARK    5  A    between atoms: C_15  and  C_17 
ROOT
ATOM      1  C   UNL d   1      25.722 -13.276  -3.939  0.00  0.00     0.173 C 
ATOM      2  C   UNL d   1      25.538 -11.821  -3.527  0.00  0.00     0.042 C 
ENDROOT
BRANCH   1   3
ATOM      3  C   UNL d   1      25.834 -14.089  -2.642  0.00  0.00     0.244 C 
ATOM      4  N   UNL d   1      25.676 -15.466  -2.681  0.00  0.00    -0.324 N 
ATOM      5  H   UNL d   1      25.293 -15.863  -3.535  0.00  0.00     0.169 HD
ATOM      6  O   UNL d   1      25.961 -13.406  -1.622  0.00  0.00    -0.271 OA
BRANCH   4   7
ATOM      7  C   UNL d   1      25.776 -16.370  -1.561  0.00  0.00     0.051 C 
ATOM      8  C   UNL d   1      27.090 -16.728  -1.151  0.00  0.00     0.031 C 
ATOM      9  C   UNL d   1      27.317 -17.622  -0.085  0.00  0.00     0.002 C 
ATOM     10  C   UNL d   1      26.246 -18.208   0.569  0.00  0.00     0.002 C 
ATOM     11  C   UNL d   1      24.960 -17.906   0.159  0.00  0.00     0.021 C 
ATOM     12  C   UNL d   1      24.698 -16.942  -0.832  0.00  0.00     0.026 C 
BRANCH  12  13
ATOM     13  S   UNL d   1      22.928 -16.630  -0.872  0.00  0.00    -0.132 SA
ATOM     14  C   UNL d   1      22.282 -18.289  -0.579  0.00  0.00     0.095 C 
ENDBRANCH  12  13
ENDBRANCH   4   7
ENDBRANCH   1   3
BRANCH   1  15
ATOM     15  N   UNL d   1      27.017 -13.490  -4.642  0.00  0.00    -0.344 N 
ATOM     16  C   UNL d   1      27.346 -14.656  -5.283  0.00  0.00     0.252 C 
ATOM     17  O   UNL d   1      26.640 -15.659  -5.246  0.00  0.00    -0.268 OA
ATOM     18  H   UNL d   1      27.558 -12.639  -4.806  0.00  0.00     0.163 HD
BRANCH  16  19
ATOM     19  C   UNL d   1      28.598 -14.694  -6.089  0.00  0.00     0.032 A 
ATOM     20  C   UNL d   1      29.308 -15.904  -6.136  0.00  0.00     0.018 A 
ATOM     21  C   UNL d   1      30.575 -15.966  -6.723  0.00  0.00     0.025 A 
ATOM     22  C   UNL d   1      31.113 -14.827  -7.315  0.00  0.00     0.034 A 
ATOM     23 CL   UNL d   1      32.633 -14.922  -8.119  0.00  0.00    -0.084 Cl
ATOM     24  C   UNL d   1      30.416 -13.616  -7.280  0.00  0.00     0.025 A 
ATOM     25  C   UNL d   1      29.155 -13.546  -6.664  0.00  0.00     0.018 A 
ENDBRANCH  16  19
ENDBRANCH   1  15
TORSDOF 5
ENDMDL
MODEL 5
REMARK VINA RESULT:    -7.337      5.801      8.080
REMARK INTER + INTRA:         -10.548
REMARK INTER:                  -8.829
REMARK INTRA:                  -1.719
REMARK CONF_INDEPENDENT:        1.492
REMARK UNBOUND:                -1.719
REMARK  5 active torsions:
REMARK  status: ('A' for Active; 'I' for Inactive)
REMARK    1  A    between atoms: S_2  and  C_3 
REMARK    2  A    between atoms: C_8  and  N_9 
REMARK       I    between atoms: N_9  and  C_10 
REMARK    3  A    between atoms: C_10  and  C_12 
REMARK    4  A    between atoms: C_12  and  N_14 
REMARK       I    between atoms: N_14  and  C_15 
REMARK    5  A    between atoms: C_15  and  C_17 
ROOT
ATOM      1  C   UNL d   1      25.593 -13.141  -4.327  0.00  0.00     0.173 C 
ATOM      2  C   UNL d   1      25.639 -11.797  -3.612  0.00  0.00     0.042 C 
ENDROOT
BRANCH   1   3
ATOM      3  C   UNL d   1      25.030 -14.155  -3.322  0.00  0.00     0.244 C 
ATOM      4  N   UNL d   1      25.864 -15.125  -2.788  0.00  0.00    -0.324 N 
ATOM      5  H   UNL d   1      26.768 -15.254  -3.235  0.00  0.00     0.169 HD
ATOM      6  O   UNL d   1      23.811 -14.075  -3.145  0.00  0.00    -0.271 OA
BRANCH   4   7
ATOM      7  C   UNL d   1      25.497 -16.129  -1.818  0.00  0.00     0.051 C 
ATOM      8  C   UNL d   1      24.104 -16.363  -1.645  0.00  0.00     0.031 C 
ATOM      9  C   UNL d   1      23.620 -17.302  -0.711  0.00  0.00     0.002 C 
ATOM     10  C   UNL d   1      24.506 -17.997   0.095  0.00  0.00     0.002 C 
ATOM     11  C   UNL d   1      25.862 -17.754  -0.027  0.00  0.00     0.021 C 
ATOM     12  C   UNL d   1      26.382 -16.901  -1.017  0.00  0.00     0.026 C 
BRANCH  12  13
ATOM     13  S   UNL d   1      28.171 -17.075  -1.039  0.00  0.00    -0.132 SA
ATOM     14  C   UNL d   1      28.672 -15.393  -1.452  0.00  0.00     0.095 C 
ENDBRANCH  12  13
ENDBRANCH   4   7
ENDBRANCH   1   3
BRANCH   1  15
ATOM     15  N   UNL d   1      26.957 -13.638  -4.655  0.00  0.00    -0.344 N 
ATOM     16  C   UNL d   1      27.199 -14.851  -5.246  0.00  0.00     0.252 C 
ATOM     17  O   UNL d   1      26.316 -15.674  -5.465  0.00  0.00    -0.268 OA
ATOM     18  H   UNL d   1      27.691 -12.928  -4.612  0.00  0.00     0.163 HD
BRANCH  16  19
ATOM     19  C   UNL d   1      28.590 -15.167  -5.674  0.00  0.00     0.032 A 
ATOM     20  C   UNL d   1      29.152 -14.386  -6.696  0.00  0.00     0.018 A 
ATOM     21  C   UNL d   1      30.380 -14.735  -7.267  0.00  0.00     0.025 A 
ATOM     22  C   UNL d   1      31.076 -15.836  -6.780  0.00  0.00     0.034 A 
ATOM     23 CL   UNL d   1      32.629 -16.213  -7.419  0.00  0.00    -0.084 Cl
ATOM     24  C   UNL d   1      30.532 -16.620  -5.759  0.00  0.00     0.025 A 
ATOM     25  C   UNL d   1      29.284 -16.289  -5.204  0.00  0.00     0.018 A 
ENDBRANCH  16  19
ENDBRANCH   1  15
TORSDOF 5
ENDMDL
MODEL 6
REMARK VINA RESULT:    -7.176      5.125      7.611
REMARK INTER + INTRA:         -10.399
REMARK INTER:                  -8.667
REMARK INTRA:                  -1.732
REMARK CONF_INDEPENDENT:        1.492
REMARK UNBOUND:                -1.732
REMARK  5 active torsions:
REMARK  status: ('A' for Active; 'I' for Inactive)
REMARK    1  A    between atoms: S_2  and  C_3 
REMARK    2  A    between atoms: C_8  and  N_9 
REMARK       I    between atoms: N_9  and  C_10 
REMARK    3  A    between atoms: C_10  and  C_12 
REMARK    4  A    between atoms: C_12  and  N_14 
REMARK       I    between atoms: N_14  and  C_15 
REMARK    5  A    between atoms: C_15  and  C_17 
ROOT
ATOM      1  C   UNL d   1      26.641 -14.593  -2.228  0.00  0.00     0.173 C 
ATOM      2  C   UNL d   1      26.686 -13.449  -1.224  0.00  0.00     0.042 C 
ENDROOT
BRANCH   1   3
ATOM      3  C   UNL d   1      26.374 -13.963  -3.601  0.00  0.00     0.244 C 
ATOM      4  N   UNL d   1      27.051 -12.810  -3.970  0.00  0.00    -0.324 N 
ATOM      5  H   UNL d   1      27.550 -12.313  -3.236  0.00  0.00     0.169 HD
ATOM      6  O   UNL d   1      25.470 -14.504  -4.244  0.00  0.00    -0.271 OA
BRANCH   4   7
ATOM      7  C   UNL d   1      26.931 -12.113  -5.227  0.00  0.00     0.051 C 
ATOM      8  C   UNL d   1      25.907 -11.129  -5.312  0.00  0.00     0.031 C 
ATOM      9  C   UNL d   1      25.676 -10.398  -6.495  0.00  0.00     0.002 C 
ATOM     10  C   UNL d   1      26.430 -10.656  -7.627  0.00  0.00     0.002 C 
ATOM     11  C   UNL d   1      27.403 -11.637  -7.580  0.00  0.00     0.021 C 
ATOM     12  C   UNL d   1      27.726 -12.312  -6.389  0.00  0.00     0.026 C 
BRANCH  12  13
ATOM     13  S   UNL d   1      29.215 -13.282  -6.668  0.00  0.00    -0.132 SA
ATOM     14  C   UNL d   1      28.579 -14.954  -6.442  0.00  0.00     0.095 C 
ENDBRANCH  12  13
ENDBRANCH   4   7
ENDBRANCH   1   3
BRANCH   1  15
ATOM     15  N   UNL d   1      25.483 -15.496  -1.985  0.00  0.00    -0.344 N 
ATOM     16  C   UNL d   1      25.475 -16.476  -1.026  0.00  0.00     0.252 C 
ATOM     17  O   UNL d   1      26.461 -16.758  -0.353  0.00  0.00    -0.268 OA
ATOM     18  H   UNL d   1      24.612 -15.199  -2.428  0.00  0.00     0.163 HD
BRANCH  16  19
ATOM     19  C   UNL d   1      24.202 -17.205  -0.767  0.00  0.00     0.032 A 
ATOM     20  C   UNL d   1      24.277 -18.586  -0.533  0.00  0.00     0.018 A 
ATOM     21  C   UNL d   1      23.116 -19.361  -0.457  0.00  0.00     0.025 A 
ATOM     22  C   UNL d   1      21.872 -18.746  -0.561  0.00  0.00     0.034 A 
ATOM     23 CL   UNL d   1      20.440 -19.684  -0.378  0.00  0.00    -0.084 Cl
ATOM     24  C   UNL d   1      21.782 -17.371  -0.789  0.00  0.00     0.025 A 
ATOM     25  C   UNL d   1      22.949 -16.595  -0.895  0.00  0.00     0.018 A 
ENDBRANCH  16  19
ENDBRANCH   1  15
TORSDOF 5
ENDMDL
MODEL 7
REMARK VINA RESULT:    -7.153      3.541      7.554
REMARK INTER + INTRA:         -10.609
REMARK INTER:                  -8.645
REMARK INTRA:                  -1.965
REMARK CONF_INDEPENDENT:        1.492
REMARK UNBOUND:                -1.965
REMARK  5 active torsions:
REMARK  status: ('A' for Active; 'I' for Inactive)
REMARK    1  A    between atoms: S_2  and  C_3 
REMARK    2  A    between atoms: C_8  and  N_9 
REMARK       I    between atoms: N_9  and  C_10 
REMARK    3  A    between atoms: C_10  and  C_12 
REMARK    4  A    between atoms: C_12  and  N_14 
REMARK       I    between atoms: N_14  and  C_15 
REMARK    5  A    between atoms: C_15  and  C_17 
ROOT
ATOM      1  C   UNL d   1      29.570 -15.602  -0.307  0.00  0.00     0.173 C 
ATOM      2  C   UNL d   1      29.357 -14.413  -1.233  0.00  0.00     0.042 C 
ENDROOT
BRANCH   1   3
ATOM      3  C   UNL d   1      28.336 -16.502  -0.454  0.00  0.00     0.244 C 
ATOM      4  N   UNL d   1      27.071 -15.935  -0.457  0.00  0.00    -0.324 N 
ATOM      5  H   UNL d   1      26.999 -14.965  -0.159  0.00  0.00     0.169 HD
ATOM      6  O   UNL d   1      28.584 -17.711  -0.457  0.00  0.00    -0.271 OA
BRANCH   4   7
ATOM      7  C   UNL d   1      25.819 -16.636  -0.610  0.00  0.00     0.051 C 
ATOM      8  C   UNL d   1      25.612 -17.756   0.243  0.00  0.00     0.031 C 
ATOM      9  C   UNL d   1      24.440 -18.536   0.172  0.00  0.00     0.002 C 
ATOM     10  C   UNL d   1      23.469 -18.244  -0.772  0.00  0.00     0.002 C 
ATOM     11  C   UNL d   1      23.669 -17.184  -1.639  0.00  0.00     0.021 C 
ATOM     12  C   UNL d   1      24.778 -16.327  -1.527  0.00  0.00     0.026 C 
BRANCH  12  13
ATOM     13  S   UNL d   1      24.530 -14.926  -2.627  0.00  0.00    -0.132 SA
ATOM     14  C   UNL d   1      25.905 -15.146  -3.773  0.00  0.00     0.095 C 
ENDBRANCH  12  13
ENDBRANCH   4   7
ENDBRANCH   1   3
BRANCH   1  15
ATOM     15  N   UNL d   1      29.581 -15.192   1.124  0.00  0.00    -0.344 N 
ATOM     16  C   UNL d   1      28.660 -14.337   1.673  0.00  0.00     0.252 C 
ATOM     17  O   UNL d   1      27.806 -13.760   1.008  0.00  0.00    -0.268 OA
ATOM     18  H   UNL d   1      30.187 -15.754   1.724  0.00  0.00     0.163 HD
BRANCH  16  19
ATOM     19  C   UNL d   1      28.676 -14.130   3.148  0.00  0.00     0.032 A 
ATOM     20  C   UNL d   1      29.916 -14.191   3.803  0.00  0.00     0.018 A 
ATOM     21  C   UNL d   1      29.987 -14.182   5.199  0.00  0.00     0.025 A 
ATOM     22  C   UNL d   1      28.819 -14.056   5.945  0.00  0.00     0.034 A 
ATOM     23 CL   UNL d   1      28.912 -13.954   7.661  0.00  0.00    -0.084 Cl
ATOM     24  C   UNL d   1      27.578 -13.989   5.307  0.00  0.00     0.025 A 
ATOM     25  C   UNL d   1      27.502 -14.029   3.904  0.00  0.00     0.018 A 
ENDBRANCH  16  19
ENDBRANCH   1  15
TORSDOF 5
ENDMDL
MODEL 8
REMARK VINA RESULT:    -6.988      6.701      8.722
REMARK INTER + INTRA:         -10.413
REMARK INTER:                  -8.480
REMARK INTRA:                  -1.934
REMARK CONF_INDEPENDENT:        1.492
REMARK UNBOUND:                -1.934
REMARK  5 active torsions:
REMARK  status: ('A' for Active; 'I' for Inactive)
REMARK    1  A    between atoms: S_2  and  C_3 
REMARK    2  A    between atoms: C_8  and  N_9 
REMARK       I    between atoms: N_9  and  C_10 
REMARK    3  A    between atoms: C_10  and  C_12 
REMARK    4  A    between atoms: C_12  and  N_14 
REMARK       I    between atoms: N_14  and  C_15 
REMARK    5  A    between atoms: C_15  and  C_17 
ROOT
ATOM      1  C   UNL d   1      28.725 -14.424  -6.092  0.00  0.00     0.173 C 
ATOM      2  C   UNL d   1      29.598 -13.528  -5.224  0.00  0.00     0.042 C 
ENDROOT
BRANCH   1   3
ATOM      3  C   UNL d   1      27.629 -14.989  -5.179  0.00  0.00     0.244 C 
ATOM      4  N   UNL d   1      27.855 -15.083  -3.814  0.00  0.00    -0.324 N 
ATOM      5  H   UNL d   1      28.813 -14.962  -3.495  0.00  0.00     0.169 HD
ATOM      6  O   UNL d   1      26.639 -15.420  -5.777  0.00  0.00    -0.271 OA
BRANCH   4   7
ATOM      7  C   UNL d   1      26.923 -15.566  -2.824  0.00  0.00     0.051 C 
ATOM      8  C   UNL d   1      27.447 -16.444  -1.835  0.00  0.00     0.031 C 
ATOM      9  C   UNL d   1      26.631 -17.000  -0.829  0.00  0.00     0.002 C 
ATOM     10  C   UNL d   1      25.274 -16.727  -0.807  0.00  0.00     0.002 C 
ATOM     11  C   UNL d   1      24.736 -15.908  -1.784  0.00  0.00     0.021 C 
ATOM     12  C   UNL d   1      25.538 -15.258  -2.739  0.00  0.00     0.026 C 
BRANCH  12  13
ATOM     13  S   UNL d   1      24.518 -14.075  -3.631  0.00  0.00    -0.132 SA
ATOM     14  C   UNL d   1      25.596 -12.629  -3.632  0.00  0.00     0.095 C 
ENDBRANCH  12  13
ENDBRANCH   4   7
ENDBRANCH   1   3
BRANCH   1  15
ATOM     15  N   UNL d   1      29.472 -15.615  -6.582  0.00  0.00    -0.344 N 
ATOM     16  C   UNL d   1      30.000 -16.571  -5.752  0.00  0.00     0.252 C 
ATOM     17  O   UNL d   1      29.987 -16.473  -4.529  0.00  0.00    -0.268 OA
ATOM     18  H   UNL d   1      29.382 -15.793  -7.583  0.00  0.00     0.163 HD
BRANCH  16  19
ATOM     19  C   UNL d   1      30.583 -17.798  -6.363  0.00  0.00     0.032 A 
ATOM     20  C   UNL d   1      31.154 -17.683  -7.640  0.00  0.00     0.018 A 
ATOM     21  C   UNL d   1      31.559 -18.820  -8.346  0.00  0.00     0.025 A 
ATOM     22  C   UNL d   1      31.444 -20.073  -7.753  0.00  0.00     0.034 A 
ATOM     23 CL   UNL d   1      32.025 -21.465  -8.583  0.00  0.00    -0.084 Cl
ATOM     24  C   UNL d   1      30.882 -20.203  -6.480  0.00  0.00     0.025 A 
ATOM     25  C   UNL d   1      30.446 -19.064  -5.782  0.00  0.00     0.018 A 
ENDBRANCH  16  19
ENDBRANCH   1  15
TORSDOF 5
ENDMDL
MODEL 9
REMARK VINA RESULT:    -6.973      3.917      5.933
REMARK INTER + INTRA:         -10.582
REMARK INTER:                  -8.465
REMARK INTRA:                  -2.117
REMARK CONF_INDEPENDENT:        1.492
REMARK UNBOUND:                -2.117
REMARK  5 active torsions:
REMARK  status: ('A' for Active; 'I' for Inactive)
REMARK    1  A    between atoms: S_2  and  C_3 
REMARK    2  A    between atoms: C_8  and  N_9 
REMARK       I    between atoms: N_9  and  C_10 
REMARK    3  A    between atoms: C_10  and  C_12 
REMARK    4  A    between atoms: C_12  and  N_14 
REMARK       I    between atoms: N_14  and  C_15 
REMARK    5  A    between atoms: C_15  and  C_17 
ROOT
ATOM      1  C   UNL d   1      28.177 -16.304  -0.837  0.00  0.00     0.173 C 
ATOM      2  C   UNL d   1      28.455 -15.606   0.488  0.00  0.00     0.042 C 
ENDROOT
BRANCH   1   3
ATOM      3  C   UNL d   1      28.012 -15.199  -1.889  0.00  0.00     0.244 C 
ATOM      4  N   UNL d   1      27.278 -14.064  -1.582  0.00  0.00    -0.324 N 
ATOM      5  H   UNL d   1      26.709 -14.095  -0.739  0.00  0.00     0.169 HD
ATOM      6  O   UNL d   1      28.483 -15.475  -2.996  0.00  0.00    -0.271 OA
BRANCH   4   7
ATOM      7  C   UNL d   1      27.052 -12.931  -2.447  0.00  0.00     0.051 C 
ATOM      8  C   UNL d   1      27.884 -11.796  -2.236  0.00  0.00     0.031 C 
ATOM      9  C   UNL d   1      27.744 -10.621  -3.001  0.00  0.00     0.002 C 
ATOM     10  C   UNL d   1      26.751 -10.534  -3.962  0.00  0.00     0.002 C 
ATOM     11  C   UNL d   1      25.903 -11.610  -4.155  0.00  0.00     0.021 C 
ATOM     12  C   UNL d   1      26.081 -12.832  -3.480  0.00  0.00     0.026 C 
BRANCH  12  13
ATOM     13  S   UNL d   1      24.978 -14.052  -4.207  0.00  0.00    -0.132 SA
ATOM     14  C   UNL d   1      26.165 -15.159  -4.993  0.00  0.00     0.095 C 
ENDBRANCH  12  13
ENDBRANCH   4   7
ENDBRANCH   1   3
BRANCH   1  15
ATOM     15  N   UNL d   1      26.873 -17.020  -0.819  0.00  0.00    -0.344 N 
ATOM     16  C   UNL d   1      25.684 -16.420  -0.494  0.00  0.00     0.252 C 
ATOM     17  O   UNL d   1      25.609 -15.263  -0.093  0.00  0.00    -0.268 OA
ATOM     18  H   UNL d   1      26.883 -17.934  -1.275  0.00  0.00     0.163 HD
BRANCH  16  19
ATOM     19  C   UNL d   1      24.425 -17.197  -0.671  0.00  0.00     0.032 A 
ATOM     20  C   UNL d   1      23.241 -16.479  -0.900  0.00  0.00     0.018 A 
ATOM     21  C   UNL d   1      22.002 -17.126  -0.900  0.00  0.00     0.025 A 
ATOM     22  C   UNL d   1      21.948 -18.506  -0.724  0.00  0.00     0.034 A 
ATOM     23 CL   UNL d   1      20.433 -19.317  -0.814  0.00  0.00    -0.084 Cl
ATOM     24  C   UNL d   1      23.119 -19.235  -0.501  0.00  0.00     0.025 A 
ATOM     25  C   UNL d   1      24.363 -18.581  -0.471  0.00  0.00     0.018 A 
ENDBRANCH  16  19
ENDBRANCH   1  15
TORSDOF 5
ENDMDL
