MODEL 1
REMARK VINA RESULT:    -8.461      0.000      0.000
REMARK INTER + INTRA:         -11.323
REMARK INTER:                 -10.250
REMARK INTRA:                  -1.073
REMARK CONF_INDEPENDENT:        1.790
REMARK UNBOUND:                -1.073
REMARK  6 active torsions:
REMARK  status: ('A' for Active; 'I' for Inactive)
REMARK       I    between atoms: C_2  and  N_3 
REMARK    1  A    between atoms: C_2  and  C_8 
REMARK    2  A    between atoms: N_3  and  C_4 
REMARK    3  A    between atoms: C_4  and  C_5 
REMARK    4  A    between atoms: C_5  and  C_6 
REMARK    5  A    between atoms: C_6  and  O_7 
REMARK    6  A    between atoms: C_10  and  C_11 
ROOT
ATOM      1  C   UNL d   1      21.923 -18.287  -0.996  0.00  0.00     0.264 A 
ATOM      2  N   UNL d   1      23.227 -18.405  -1.146  0.00  0.00    -0.195 NA
ATOM      3  C   UNL d   1      23.674 -17.105  -1.084  0.00  0.00     0.189 A 
ATOM      4  N   UNL d   1      22.695 -16.203  -0.893  0.00  0.00    -0.105 NA
ATOM      5  O   UNL d   1      21.525 -16.987  -0.858  0.00  0.00    -0.185 OA
ENDROOT
BRANCH   3   6
ATOM      6  C   UNL d   1      25.087 -16.779  -1.279  0.00  0.00     0.016 A 
ATOM      7  C   UNL d   1      25.440 -15.906  -2.317  0.00  0.00     0.016 A 
ATOM      8  C   UNL d   1      26.781 -15.593  -2.586  0.00  0.00     0.014 A 
ATOM      9  C   UNL d   1      27.795 -16.198  -1.823  0.00  0.00    -0.008 A 
ATOM     10  C   UNL d   1      29.214 -16.150  -1.870  0.00  0.00     0.030 A 
ATOM     11  C   UNL d   1      27.435 -17.063  -0.788  0.00  0.00     0.043 A 
ATOM     12  C   UNL d   1      29.692 -16.991  -0.893  0.00  0.00     0.089 A 
ATOM     13  N   UNL d   1      28.613 -17.512  -0.224  0.00  0.00    -0.365 N 
ATOM     14  H   UNL d   1      28.673 -18.157   0.552  0.00  0.00     0.165 HD
ATOM     15  C   UNL d   1      26.091 -17.358  -0.479  0.00  0.00     0.045 A 
ENDBRANCH   3   6
BRANCH   1  16
ATOM     16  C   UNL d   1      20.968 -19.388  -0.907  0.00  0.00     0.296 C 
ATOM     17  O   UNL d   1      20.224 -19.700  -1.843  0.00  0.00    -0.264 OA
ATOM     18  N   UNL d   1      20.867 -20.075   0.308  0.00  0.00    -0.354 N 
ATOM     19  H   UNL d   1      21.404 -19.758   1.106  0.00  0.00     0.162 HD
BRANCH  18  20
ATOM     20  C   UNL d   1      19.814 -21.072   0.496  0.00  0.00     0.125 C 
BRANCH  20  21
ATOM     21  C   UNL d   1      18.676 -20.587   1.388  0.00  0.00     0.046 C 
BRANCH  21  22
ATOM     22  C   UNL d   1      19.114 -20.451   2.844  0.00  0.00     0.165 C 
BRANCH  22  23
ATOM     23  O   UNL d   1      20.391 -19.828   2.910  0.00  0.00    -0.401 OA
ATOM     24  H   UNL d   1      21.061 -20.526   3.013  0.00  0.00     0.209 HD
ENDBRANCH  22  23
ENDBRANCH  21  22
ENDBRANCH  20  21
ENDBRANCH  18  20
ENDBRANCH   1  16
TORSDOF 6
ENDMDL
MODEL 2
REMARK VINA RESULT:    -8.087      1.587      1.738
REMARK INTER + INTRA:         -11.071
REMARK INTER:                  -9.877
REMARK INTRA:                  -1.194
REMARK CONF_INDEPENDENT:        1.790
REMARK UNBOUND:                -1.194
REMARK  6 active torsions:
REMARK  status: ('A' for Active; 'I' for Inactive)
REMARK       I    between atoms: C_2  and  N_3 
REMARK    1  A    between atoms: C_2  and  C_8 
REMARK    2  A    between atoms: N_3  and  C_4 
REMARK    3  A    between atoms: C_4  and  C_5 
REMARK    4  A    between atoms: C_5  and  C_6 
REMARK    5  A    between atoms: C_6  and  O_7 
REMARK    6  A    between atoms: C_10  and  C_11 
ROOT
ATOM      1  C   UNL d   1      22.661 -18.447  -0.483  0.00  0.00     0.264 A 
ATOM      2  N   UNL d   1      23.273 -17.303  -0.720  0.00  0.00    -0.195 NA
ATOM      3  C   UNL d   1      24.600 -17.601  -0.507  0.00  0.00     0.189 A 
ATOM      4  N   UNL d   1      24.819 -18.881  -0.158  0.00  0.00    -0.105 NA
ATOM      5  O   UNL d   1      23.527 -19.440  -0.118  0.00  0.00    -0.185 OA
ENDROOT
BRANCH   3   6
ATOM      6  C   UNL d   1      25.633 -16.570  -0.599  0.00  0.00     0.016 A 
ATOM      7  C   UNL d   1      25.493 -15.561  -1.563  0.00  0.00     0.016 A 
ATOM      8  C   UNL d   1      26.473 -14.572  -1.734  0.00  0.00     0.014 A 
ATOM      9  C   UNL d   1      27.639 -14.615  -0.950  0.00  0.00    -0.008 A 
ATOM     10  C   UNL d   1      28.821 -13.827  -0.910  0.00  0.00     0.030 A 
ATOM     11  C   UNL d   1      27.769 -15.619   0.011  0.00  0.00     0.043 A 
ATOM     12  C   UNL d   1      29.651 -14.368   0.043  0.00  0.00     0.089 A 
ATOM     13  N   UNL d   1      28.995 -15.429   0.616  0.00  0.00    -0.365 N 
ATOM     14  H   UNL d   1      29.371 -16.006   1.356  0.00  0.00     0.165 HD
ATOM     15  C   UNL d   1      26.776 -16.598   0.223  0.00  0.00     0.045 A 
ENDBRANCH   3   6
BRANCH   1  16
ATOM     16  C   UNL d   1      21.233 -18.703  -0.643  0.00  0.00     0.296 C 
ATOM     17  O   UNL d   1      20.488 -17.944  -1.270  0.00  0.00    -0.264 OA
ATOM     18  N   UNL d   1      20.692 -19.830  -0.014  0.00  0.00    -0.354 N 
ATOM     19  H   UNL d   1      21.281 -20.399   0.582  0.00  0.00     0.162 HD
BRANCH  18  20
ATOM     20  C   UNL d   1      19.245 -20.037  -0.009  0.00  0.00     0.125 C 
BRANCH  20  21
ATOM     21  C   UNL d   1      18.775 -20.990   1.086  0.00  0.00     0.046 C 
BRANCH  21  22
ATOM     22  C   UNL d   1      19.086 -20.451   2.480  0.00  0.00     0.165 C 
BRANCH  22  23
ATOM     23  O   UNL d   1      20.349 -19.796   2.476  0.00  0.00    -0.401 OA
ATOM     24  H   UNL d   1      21.028 -20.450   2.715  0.00  0.00     0.209 HD
ENDBRANCH  22  23
ENDBRANCH  21  22
ENDBRANCH  20  21
ENDBRANCH  18  20
ENDBRANCH   1  16
TORSDOF 6
ENDMDL
MODEL 3
REMARK VINA RESULT:    -7.907      1.814      2.743
REMARK INTER + INTRA:         -11.140
REMARK INTER:                  -9.697
REMARK INTRA:                  -1.444
REMARK CONF_INDEPENDENT:        1.790
REMARK UNBOUND:                -1.444
REMARK  6 active torsions:
REMARK  status: ('A' for Active; 'I' for Inactive)
REMARK       I    between atoms: C_2  and  N_3 
REMARK    1  A    between atoms: C_2  and  C_8 
REMARK    2  A    between atoms: N_3  and  C_4 
REMARK    3  A    between atoms: C_4  and  C_5 
REMARK    4  A    between atoms: C_5  and  C_6 
REMARK    5  A    between atoms: C_6  and  O_7 
REMARK    6  A    between atoms: C_10  and  C_11 
ROOT
ATOM      1  C   UNL d   1      22.249 -18.231  -0.451  0.00  0.00     0.264 A 
ATOM      2  N   UNL d   1      22.728 -17.316  -1.270  0.00  0.00    -0.195 NA
ATOM      3  C   UNL d   1      24.027 -17.154  -0.843  0.00  0.00     0.189 A 
ATOM      4  N   UNL d   1      24.358 -17.940   0.196  0.00  0.00    -0.105 NA
ATOM      5  O   UNL d   1      23.168 -18.641   0.474  0.00  0.00    -0.185 OA
ENDROOT
BRANCH   3   6
ATOM      6  C   UNL d   1      24.907 -16.158  -1.455  0.00  0.00     0.016 A 
ATOM      7  C   UNL d   1      26.249 -16.109  -1.055  0.00  0.00     0.016 A 
ATOM      8  C   UNL d   1      27.131 -15.146  -1.568  0.00  0.00     0.014 A 
ATOM      9  C   UNL d   1      26.648 -14.184  -2.472  0.00  0.00    -0.008 A 
ATOM     10  C   UNL d   1      27.241 -13.065  -3.118  0.00  0.00     0.030 A 
ATOM     11  C   UNL d   1      25.312 -14.242  -2.870  0.00  0.00     0.043 A 
ATOM     12  C   UNL d   1      26.266 -12.453  -3.869  0.00  0.00     0.089 A 
ATOM     13  N   UNL d   1      25.114 -13.188  -3.739  0.00  0.00    -0.365 N 
ATOM     14  H   UNL d   1      24.238 -12.970  -4.194  0.00  0.00     0.165 HD
ATOM     15  C   UNL d   1      24.422 -15.228  -2.394  0.00  0.00     0.045 A 
ENDBRANCH   3   6
BRANCH   1  16
ATOM     16  C   UNL d   1      20.919 -18.830  -0.519  0.00  0.00     0.296 C 
ATOM     17  O   UNL d   1      19.992 -18.316  -1.154  0.00  0.00    -0.264 OA
ATOM     18  N   UNL d   1      20.687 -20.002   0.208  0.00  0.00    -0.354 N 
ATOM     19  H   UNL d   1      21.416 -20.370   0.807  0.00  0.00     0.162 HD
BRANCH  18  20
ATOM     20  C   UNL d   1      19.333 -20.545   0.303  0.00  0.00     0.125 C 
BRANCH  20  21
ATOM     21  C   UNL d   1      18.769 -20.518   1.720  0.00  0.00     0.046 C 
BRANCH  21  22
ATOM     22  C   UNL d   1      19.875 -20.450   2.770  0.00  0.00     0.165 C 
BRANCH  22  23
ATOM     23  O   UNL d   1      20.652 -19.274   2.580  0.00  0.00    -0.401 OA
ATOM     24  H   UNL d   1      21.422 -19.507   2.033  0.00  0.00     0.209 HD
ENDBRANCH  22  23
ENDBRANCH  21  22
ENDBRANCH  20  21
ENDBRANCH  18  20
ENDBRANCH   1  16
TORSDOF 6
ENDMDL
MODEL 4
REMARK VINA RESULT:    -7.833      1.254      1.472
REMARK INTER + INTRA:         -11.044
REMARK INTER:                  -9.623
REMARK INTRA:                  -1.420
REMARK CONF_INDEPENDENT:        1.790
REMARK UNBOUND:                -1.420
REMARK  6 active torsions:
REMARK  status: ('A' for Active; 'I' for Inactive)
REMARK       I    between atoms: C_2  and  N_3 
REMARK    1  A    between atoms: C_2  and  C_8 
REMARK    2  A    between atoms: N_3  and  C_4 
REMARK    3  A    between atoms: C_4  and  C_5 
REMARK    4  A    between atoms: C_5  and  C_6 
REMARK    5  A    between atoms: C_6  and  O_7 
REMARK    6  A    between atoms: C_10  and  C_11 
ROOT
ATOM      1  C   UNL d   1      22.865 -18.272  -0.228  0.00  0.00     0.264 A 
ATOM      2  N   UNL d   1      23.770 -17.767  -1.042  0.00  0.00    -0.195 NA
ATOM      3  C   UNL d   1      24.918 -17.768  -0.281  0.00  0.00     0.189 A 
ATOM      4  N   UNL d   1      24.747 -18.260   0.958  0.00  0.00    -0.105 NA
ATOM      5  O   UNL d   1      23.375 -18.575   1.004  0.00  0.00    -0.185 OA
ENDROOT
BRANCH   3   6
ATOM      6  C   UNL d   1      26.169 -17.212  -0.797  0.00  0.00     0.016 A 
ATOM      7  C   UNL d   1      26.121 -16.363  -1.912  0.00  0.00     0.016 A 
ATOM      8  C   UNL d   1      27.289 -15.838  -2.482  0.00  0.00     0.014 A 
ATOM      9  C   UNL d   1      28.538 -16.201  -1.950  0.00  0.00    -0.008 A 
ATOM     10  C   UNL d   1      29.880 -15.907  -2.315  0.00  0.00     0.030 A 
ATOM     11  C   UNL d   1      28.579 -17.042  -0.837  0.00  0.00     0.043 A 
ATOM     12  C   UNL d   1      30.706 -16.581  -1.447  0.00  0.00     0.089 A 
ATOM     13  N   UNL d   1      29.913 -17.237  -0.539  0.00  0.00    -0.365 N 
ATOM     14  H   UNL d   1      30.258 -17.806   0.221  0.00  0.00     0.165 HD
ATOM     15  C   UNL d   1      27.412 -17.548  -0.227  0.00  0.00     0.045 A 
ENDBRANCH   3   6
BRANCH   1  16
ATOM     16  C   UNL d   1      21.475 -18.565  -0.569  0.00  0.00     0.296 C 
ATOM     17  O   UNL d   1      20.791 -17.812  -1.269  0.00  0.00    -0.264 OA
ATOM     18  N   UNL d   1      20.896 -19.719  -0.033  0.00  0.00    -0.354 N 
ATOM     19  H   UNL d   1      21.423 -20.285   0.621  0.00  0.00     0.162 HD
BRANCH  18  20
ATOM     20  C   UNL d   1      19.466 -19.967  -0.211  0.00  0.00     0.125 C 
BRANCH  20  21
ATOM     21  C   UNL d   1      18.745 -20.309   1.089  0.00  0.00     0.046 C 
BRANCH  21  22
ATOM     22  C   UNL d   1      19.717 -20.440   2.260  0.00  0.00     0.165 C 
BRANCH  22  23
ATOM     23  O   UNL d   1      20.541 -19.283   2.337  0.00  0.00    -0.401 OA
ATOM     24  H   UNL d   1      21.380 -19.481   1.887  0.00  0.00     0.209 HD
ENDBRANCH  22  23
ENDBRANCH  21  22
ENDBRANCH  20  21
ENDBRANCH  18  20
ENDBRANCH   1  16
TORSDOF 6
ENDMDL
MODEL 5
REMARK VINA RESULT:    -7.611      2.075      2.519
REMARK INTER + INTRA:         -10.753
REMARK INTER:                  -9.401
REMARK INTRA:                  -1.352
REMARK CONF_INDEPENDENT:        1.790
REMARK UNBOUND:                -1.352
REMARK  6 active torsions:
REMARK  status: ('A' for Active; 'I' for Inactive)
REMARK       I    between atoms: C_2  and  N_3 
REMARK    1  A    between atoms: C_2  and  C_8 
REMARK    2  A    between atoms: N_3  and  C_4 
REMARK    3  A    between atoms: C_4  and  C_5 
REMARK    4  A    between atoms: C_5  and  C_6 
REMARK    5  A    between atoms: C_6  and  O_7 
REMARK    6  A    between atoms: C_10  and  C_11 
ROOT
ATOM      1  C   UNL d   1      21.851 -18.938  -0.739  0.00  0.00     0.264 A 
ATOM      2  N   UNL d   1      22.715 -18.253  -0.016  0.00  0.00    -0.195 NA
ATOM      3  C   UNL d   1      23.766 -18.052  -0.882  0.00  0.00     0.189 A 
ATOM      4  N   UNL d   1      23.572 -18.580  -2.103  0.00  0.00    -0.105 NA
ATOM      5  O   UNL d   1      22.307 -19.191  -2.003  0.00  0.00    -0.185 OA
ENDROOT
BRANCH   3   6
ATOM      6  C   UNL d   1      24.989 -17.377  -0.445  0.00  0.00     0.016 A 
ATOM      7  C   UNL d   1      25.914 -18.092   0.329  0.00  0.00     0.016 A 
ATOM      8  C   UNL d   1      27.080 -17.486   0.819  0.00  0.00     0.014 A 
ATOM      9  C   UNL d   1      27.308 -16.123   0.562  0.00  0.00    -0.008 A 
ATOM     10  C   UNL d   1      28.327 -15.212   0.950  0.00  0.00     0.030 A 
ATOM     11  C   UNL d   1      26.385 -15.419  -0.213  0.00  0.00     0.043 A 
ATOM     12  C   UNL d   1      28.004 -13.980   0.433  0.00  0.00     0.089 A 
ATOM     13  N   UNL d   1      26.848 -14.121  -0.294  0.00  0.00    -0.365 N 
ATOM     14  H   UNL d   1      26.387 -13.372  -0.793  0.00  0.00     0.165 HD
ATOM     15  C   UNL d   1      25.227 -16.022  -0.746  0.00  0.00     0.045 A 
ENDBRANCH   3   6
BRANCH   1  16
ATOM     16  C   UNL d   1      20.515 -19.347  -0.317  0.00  0.00     0.296 C 
ATOM     17  O   UNL d   1      19.685 -19.817  -1.102  0.00  0.00    -0.264 OA
ATOM     18  N   UNL d   1      20.157 -19.146   1.021  0.00  0.00    -0.354 N 
ATOM     19  H   UNL d   1      20.799 -18.671   1.643  0.00  0.00     0.162 HD
BRANCH  18  20
ATOM     20  C   UNL d   1      18.780 -19.386   1.451  0.00  0.00     0.125 C 
BRANCH  20  21
ATOM     21  C   UNL d   1      18.506 -20.841   1.815  0.00  0.00     0.046 C 
BRANCH  21  22
ATOM     22  C   UNL d   1      18.053 -21.655   0.605  0.00  0.00     0.165 C 
BRANCH  22  23
ATOM     23  O   UNL d   1      17.320 -20.826  -0.289  0.00  0.00    -0.401 OA
ATOM     24  H   UNL d   1      17.957 -20.330  -0.831  0.00  0.00     0.209 HD
ENDBRANCH  22  23
ENDBRANCH  21  22
ENDBRANCH  20  21
ENDBRANCH  18  20
ENDBRANCH   1  16
TORSDOF 6
ENDMDL
MODEL 6
REMARK VINA RESULT:    -6.936      2.640      8.135
REMARK INTER + INTRA:         -10.080
REMARK INTER:                  -8.726
REMARK INTRA:                  -1.354
REMARK CONF_INDEPENDENT:        1.790
REMARK UNBOUND:                -1.354
REMARK  6 active torsions:
REMARK  status: ('A' for Active; 'I' for Inactive)
REMARK       I    between atoms: C_2  and  N_3 
REMARK    1  A    between atoms: C_2  and  C_8 
REMARK    2  A    between atoms: N_3  and  C_4 
REMARK    3  A    between atoms: C_4  and  C_5 
REMARK    4  A    between atoms: C_5  and  C_6 
REMARK    5  A    between atoms: C_6  and  O_7 
REMARK    6  A    between atoms: C_10  and  C_11 
ROOT
ATOM      1  C   UNL d   1      24.174 -16.696  -0.969  0.00  0.00     0.264 A 
ATOM      2  N   UNL d   1      22.948 -17.125  -1.194  0.00  0.00    -0.195 NA
ATOM      3  C   UNL d   1      22.744 -18.047  -0.191  0.00  0.00     0.189 A 
ATOM      4  N   UNL d   1      23.793 -18.187   0.637  0.00  0.00    -0.105 NA
ATOM      5  O   UNL d   1      24.756 -17.307   0.107  0.00  0.00    -0.185 OA
ENDROOT
BRANCH   3   6
ATOM      6  C   UNL d   1      21.507 -18.823  -0.116  0.00  0.00     0.016 A 
ATOM      7  C   UNL d   1      20.755 -19.007  -1.285  0.00  0.00     0.016 A 
ATOM      8  C   UNL d   1      19.535 -19.700  -1.268  0.00  0.00     0.014 A 
ATOM      9  C   UNL d   1      19.036 -20.185  -0.047  0.00  0.00    -0.008 A 
ATOM     10  C   UNL d   1      17.839 -20.858   0.322  0.00  0.00     0.030 A 
ATOM     11  C   UNL d   1      19.792 -20.003   1.112  0.00  0.00     0.043 A 
ATOM     12  C   UNL d   1      17.873 -21.051   1.683  0.00  0.00     0.089 A 
ATOM     13  N   UNL d   1      19.068 -20.560   2.146  0.00  0.00    -0.365 N 
ATOM     14  H   UNL d   1      19.362 -20.580   3.113  0.00  0.00     0.165 HD
ATOM     15  C   UNL d   1      21.039 -19.343   1.106  0.00  0.00     0.045 A 
ENDBRANCH   3   6
BRANCH   1  16
ATOM     16  C   UNL d   1      24.861 -15.640  -1.707  0.00  0.00     0.296 C 
ATOM     17  O   UNL d   1      24.284 -14.923  -2.531  0.00  0.00    -0.264 OA
ATOM     18  N   UNL d   1      26.235 -15.481  -1.502  0.00  0.00    -0.354 N 
ATOM     19  H   UNL d   1      26.729 -16.131  -0.903  0.00  0.00     0.162 HD
BRANCH  18  20
ATOM     20  C   UNL d   1      26.994 -14.550  -2.337  0.00  0.00     0.125 C 
BRANCH  20  21
ATOM     21  C   UNL d   1      27.253 -15.076  -3.745  0.00  0.00     0.046 C 
BRANCH  21  22
ATOM     22  C   UNL d   1      26.454 -14.305  -4.794  0.00  0.00     0.165 C 
BRANCH  22  23
ATOM     23  O   UNL d   1      25.129 -14.817  -4.866  0.00  0.00    -0.401 OA
ATOM     24  H   UNL d   1      24.527 -14.148  -4.496  0.00  0.00     0.209 HD
ENDBRANCH  22  23
ENDBRANCH  21  22
ENDBRANCH  20  21
ENDBRANCH  18  20
ENDBRANCH   1  16
TORSDOF 6
ENDMDL
MODEL 7
REMARK VINA RESULT:    -6.874      8.786     10.875
REMARK INTER + INTRA:          -9.685
REMARK INTER:                  -8.664
REMARK INTRA:                  -1.021
REMARK CONF_INDEPENDENT:        1.790
REMARK UNBOUND:                -1.021
REMARK  6 active torsions:
REMARK  status: ('A' for Active; 'I' for Inactive)
REMARK       I    between atoms: C_2  and  N_3 
REMARK    1  A    between atoms: C_2  and  C_8 
REMARK    2  A    between atoms: N_3  and  C_4 
REMARK    3  A    between atoms: C_4  and  C_5 
REMARK    4  A    between atoms: C_5  and  C_6 
REMARK    5  A    between atoms: C_6  and  O_7 
REMARK    6  A    between atoms: C_10  and  C_11 
ROOT
ATOM      1  C   UNL d   1      30.928 -21.926   1.969  0.00  0.00     0.264 A 
ATOM      2  N   UNL d   1      31.141 -22.772   0.980  0.00  0.00    -0.195 NA
ATOM      3  C   UNL d   1      29.873 -23.171   0.624  0.00  0.00     0.189 A 
ATOM      4  N   UNL d   1      28.899 -22.596   1.350  0.00  0.00    -0.105 NA
ATOM      5  O   UNL d   1      29.601 -21.784   2.263  0.00  0.00    -0.185 OA
ENDROOT
BRANCH   3   6
ATOM      6  C   UNL d   1      29.660 -24.181  -0.413  0.00  0.00     0.016 A 
ATOM      7  C   UNL d   1      29.655 -25.534  -0.045  0.00  0.00     0.016 A 
ATOM      8  C   UNL d   1      29.504 -26.551  -0.999  0.00  0.00     0.014 A 
ATOM      9  C   UNL d   1      29.397 -26.209  -2.358  0.00  0.00    -0.008 A 
ATOM     10  C   UNL d   1      29.296 -26.971  -3.554  0.00  0.00     0.030 A 
ATOM     11  C   UNL d   1      29.397 -24.860  -2.717  0.00  0.00     0.043 A 
ATOM     12  C   UNL d   1      29.261 -26.090  -4.608  0.00  0.00     0.089 A 
ATOM     13  N   UNL d   1      29.291 -24.818  -4.093  0.00  0.00    -0.365 N 
ATOM     14  H   UNL d   1      29.267 -23.973  -4.646  0.00  0.00     0.165 HD
ATOM     15  C   UNL d   1      29.508 -23.824  -1.766  0.00  0.00     0.045 A 
ENDBRANCH   3   6
BRANCH   1  16
ATOM     16  C   UNL d   1      31.948 -21.146   2.663  0.00  0.00     0.296 C 
ATOM     17  O   UNL d   1      32.700 -20.362   2.074  0.00  0.00    -0.264 OA
ATOM     18  N   UNL d   1      32.103 -21.341   4.040  0.00  0.00    -0.354 N 
ATOM     19  H   UNL d   1      31.556 -22.054   4.507  0.00  0.00     0.162 HD
BRANCH  18  20
ATOM     20  C   UNL d   1      33.216 -20.707   4.745  0.00  0.00     0.125 C 
BRANCH  20  21
ATOM     21  C   UNL d   1      33.248 -21.028   6.236  0.00  0.00     0.046 C 
BRANCH  21  22
ATOM     22  C   UNL d   1      32.235 -22.109   6.606  0.00  0.00     0.165 C 
BRANCH  22  23
ATOM     23  O   UNL d   1      30.917 -21.575   6.559  0.00  0.00    -0.401 OA
ATOM     24  H   UNL d   1      30.299 -22.311   6.416  0.00  0.00     0.209 HD
ENDBRANCH  22  23
ENDBRANCH  21  22
ENDBRANCH  20  21
ENDBRANCH  18  20
ENDBRANCH   1  16
TORSDOF 6
ENDMDL
MODEL 8
REMARK VINA RESULT:    -6.641      4.068      5.457
REMARK INTER + INTRA:          -9.718
REMARK INTER:                  -8.431
REMARK INTRA:                  -1.287
REMARK CONF_INDEPENDENT:        1.790
REMARK UNBOUND:                -1.287
REMARK  6 active torsions:
REMARK  status: ('A' for Active; 'I' for Inactive)
REMARK       I    between atoms: C_2  and  N_3 
REMARK    1  A    between atoms: C_2  and  C_8 
REMARK    2  A    between atoms: N_3  and  C_4 
REMARK    3  A    between atoms: C_4  and  C_5 
REMARK    4  A    between atoms: C_5  and  C_6 
REMARK    5  A    between atoms: C_6  and  O_7 
REMARK    6  A    between atoms: C_10  and  C_11 
ROOT
ATOM      1  C   UNL d   1      24.868 -15.803  -2.362  0.00  0.00     0.264 A 
ATOM      2  N   UNL d   1      25.964 -15.684  -3.085  0.00  0.00    -0.195 NA
ATOM      3  C   UNL d   1      25.689 -14.614  -3.907  0.00  0.00     0.189 A 
ATOM      4  N   UNL d   1      24.475 -14.073  -3.704  0.00  0.00    -0.105 NA
ATOM      5  O   UNL d   1      23.917 -14.879  -2.692  0.00  0.00    -0.185 OA
ENDROOT
BRANCH   3   6
ATOM      6  C   UNL d   1      26.637 -14.184  -4.934  0.00  0.00     0.016 A 
ATOM      7  C   UNL d   1      27.562 -15.114  -5.429  0.00  0.00     0.016 A 
ATOM      8  C   UNL d   1      28.528 -14.750  -6.379  0.00  0.00     0.014 A 
ATOM      9  C   UNL d   1      28.596 -13.416  -6.814  0.00  0.00    -0.008 A 
ATOM     10  C   UNL d   1      29.466 -12.718  -7.696  0.00  0.00     0.030 A 
ATOM     11  C   UNL d   1      27.669 -12.496  -6.321  0.00  0.00     0.043 A 
ATOM     12  C   UNL d   1      29.077 -11.400  -7.708  0.00  0.00     0.089 A 
ATOM     13  N   UNL d   1      27.973 -11.281  -6.901  0.00  0.00    -0.365 N 
ATOM     14  H   UNL d   1      27.473 -10.419  -6.734  0.00  0.00     0.165 HD
ATOM     15  C   UNL d   1      26.667 -12.854  -5.395  0.00  0.00     0.045 A 
ENDBRANCH   3   6
BRANCH   1  16
ATOM     16  C   UNL d   1      24.663 -16.748  -1.268  0.00  0.00     0.296 C 
ATOM     17  O   UNL d   1      25.600 -17.291  -0.675  0.00  0.00    -0.264 OA
ATOM     18  N   UNL d   1      23.348 -17.081  -0.925  0.00  0.00    -0.354 N 
ATOM     19  H   UNL d   1      22.581 -16.714  -1.474  0.00  0.00     0.162 HD
BRANCH  18  20
ATOM     20  C   UNL d   1      23.096 -18.143   0.048  0.00  0.00     0.125 C 
BRANCH  20  21
ATOM     21  C   UNL d   1      22.276 -19.298  -0.517  0.00  0.00     0.046 C 
BRANCH  21  22
ATOM     22  C   UNL d   1      20.792 -18.950  -0.608  0.00  0.00     0.165 C 
BRANCH  22  23
ATOM     23  O   UNL d   1      20.631 -17.667  -1.202  0.00  0.00    -0.401 OA
ATOM     24  H   UNL d   1      19.766 -17.647  -1.645  0.00  0.00     0.209 HD
ENDBRANCH  22  23
ENDBRANCH  21  22
ENDBRANCH  20  21
ENDBRANCH  18  20
ENDBRANCH   1  16
TORSDOF 6
ENDMDL
MODEL 9
REMARK VINA RESULT:    -6.621      2.543      8.010
REMARK INTER + INTRA:          -9.710
REMARK INTER:                  -8.411
REMARK INTRA:                  -1.299
REMARK CONF_INDEPENDENT:        1.790
REMARK UNBOUND:                -1.299
REMARK  6 active torsions:
REMARK  status: ('A' for Active; 'I' for Inactive)
REMARK       I    between atoms: C_2  and  N_3 
REMARK    1  A    between atoms: C_2  and  C_8 
REMARK    2  A    between atoms: N_3  and  C_4 
REMARK    3  A    between atoms: C_4  and  C_5 
REMARK    4  A    between atoms: C_5  and  C_6 
REMARK    5  A    between atoms: C_6  and  O_7 
REMARK    6  A    between atoms: C_10  and  C_11 
ROOT
ATOM      1  C   UNL d   1      25.038 -17.072  -0.137  0.00  0.00     0.264 A 
ATOM      2  N   UNL d   1      24.246 -18.078   0.178  0.00  0.00    -0.195 NA
ATOM      3  C   UNL d   1      23.047 -17.734  -0.405  0.00  0.00     0.189 A 
ATOM      4  N   UNL d   1      23.081 -16.564  -1.067  0.00  0.00    -0.105 NA
ATOM      5  O   UNL d   1      24.400 -16.110  -0.870  0.00  0.00    -0.185 OA
ENDROOT
BRANCH   3   6
ATOM      6  C   UNL d   1      21.856 -18.566  -0.234  0.00  0.00     0.016 A 
ATOM      7  C   UNL d   1      21.129 -18.944  -1.372  0.00  0.00     0.016 A 
ATOM      8  C   UNL d   1      19.952 -19.700  -1.270  0.00  0.00     0.014 A 
ATOM      9  C   UNL d   1      19.468 -20.052   0.002  0.00  0.00    -0.008 A 
ATOM     10  C   UNL d   1      18.308 -20.740   0.451  0.00  0.00     0.030 A 
ATOM     11  C   UNL d   1      20.199 -19.676   1.130  0.00  0.00     0.043 A 
ATOM     12  C   UNL d   1      18.337 -20.753   1.825  0.00  0.00     0.089 A 
ATOM     13  N   UNL d   1      19.497 -20.136   2.226  0.00  0.00    -0.365 N 
ATOM     14  H   UNL d   1      19.780 -20.013   3.188  0.00  0.00     0.165 HD
ATOM     15  C   UNL d   1      21.405 -18.950   1.044  0.00  0.00     0.045 A 
ENDBRANCH   3   6
BRANCH   1  16
ATOM     16  C   UNL d   1      26.461 -16.973   0.172  0.00  0.00     0.296 C 
ATOM     17  O   UNL d   1      27.067 -17.848   0.799  0.00  0.00    -0.264 OA
ATOM     18  N   UNL d   1      27.140 -15.814  -0.219  0.00  0.00    -0.354 N 
ATOM     19  H   UNL d   1      26.625 -15.053  -0.645  0.00  0.00     0.162 HD
BRANCH  18  20
ATOM     20  C   UNL d   1      28.521 -15.598   0.212  0.00  0.00     0.125 C 
BRANCH  20  21
ATOM     21  C   UNL d   1      29.522 -15.611  -0.939  0.00  0.00     0.046 C 
BRANCH  21  22
ATOM     22  C   UNL d   1      29.962 -17.030  -1.294  0.00  0.00     0.165 C 
BRANCH  22  23
ATOM     23  O   UNL d   1      29.066 -17.973  -0.717  0.00  0.00    -0.401 OA
ATOM     24  H   UNL d   1      29.184 -17.949   0.247  0.00  0.00     0.209 HD
ENDBRANCH  22  23
ENDBRANCH  21  22
ENDBRANCH  20  21
ENDBRANCH  18  20
ENDBRANCH   1  16
TORSDOF 6
ENDMDL
