MODEL 1
REMARK VINA RESULT:    -8.875      0.000      0.000
REMARK INTER + INTRA:         -11.929
REMARK INTER:                 -10.068
REMARK INTRA:                  -1.860
REMARK CONF_INDEPENDENT:        1.193
REMARK UNBOUND:                -1.860
REMARK  4 active torsions:
REMARK  status: ('A' for Active; 'I' for Inactive)
REMARK       I    between atoms: C_2  and  N_3 
REMARK    1  A    between atoms: C_2  and  C_13 
REMARK    2  A    between atoms: N_3  and  N_4 
REMARK       I    between atoms: N_4  and  C_5 
REMARK    3  A    between atoms: C_5  and  C_7 
REMARK    4  A    between atoms: C_19  and  O_20 
ROOT
ATOM      1  O   UNL d   1      25.473 -18.539   0.361  0.00  0.00    -0.266 OA
ATOM      2  C   UNL d   1      24.986 -17.827  -0.518  0.00  0.00     0.273 C 
ATOM      3  N   UNL d   1      23.630 -17.867  -0.833  0.00  0.00    -0.263 N 
ATOM      4  H   UNL d   1      23.198 -17.333  -1.586  0.00  0.00     0.190 HD
ENDROOT
BRANCH   3   5
ATOM      5  N   UNL d   1      22.789 -18.784  -0.159  0.00  0.00    -0.267 N 
ATOM      6  C   UNL d   1      21.436 -18.808  -0.445  0.00  0.00     0.240 C 
ATOM      7  O   UNL d   1      20.945 -18.029  -1.269  0.00  0.00    -0.271 OA
ATOM      8  H   UNL d   1      23.260 -19.419   0.482  0.00  0.00     0.190 HD
BRANCH   6   9
ATOM      9  C   UNL d   1      20.545 -19.809   0.327  0.00  0.00     0.079 C 
ATOM     10  C   UNL d   1      20.286 -19.461   1.799  0.00  0.00     0.014 C 
ATOM     11  C   UNL d   1      19.345 -20.450   2.486  0.00  0.00     0.001 C 
ATOM     12  C   UNL d   1      18.028 -20.588   1.730  0.00  0.00     0.000 C 
ATOM     13  C   UNL d   1      18.281 -20.996   0.284  0.00  0.00     0.001 C 
ATOM     14  C   UNL d   1      19.215 -20.009  -0.422  0.00  0.00     0.014 C 
ENDBRANCH   6   9
ENDBRANCH   3   5
BRANCH   2  15
ATOM     15  C   UNL d   1      25.817 -16.844  -1.292  0.00  0.00     0.068 A 
ATOM     16  C   UNL d   1      25.175 -15.963  -2.176  0.00  0.00     0.044 A 
ATOM     17  C   UNL d   1      25.923 -15.069  -2.947  0.00  0.00     0.035 A 
ATOM     18 CL   UNL d   1      25.122 -14.026  -4.057  0.00  0.00    -0.084 Cl
ATOM     19  C   UNL d   1      27.311 -15.019  -2.839  0.00  0.00     0.026 A 
ATOM     20  C   UNL d   1      27.959 -15.857  -1.932  0.00  0.00     0.039 A 
ATOM     21  C   UNL d   1      27.217 -16.762  -1.159  0.00  0.00     0.081 A 
BRANCH  21  22
ATOM     22  O   UNL d   1      27.890 -17.589  -0.304  0.00  0.00    -0.360 OA
ATOM     23  H   UNL d   1      27.354 -17.759   0.488  0.00  0.00     0.217 HD
ENDBRANCH  21  22
ENDBRANCH   2  15
TORSDOF 4
ENDMDL
MODEL 2
REMARK VINA RESULT:    -8.093      2.116      2.627
REMARK INTER + INTRA:         -10.436
REMARK INTER:                  -9.286
REMARK INTRA:                  -1.150
REMARK CONF_INDEPENDENT:        1.193
REMARK UNBOUND:                -1.150
REMARK  4 active torsions:
REMARK  status: ('A' for Active; 'I' for Inactive)
REMARK       I    between atoms: C_2  and  N_3 
REMARK    1  A    between atoms: C_2  and  C_13 
REMARK    2  A    between atoms: N_3  and  N_4 
REMARK       I    between atoms: N_4  and  C_5 
REMARK    3  A    between atoms: C_5  and  C_7 
REMARK    4  A    between atoms: C_19  and  O_20 
ROOT
ATOM      1  O   UNL d   1      22.730 -15.965  -0.576  0.00  0.00    -0.266 OA
ATOM      2  C   UNL d   1      23.668 -16.760  -0.627  0.00  0.00     0.273 C 
ATOM      3  N   UNL d   1      23.551 -18.070  -0.169  0.00  0.00    -0.263 N 
ATOM      4  H   UNL d   1      24.316 -18.743  -0.146  0.00  0.00     0.190 HD
ENDROOT
BRANCH   3   5
ATOM      5  N   UNL d   1      22.333 -18.493   0.417  0.00  0.00    -0.267 N 
ATOM      6  C   UNL d   1      21.313 -18.961  -0.391  0.00  0.00     0.240 C 
ATOM      7  O   UNL d   1      21.440 -19.002  -1.619  0.00  0.00    -0.271 OA
ATOM      8  H   UNL d   1      22.306 -18.465   1.433  0.00  0.00     0.190 HD
BRANCH   6   9
ATOM      9  C   UNL d   1      19.991 -19.394   0.283  0.00  0.00     0.079 C 
ATOM     10  C   UNL d   1      19.135 -20.383  -0.520  0.00  0.00     0.014 C 
ATOM     11  C   UNL d   1      17.878 -20.825   0.229  0.00  0.00     0.001 C 
ATOM     12  C   UNL d   1      18.216 -21.401   1.599  0.00  0.00     0.000 C 
ATOM     13  C   UNL d   1      19.010 -20.395   2.421  0.00  0.00     0.001 C 
ATOM     14  C   UNL d   1      20.279 -19.950   1.690  0.00  0.00     0.014 C 
ENDBRANCH   6   9
ENDBRANCH   3   5
BRANCH   2  15
ATOM     15  C   UNL d   1      24.997 -16.381  -1.214  0.00  0.00     0.068 A 
ATOM     16  C   UNL d   1      26.157 -16.995  -0.717  0.00  0.00     0.044 A 
ATOM     17  C   UNL d   1      27.414 -16.629  -1.208  0.00  0.00     0.035 A 
ATOM     18 CL   UNL d   1      28.828 -17.361  -0.555  0.00  0.00    -0.084 Cl
ATOM     19  C   UNL d   1      27.538 -15.670  -2.210  0.00  0.00     0.026 A 
ATOM     20  C   UNL d   1      26.393 -15.084  -2.747  0.00  0.00     0.039 A 
ATOM     21  C   UNL d   1      25.127 -15.440  -2.254  0.00  0.00     0.081 A 
BRANCH  21  22
ATOM     22  O   UNL d   1      24.029 -14.821  -2.782  0.00  0.00    -0.360 OA
ATOM     23  H   UNL d   1      23.432 -14.535  -2.071  0.00  0.00     0.217 HD
ENDBRANCH  21  22
ENDBRANCH   2  15
TORSDOF 4
ENDMDL
MODEL 3
REMARK VINA RESULT:    -7.992      2.775      8.147
REMARK INTER + INTRA:         -11.062
REMARK INTER:                  -9.186
REMARK INTRA:                  -1.877
REMARK CONF_INDEPENDENT:        1.193
REMARK UNBOUND:                -1.877
REMARK  4 active torsions:
REMARK  status: ('A' for Active; 'I' for Inactive)
REMARK       I    between atoms: C_2  and  N_3 
REMARK    1  A    between atoms: C_2  and  C_13 
REMARK    2  A    between atoms: N_3  and  N_4 
REMARK       I    between atoms: N_4  and  C_5 
REMARK    3  A    between atoms: C_5  and  C_7 
REMARK    4  A    between atoms: C_19  and  O_20 
ROOT
ATOM      1  O   UNL d   1      21.091 -17.653  -1.270  0.00  0.00    -0.266 OA
ATOM      2  C   UNL d   1      21.404 -18.410  -0.351  0.00  0.00     0.273 C 
ATOM      3  N   UNL d   1      22.698 -18.451   0.163  0.00  0.00    -0.263 N 
ATOM      4  H   UNL d   1      23.010 -19.097   0.887  0.00  0.00     0.190 HD
ENDROOT
BRANCH   3   5
ATOM      5  N   UNL d   1      23.699 -17.633  -0.414  0.00  0.00    -0.267 N 
ATOM      6  C   UNL d   1      24.996 -17.704   0.060  0.00  0.00     0.240 C 
ATOM      7  O   UNL d   1      25.294 -18.459   0.991  0.00  0.00    -0.271 OA
ATOM      8  H   UNL d   1      23.395 -17.060  -1.198  0.00  0.00     0.190 HD
BRANCH   6   9
ATOM      9  C   UNL d   1      26.058 -16.781  -0.581  0.00  0.00     0.079 C 
ATOM     10  C   UNL d   1      27.434 -17.419  -0.812  0.00  0.00     0.014 C 
ATOM     11  C   UNL d   1      28.415 -16.479  -1.511  0.00  0.00     0.001 C 
ATOM     12  C   UNL d   1      27.846 -15.949  -2.822  0.00  0.00     0.000 C 
ATOM     13  C   UNL d   1      26.510 -15.257  -2.584  0.00  0.00     0.001 C 
ATOM     14  C   UNL d   1      25.511 -16.189  -1.894  0.00  0.00     0.014 C 
ENDBRANCH   6   9
ENDBRANCH   3   5
BRANCH   2  15
ATOM     15  C   UNL d   1      20.404 -19.322   0.300  0.00  0.00     0.068 A 
ATOM     16  C   UNL d   1      20.516 -19.579   1.675  0.00  0.00     0.044 A 
ATOM     17  C   UNL d   1      19.632 -20.462   2.301  0.00  0.00     0.035 A 
ATOM     18 CL   UNL d   1      19.811 -20.798   3.979  0.00  0.00    -0.084 Cl
ATOM     19  C   UNL d   1      18.613 -21.083   1.583  0.00  0.00     0.026 A 
ATOM     20  C   UNL d   1      18.461 -20.804   0.225  0.00  0.00     0.039 A 
ATOM     21  C   UNL d   1      19.349 -19.925  -0.413  0.00  0.00     0.081 A 
BRANCH  21  22
ATOM     22  O   UNL d   1      19.188 -19.699  -1.752  0.00  0.00    -0.360 OA
ATOM     23  H   UNL d   1      20.008 -19.342  -2.132  0.00  0.00     0.217 HD
ENDBRANCH  21  22
ENDBRANCH   2  15
TORSDOF 4
ENDMDL
MODEL 4
REMARK VINA RESULT:    -6.593      5.462      7.634
REMARK INTER + INTRA:          -9.650
REMARK INTER:                  -7.786
REMARK INTRA:                  -1.864
REMARK CONF_INDEPENDENT:        1.193
REMARK UNBOUND:                -1.864
REMARK  4 active torsions:
REMARK  status: ('A' for Active; 'I' for Inactive)
REMARK       I    between atoms: C_2  and  N_3 
REMARK    1  A    between atoms: C_2  and  C_13 
REMARK    2  A    between atoms: N_3  and  N_4 
REMARK       I    between atoms: N_4  and  C_5 
REMARK    3  A    between atoms: C_5  and  C_7 
REMARK    4  A    between atoms: C_19  and  O_20 
ROOT
ATOM      1  O   UNL d   1      26.654 -10.978  -2.136  0.00  0.00    -0.266 OA
ATOM      2  C   UNL d   1      25.942 -11.052  -3.138  0.00  0.00     0.273 C 
ATOM      3  N   UNL d   1      25.337 -12.245  -3.527  0.00  0.00    -0.263 N 
ATOM      4  H   UNL d   1      24.784 -12.361  -4.374  0.00  0.00     0.190 HD
ENDROOT
BRANCH   3   5
ATOM      5  N   UNL d   1      25.581 -13.422  -2.777  0.00  0.00    -0.267 N 
ATOM      6  C   UNL d   1      25.277 -14.655  -3.325  0.00  0.00     0.240 C 
ATOM      7  O   UNL d   1      24.780 -14.747  -4.452  0.00  0.00    -0.271 OA
ATOM      8  H   UNL d   1      26.021 -13.278  -1.872  0.00  0.00     0.190 HD
BRANCH   6   9
ATOM      9  C   UNL d   1      25.537 -15.916  -2.469  0.00  0.00     0.079 C 
ATOM     10  C   UNL d   1      26.774 -15.853  -1.562  0.00  0.00     0.014 C 
ATOM     11  C   UNL d   1      26.937 -17.099  -0.692  0.00  0.00     0.001 C 
ATOM     12  C   UNL d   1      25.684 -17.375   0.132  0.00  0.00     0.000 C 
ATOM     13  C   UNL d   1      24.466 -17.502  -0.773  0.00  0.00     0.001 C 
ATOM     14  C   UNL d   1      24.282 -16.257  -1.645  0.00  0.00     0.014 C 
ENDBRANCH   6   9
ENDBRANCH   3   5
BRANCH   2  15
ATOM     15  C   UNL d   1      25.653  -9.854  -3.996  0.00  0.00     0.068 A 
ATOM     16  C   UNL d   1      25.583  -8.589  -3.391  0.00  0.00     0.044 A 
ATOM     17  C   UNL d   1      25.268  -7.461  -4.153  0.00  0.00     0.035 A 
ATOM     18 CL   UNL d   1      25.143  -5.925  -3.387  0.00  0.00    -0.084 Cl
ATOM     19  C   UNL d   1      25.042  -7.564  -5.524  0.00  0.00     0.026 A 
ATOM     20  C   UNL d   1      25.153  -8.806  -6.147  0.00  0.00     0.039 A 
ATOM     21  C   UNL d   1      25.461  -9.946  -5.388  0.00  0.00     0.081 A 
BRANCH  21  22
ATOM     22  O   UNL d   1      25.531 -11.151  -6.028  0.00  0.00    -0.360 OA
ATOM     23  H   UNL d   1      24.679 -11.614  -5.963  0.00  0.00     0.217 HD
ENDBRANCH  21  22
ENDBRANCH   2  15
TORSDOF 4
ENDMDL
MODEL 5
REMARK VINA RESULT:    -6.586      1.471      2.097
REMARK INTER + INTRA:          -9.662
REMARK INTER:                  -7.779
REMARK INTRA:                  -1.883
REMARK CONF_INDEPENDENT:        1.193
REMARK UNBOUND:                -1.883
REMARK  4 active torsions:
REMARK  status: ('A' for Active; 'I' for Inactive)
REMARK       I    between atoms: C_2  and  N_3 
REMARK    1  A    between atoms: C_2  and  C_13 
REMARK    2  A    between atoms: N_3  and  N_4 
REMARK       I    between atoms: N_4  and  C_5 
REMARK    3  A    between atoms: C_5  and  C_7 
REMARK    4  A    between atoms: C_19  and  O_20 
ROOT
ATOM      1  O   UNL d   1      23.570 -15.233  -2.016  0.00  0.00    -0.266 OA
ATOM      2  C   UNL d   1      24.383 -16.132  -1.801  0.00  0.00     0.273 C 
ATOM      3  N   UNL d   1      24.002 -17.360  -1.266  0.00  0.00    -0.263 N 
ATOM      4  H   UNL d   1      24.649 -18.109  -1.026  0.00  0.00     0.190 HD
ENDROOT
BRANCH   3   5
ATOM      5  N   UNL d   1      22.647 -17.571  -0.913  0.00  0.00    -0.267 N 
ATOM      6  C   UNL d   1      22.272 -18.768  -0.331  0.00  0.00     0.240 C 
ATOM      7  O   UNL d   1      23.097 -19.665  -0.129  0.00  0.00    -0.271 OA
ATOM      8  H   UNL d   1      22.027 -16.781  -1.075  0.00  0.00     0.190 HD
BRANCH   6   9
ATOM      9  C   UNL d   1      20.780 -18.970   0.022  0.00  0.00     0.079 C 
ATOM     10  C   UNL d   1      19.989 -19.859  -0.946  0.00  0.00     0.014 C 
ATOM     11  C   UNL d   1      18.541 -20.076  -0.505  0.00  0.00     0.001 C 
ATOM     12  C   UNL d   1      18.465 -20.630   0.913  0.00  0.00     0.000 C 
ATOM     13  C   UNL d   1      19.196 -19.714   1.886  0.00  0.00     0.001 C 
ATOM     14  C   UNL d   1      20.651 -19.494   1.464  0.00  0.00     0.014 C 
ENDBRANCH   6   9
ENDBRANCH   3   5
BRANCH   2  15
ATOM     15  C   UNL d   1      25.841 -15.977  -2.129  0.00  0.00     0.068 A 
ATOM     16  C   UNL d   1      26.207 -15.185  -3.229  0.00  0.00     0.044 A 
ATOM     17  C   UNL d   1      27.552 -15.060  -3.590  0.00  0.00     0.035 A 
ATOM     18 CL   UNL d   1      27.979 -14.121  -4.967  0.00  0.00    -0.084 Cl
ATOM     19  C   UNL d   1      28.551 -15.695  -2.856  0.00  0.00     0.026 A 
ATOM     20  C   UNL d   1      28.207 -16.447  -1.734  0.00  0.00     0.039 A 
ATOM     21  C   UNL d   1      26.859 -16.585  -1.369  0.00  0.00     0.081 A 
BRANCH  21  22
ATOM     22  O   UNL d   1      26.557 -17.356  -0.282  0.00  0.00    -0.360 OA
ATOM     23  H   UNL d   1      25.849 -16.939   0.238  0.00  0.00     0.217 HD
ENDBRANCH  21  22
ENDBRANCH   2  15
TORSDOF 4
ENDMDL
MODEL 6
REMARK VINA RESULT:    -6.578      4.643      6.591
REMARK INTER + INTRA:          -9.621
REMARK INTER:                  -7.771
REMARK INTRA:                  -1.850
REMARK CONF_INDEPENDENT:        1.193
REMARK UNBOUND:                -1.850
REMARK  4 active torsions:
REMARK  status: ('A' for Active; 'I' for Inactive)
REMARK       I    between atoms: C_2  and  N_3 
REMARK    1  A    between atoms: C_2  and  C_13 
REMARK    2  A    between atoms: N_3  and  N_4 
REMARK       I    between atoms: N_4  and  C_5 
REMARK    3  A    between atoms: C_5  and  C_7 
REMARK    4  A    between atoms: C_19  and  O_20 
ROOT
ATOM      1  O   UNL d   1      27.985 -15.209  -5.769  0.00  0.00    -0.266 OA
ATOM      2  C   UNL d   1      27.311 -14.215  -5.500  0.00  0.00     0.273 C 
ATOM      3  N   UNL d   1      26.415 -14.197  -4.434  0.00  0.00    -0.263 N 
ATOM      4  H   UNL d   1      25.802 -13.414  -4.210  0.00  0.00     0.190 HD
ENDROOT
BRANCH   3   5
ATOM      5  N   UNL d   1      26.234 -15.369  -3.661  0.00  0.00    -0.267 N 
ATOM      6  C   UNL d   1      25.156 -15.460  -2.799  0.00  0.00     0.240 C 
ATOM      7  O   UNL d   1      24.355 -14.527  -2.680  0.00  0.00    -0.271 OA
ATOM      8  H   UNL d   1      26.908 -16.112  -3.831  0.00  0.00     0.190 HD
BRANCH   6   9
ATOM      9  C   UNL d   1      25.003 -16.747  -1.956  0.00  0.00     0.079 C 
ATOM     10  C   UNL d   1      26.116 -16.999  -0.931  0.00  0.00     0.014 C 
ATOM     11  C   UNL d   1      25.872 -18.248  -0.084  0.00  0.00     0.001 C 
ATOM     12  C   UNL d   1      24.513 -18.200   0.605  0.00  0.00     0.000 C 
ATOM     13  C   UNL d   1      23.401 -18.014  -0.419  0.00  0.00     0.001 C 
ATOM     14  C   UNL d   1      23.625 -16.761  -1.270  0.00  0.00     0.014 C 
ENDBRANCH   6   9
ENDBRANCH   3   5
BRANCH   2  15
ATOM     15  C   UNL d   1      27.430 -12.941  -6.286  0.00  0.00     0.068 A 
ATOM     16  C   UNL d   1      28.357 -12.878  -7.338  0.00  0.00     0.044 A 
ATOM     17  C   UNL d   1      28.527 -11.692  -8.057  0.00  0.00     0.035 A 
ATOM     18 CL   UNL d   1      29.699 -11.621  -9.315  0.00  0.00    -0.084 Cl
ATOM     19  C   UNL d   1      27.769 -10.562  -7.763  0.00  0.00     0.026 A 
ATOM     20  C   UNL d   1      26.812 -10.622  -6.751  0.00  0.00     0.039 A 
ATOM     21  C   UNL d   1      26.640 -11.806  -6.018  0.00  0.00     0.081 A 
BRANCH  21  22
ATOM     22  O   UNL d   1      25.714 -11.818  -5.012  0.00  0.00    -0.360 OA
ATOM     23  H   UNL d   1      24.820 -11.721  -5.380  0.00  0.00     0.217 HD
ENDBRANCH  21  22
ENDBRANCH   2  15
TORSDOF 4
ENDMDL
MODEL 7
REMARK VINA RESULT:    -6.343      5.065      9.175
REMARK INTER + INTRA:          -9.455
REMARK INTER:                  -7.537
REMARK INTRA:                  -1.918
REMARK CONF_INDEPENDENT:        1.193
REMARK UNBOUND:                -1.918
REMARK  4 active torsions:
REMARK  status: ('A' for Active; 'I' for Inactive)
REMARK       I    between atoms: C_2  and  N_3 
REMARK    1  A    between atoms: C_2  and  C_13 
REMARK    2  A    between atoms: N_3  and  N_4 
REMARK       I    between atoms: N_4  and  C_5 
REMARK    3  A    between atoms: C_5  and  C_7 
REMARK    4  A    between atoms: C_19  and  O_20 
ROOT
ATOM      1  O   UNL d   1      24.402 -14.450  -3.926  0.00  0.00    -0.266 OA
ATOM      2  C   UNL d   1      25.120 -14.314  -2.935  0.00  0.00     0.273 C 
ATOM      3  N   UNL d   1      25.716 -13.096  -2.617  0.00  0.00    -0.263 N 
ATOM      4  H   UNL d   1      26.356 -12.954  -1.837  0.00  0.00     0.190 HD
ENDROOT
BRANCH   3   5
ATOM      5  N   UNL d   1      25.532 -11.988  -3.480  0.00  0.00    -0.267 N 
ATOM      6  C   UNL d   1      26.316 -10.860  -3.320  0.00  0.00     0.240 C 
ATOM      7  O   UNL d   1      27.165 -10.796  -2.425  0.00  0.00    -0.271 OA
ATOM      8  H   UNL d   1      24.841 -12.119  -4.215  0.00  0.00     0.190 HD
BRANCH   6   9
ATOM      9  C   UNL d   1      26.071  -9.663  -4.267  0.00  0.00     0.079 C 
ATOM     10  C   UNL d   1      25.530 -10.023  -5.657  0.00  0.00     0.014 C 
ATOM     11  C   UNL d   1      25.245  -8.793  -6.520  0.00  0.00     0.001 C 
ATOM     12  C   UNL d   1      24.305  -7.821  -5.816  0.00  0.00     0.000 C 
ATOM     13  C   UNL d   1      24.873  -7.413  -4.463  0.00  0.00     0.001 C 
ATOM     14  C   UNL d   1      25.155  -8.633  -3.582  0.00  0.00     0.014 C 
ENDBRANCH   6   9
ENDBRANCH   3   5
BRANCH   2  15
ATOM     15  C   UNL d   1      25.381 -15.446  -1.984  0.00  0.00     0.068 A 
ATOM     16  C   UNL d   1      24.380 -16.411  -1.788  0.00  0.00     0.044 A 
ATOM     17  C   UNL d   1      24.572 -17.450  -0.874  0.00  0.00     0.035 A 
ATOM     18 CL   UNL d   1      23.318 -18.599  -0.615  0.00  0.00    -0.084 Cl
ATOM     19  C   UNL d   1      25.762 -17.562  -0.159  0.00  0.00     0.026 A 
ATOM     20  C   UNL d   1      26.783 -16.638  -0.375  0.00  0.00     0.039 A 
ATOM     21  C   UNL d   1      26.596 -15.587  -1.285  0.00  0.00     0.081 A 
BRANCH  21  22
ATOM     22  O   UNL d   1      27.608 -14.682  -1.448  0.00  0.00    -0.360 OA
ATOM     23  H   UNL d   1      28.405 -14.984  -0.982  0.00  0.00     0.217 HD
ENDBRANCH  21  22
ENDBRANCH   2  15
TORSDOF 4
ENDMDL
MODEL 8
REMARK VINA RESULT:    -6.273      4.258      9.382
REMARK INTER + INTRA:          -9.347
REMARK INTER:                  -7.466
REMARK INTRA:                  -1.881
REMARK CONF_INDEPENDENT:        1.193
REMARK UNBOUND:                -1.881
REMARK  4 active torsions:
REMARK  status: ('A' for Active; 'I' for Inactive)
REMARK       I    between atoms: C_2  and  N_3 
REMARK    1  A    between atoms: C_2  and  C_13 
REMARK    2  A    between atoms: N_3  and  N_4 
REMARK       I    between atoms: N_4  and  C_5 
REMARK    3  A    between atoms: C_5  and  C_7 
REMARK    4  A    between atoms: C_19  and  O_20 
ROOT
ATOM      1  O   UNL d   1      24.701 -14.678  -3.384  0.00  0.00    -0.266 OA
ATOM      2  C   UNL d   1      25.556 -15.499  -3.051  0.00  0.00     0.273 C 
ATOM      3  N   UNL d   1      26.793 -15.575  -3.686  0.00  0.00    -0.263 N 
ATOM      4  H   UNL d   1      27.507 -16.271  -3.477  0.00  0.00     0.190 HD
ENDROOT
BRANCH   3   5
ATOM      5  N   UNL d   1      27.065 -14.716  -4.779  0.00  0.00    -0.267 N 
ATOM      6  C   UNL d   1      28.143 -14.981  -5.604  0.00  0.00     0.240 C 
ATOM      7  O   UNL d   1      28.884 -15.947  -5.395  0.00  0.00    -0.271 OA
ATOM      8  H   UNL d   1      26.398 -13.960  -4.915  0.00  0.00     0.190 HD
BRANCH   6   9
ATOM      9  C   UNL d   1      28.420 -14.009  -6.774  0.00  0.00     0.079 C 
ATOM     10  C   UNL d   1      27.784 -12.619  -6.641  0.00  0.00     0.014 C 
ATOM     11  C   UNL d   1      28.152 -11.685  -7.794  0.00  0.00     0.001 C 
ATOM     12  C   UNL d   1      29.662 -11.567  -7.959  0.00  0.00     0.000 C 
ATOM     13  C   UNL d   1      30.288 -12.942  -8.156  0.00  0.00     0.001 C 
ATOM     14  C   UNL d   1      29.938 -13.888  -7.004  0.00  0.00     0.014 C 
ENDBRANCH   6   9
ENDBRANCH   3   5
BRANCH   2  15
ATOM     15  C   UNL d   1      25.335 -16.458  -1.917  0.00  0.00     0.068 A 
ATOM     16  C   UNL d   1      24.030 -16.896  -1.645  0.00  0.00     0.044 A 
ATOM     17  C   UNL d   1      23.784 -17.750  -0.567  0.00  0.00     0.035 A 
ATOM     18 CL   UNL d   1      22.171 -18.243  -0.222  0.00  0.00    -0.084 Cl
ATOM     19  C   UNL d   1      24.825 -18.200   0.242  0.00  0.00     0.026 A 
ATOM     20  C   UNL d   1      26.133 -17.810  -0.043  0.00  0.00     0.039 A 
ATOM     21  C   UNL d   1      26.388 -16.946  -1.119  0.00  0.00     0.081 A 
BRANCH  21  22
ATOM     22  O   UNL d   1      27.679 -16.560  -1.348  0.00  0.00    -0.360 OA
ATOM     23  H   UNL d   1      28.254 -16.867  -0.626  0.00  0.00     0.217 HD
ENDBRANCH  21  22
ENDBRANCH   2  15
TORSDOF 4
ENDMDL
MODEL 9
REMARK VINA RESULT:    -5.921      6.708      9.148
REMARK INTER + INTRA:          -9.012
REMARK INTER:                  -7.114
REMARK INTRA:                  -1.899
REMARK CONF_INDEPENDENT:        1.193
REMARK UNBOUND:                -1.899
REMARK  4 active torsions:
REMARK  status: ('A' for Active; 'I' for Inactive)
REMARK       I    between atoms: C_2  and  N_3 
REMARK    1  A    between atoms: C_2  and  C_13 
REMARK    2  A    between atoms: N_3  and  N_4 
REMARK       I    between atoms: N_4  and  C_5 
REMARK    3  A    between atoms: C_5  and  C_7 
REMARK    4  A    between atoms: C_19  and  O_20 
ROOT
ATOM      1  O   UNL d   1      26.804 -13.127   2.127  0.00  0.00    -0.266 OA
ATOM      2  C   UNL d   1      27.514 -14.128   2.031  0.00  0.00     0.273 C 
ATOM      3  N   UNL d   1      28.370 -14.527   3.055  0.00  0.00    -0.263 N 
ATOM      4  H   UNL d   1      29.009 -15.318   2.996  0.00  0.00     0.190 HD
ENDROOT
BRANCH   3   5
ATOM      5  N   UNL d   1      28.466 -13.735   4.225  0.00  0.00    -0.267 N 
ATOM      6  C   UNL d   1      29.322 -14.120   5.241  0.00  0.00     0.240 C 
ATOM      7  O   UNL d   1      29.993 -15.153   5.153  0.00  0.00    -0.271 OA
ATOM      8  H   UNL d   1      27.913 -12.881   4.220  0.00  0.00     0.190 HD
BRANCH   6   9
ATOM      9  C   UNL d   1      29.384 -13.242   6.512  0.00  0.00     0.079 C 
ATOM     10  C   UNL d   1      28.472 -12.008   6.506  0.00  0.00     0.014 C 
ATOM     11  C   UNL d   1      28.529 -11.221   7.816  0.00  0.00     0.001 C 
ATOM     12  C   UNL d   1      28.219 -12.108   9.016  0.00  0.00     0.000 C 
ATOM     13  C   UNL d   1      29.166 -13.300   9.059  0.00  0.00     0.001 C 
ATOM     14  C   UNL d   1      29.115 -14.106   7.758  0.00  0.00     0.014 C 
ENDBRANCH   6   9
ENDBRANCH   3   5
BRANCH   2  15
ATOM     15  C   UNL d   1      27.484 -15.007   0.814  0.00  0.00     0.068 A 
ATOM     16  C   UNL d   1      26.278 -15.150   0.111  0.00  0.00     0.044 A 
ATOM     17  C   UNL d   1      26.204 -15.998  -0.997  0.00  0.00     0.035 A 
ATOM     18 CL   UNL d   1      24.706 -16.196  -1.820  0.00  0.00    -0.084 Cl
ATOM     19  C   UNL d   1      27.325 -16.697  -1.438  0.00  0.00     0.026 A 
ATOM     20  C   UNL d   1      28.542 -16.530  -0.779  0.00  0.00     0.039 A 
ATOM     21  C   UNL d   1      28.623 -15.686   0.340  0.00  0.00     0.081 A 
BRANCH  21  22
ATOM     22  O   UNL d   1      29.825 -15.572   0.980  0.00  0.00    -0.360 OA
ATOM     23  H   UNL d   1      30.088 -16.429   1.355  0.00  0.00     0.217 HD
ENDBRANCH  21  22
ENDBRANCH   2  15
TORSDOF 4
ENDMDL
