MODEL 1
REMARK VINA RESULT:   -10.957      0.000      0.000
REMARK INTER + INTRA:         -15.068
REMARK INTER:                 -13.940
REMARK INTRA:                  -1.128
REMARK CONF_INDEPENDENT:        2.983
REMARK UNBOUND:                -1.128
REMARK  10 active torsions:
REMARK  status: ('A' for Active; 'I' for Inactive)
REMARK    1  A    between atoms: O_2  and  C_3 
REMARK    2  A    between atoms: C_6  and  C_7 
REMARK    3  A    between atoms: C_7  and  C_8 
REMARK    4  A    between atoms: C_7  and  N_28 
REMARK    5  A    between atoms: C_8  and  N_9 
REMARK       I    between atoms: N_9  and  C_10 
REMARK    6  A    between atoms: C_10  and  C_12 
REMARK    7  A    between atoms: C_15  and  S_16 
REMARK    8  A    between atoms: S_16  and  C_17 
REMARK    9  A    between atoms: C_17  and  C_18 
REMARK   10  A    between atoms: C_32  and  O_33 
ROOT
ATOM      1  N   UNL d   1      28.998 -15.542   0.841  0.00  0.00    -0.354 N 
ATOM      2  C   UNL d   1      27.908 -15.066   0.133  0.00  0.00     0.256 C 
ATOM      3  O   UNL d   1      27.853 -13.940  -0.310  0.00  0.00    -0.268 OA
ATOM      4  H   UNL d   1      29.021 -16.526   1.051  0.00  0.00     0.162 HD
ENDROOT
BRANCH   1   5
ATOM      5  C   UNL d   1      30.113 -14.681   1.248  0.00  0.00     0.161 C 
BRANCH   5   6
ATOM      6  C   UNL d   1      30.257 -14.450   2.803  0.00  0.00     0.237 C 
BRANCH   6   7
ATOM      7  C   UNL d   1      29.384 -13.273   3.233  0.00  0.00    -0.023 C 
ATOM      8  C   UNL d   1      28.929 -12.334   2.317  0.00  0.00     0.012 C 
ATOM      9  C   UNL d   1      28.283 -11.165   2.739  0.00  0.00     0.040 C 
ATOM     10  C   UNL d   1      27.834 -10.995   4.050  0.00  0.00     0.101 C 
ATOM     11  C   UNL d   1      28.172 -11.997   4.963  0.00  0.00     0.102 C 
ATOM     12  C   UNL d   1      29.007 -13.049   4.558  0.00  0.00     0.049 C 
BRANCH  10  13
ATOM     13  O   UNL d   1      26.906  -9.993   4.134  0.00  0.00    -0.353 OA
ATOM     14  C   UNL d   1      27.272  -8.621   4.180  0.00  0.00     0.210 C 
ENDBRANCH  10  13
BRANCH  11  15
ATOM     15  O   UNL d   1      27.786 -12.255   6.253  0.00  0.00    -0.353 OA
ATOM     16  C   UNL d   1      28.516 -13.265   6.879  0.00  0.00     0.210 C 
ENDBRANCH  11  15
ENDBRANCH   6   7
BRANCH   6  17
ATOM     17  N   UNL d   1      31.737 -14.262   3.209  0.00  0.00    -0.069 N 
ATOM     18  C   UNL d   1      32.681 -15.175   2.432  0.00  0.00     0.270 C 
ATOM     19  C   UNL d   1      32.252 -12.857   3.072  0.00  0.00     0.270 C 
ATOM     20  H   UNL d   1      31.792 -14.500   4.210  0.00  0.00     0.279 HD
ENDBRANCH   6  17
ENDBRANCH   5   6
ENDBRANCH   1   5
BRANCH   2  21
ATOM     21  C   UNL d   1      26.816 -16.036  -0.119  0.00  0.00     0.090 A 
ATOM     22  C   UNL d   1      26.730 -17.212   0.590  0.00  0.00     0.139 A 
ATOM     23  N   UNL d   1      25.757 -18.148   0.402  0.00  0.00    -0.234 NA
ATOM     24  C   UNL d   1      24.850 -17.889  -0.551  0.00  0.00     0.189 A 
ATOM     25  N   UNL d   1      24.859 -16.788  -1.301  0.00  0.00    -0.210 NA
ATOM     26  C   UNL d   1      25.851 -15.915  -1.086  0.00  0.00     0.146 A 
ATOM     27 CL   UNL d   1      25.803 -14.678  -2.257  0.00  0.00    -0.061 Cl
BRANCH  24  28
ATOM     28  S   UNL d   1      23.499 -18.953  -0.905  0.00  0.00    -0.086 SA
BRANCH  28  29
ATOM     29  C   UNL d   1      22.040 -18.017  -0.350  0.00  0.00     0.121 C 
BRANCH  29  30
ATOM     30  C   UNL d   1      20.910 -18.954   0.044  0.00  0.00    -0.049 A 
ATOM     31  C   UNL d   1      19.981 -19.399  -0.907  0.00  0.00     0.008 A 
ATOM     32  C   UNL d   1      18.881 -20.171  -0.517  0.00  0.00     0.007 A 
ATOM     33  C   UNL d   1      18.738 -20.592   0.810  0.00  0.00    -0.062 A 
ATOM     34  C   UNL d   1      17.656 -21.551   1.206  0.00  0.00     0.048 C 
ATOM     35  C   UNL d   1      19.655 -20.152   1.763  0.00  0.00     0.007 A 
ATOM     36  C   UNL d   1      20.712 -19.326   1.386  0.00  0.00     0.008 A 
ENDBRANCH  29  30
ENDBRANCH  28  29
ENDBRANCH  24  28
ENDBRANCH   2  21
TORSDOF 10
ENDMDL
MODEL 2
REMARK VINA RESULT:   -10.595      1.001      2.056
REMARK INTER + INTRA:         -14.714
REMARK INTER:                 -13.578
REMARK INTRA:                  -1.136
REMARK CONF_INDEPENDENT:        2.983
REMARK UNBOUND:                -1.136
REMARK  10 active torsions:
REMARK  status: ('A' for Active; 'I' for Inactive)
REMARK    1  A    between atoms: O_2  and  C_3 
REMARK    2  A    between atoms: C_6  and  C_7 
REMARK    3  A    between atoms: C_7  and  C_8 
REMARK    4  A    between atoms: C_7  and  N_28 
REMARK    5  A    between atoms: C_8  and  N_9 
REMARK       I    between atoms: N_9  and  C_10 
REMARK    6  A    between atoms: C_10  and  C_12 
REMARK    7  A    between atoms: C_15  and  S_16 
REMARK    8  A    between atoms: S_16  and  C_17 
REMARK    9  A    between atoms: C_17  and  C_18 
REMARK   10  A    between atoms: C_32  and  O_33 
ROOT
ATOM      1  N   UNL d   1      29.219 -15.577   0.731  0.00  0.00    -0.354 N 
ATOM      2  C   UNL d   1      28.307 -15.235  -0.253  0.00  0.00     0.256 C 
ATOM      3  O   UNL d   1      28.473 -14.299  -1.004  0.00  0.00    -0.268 OA
ATOM      4  H   UNL d   1      29.072 -16.447   1.216  0.00  0.00     0.162 HD
ENDROOT
BRANCH   1   5
ATOM      5  C   UNL d   1      30.385 -14.748   1.051  0.00  0.00     0.161 C 
BRANCH   5   6
ATOM      6  C   UNL d   1      30.979 -14.947   2.500  0.00  0.00     0.237 C 
BRANCH   6   7
ATOM      7  C   UNL d   1      30.002 -14.401   3.538  0.00  0.00    -0.023 C 
ATOM      8  C   UNL d   1      30.213 -14.580   4.899  0.00  0.00     0.012 C 
ATOM      9  C   UNL d   1      29.231 -14.237   5.836  0.00  0.00     0.040 C 
ATOM     10  C   UNL d   1      28.112 -13.474   5.495  0.00  0.00     0.101 C 
ATOM     11  C   UNL d   1      27.949 -13.171   4.141  0.00  0.00     0.102 C 
ATOM     12  C   UNL d   1      28.835 -13.715   3.198  0.00  0.00     0.049 C 
BRANCH  10  13
ATOM     13  O   UNL d   1      27.520 -12.934   6.603  0.00  0.00    -0.353 OA
ATOM     14  C   UNL d   1      28.110 -11.867   7.334  0.00  0.00     0.210 C 
ENDBRANCH  10  13
BRANCH  11  15
ATOM     15  O   UNL d   1      27.097 -12.336   3.466  0.00  0.00    -0.353 OA
ATOM     16  C   UNL d   1      27.727 -11.275   2.816  0.00  0.00     0.210 C 
ENDBRANCH  11  15
ENDBRANCH   6   7
BRANCH   6  17
ATOM     17  N   UNL d   1      32.384 -14.310   2.624  0.00  0.00    -0.069 N 
ATOM     18  C   UNL d   1      33.472 -15.154   1.968  0.00  0.00     0.270 C 
ATOM     19  C   UNL d   1      32.493 -12.919   2.066  0.00  0.00     0.270 C 
ATOM     20  H   UNL d   1      32.578 -14.240   3.633  0.00  0.00     0.279 HD
ENDBRANCH   6  17
ENDBRANCH   5   6
ENDBRANCH   1   5
BRANCH   2  21
ATOM     21  C   UNL d   1      27.128 -16.122  -0.392  0.00  0.00     0.090 A 
ATOM     22  C   UNL d   1      27.104 -17.370   0.184  0.00  0.00     0.139 A 
ATOM     23  N   UNL d   1      26.056 -18.236   0.089  0.00  0.00    -0.234 NA
ATOM     24  C   UNL d   1      25.002 -17.826  -0.631  0.00  0.00     0.189 A 
ATOM     25  N   UNL d   1      24.937 -16.643  -1.240  0.00  0.00    -0.210 NA
ATOM     26  C   UNL d   1      26.006 -15.844  -1.130  0.00  0.00     0.146 A 
ATOM     27 CL   UNL d   1      25.814 -14.472  -2.122  0.00  0.00    -0.061 Cl
BRANCH  24  28
ATOM     28  S   UNL d   1      23.542 -18.783  -0.828  0.00  0.00    -0.086 SA
BRANCH  28  29
ATOM     29  C   UNL d   1      22.386 -18.086   0.394  0.00  0.00     0.121 C 
BRANCH  29  30
ATOM     30  C   UNL d   1      21.145 -18.953   0.524  0.00  0.00    -0.049 A 
ATOM     31  C   UNL d   1      20.658 -19.325   1.784  0.00  0.00     0.008 A 
ATOM     32  C   UNL d   1      19.581 -20.213   1.896  0.00  0.00     0.007 A 
ATOM     33  C   UNL d   1      18.912 -20.670   0.755  0.00  0.00    -0.062 A 
ATOM     34  C   UNL d   1      17.661 -21.488   0.867  0.00  0.00     0.048 C 
ATOM     35  C   UNL d   1      19.390 -20.306  -0.502  0.00  0.00     0.007 A 
ATOM     36  C   UNL d   1      20.505 -19.478  -0.613  0.00  0.00     0.008 A 
ENDBRANCH  29  30
ENDBRANCH  28  29
ENDBRANCH  24  28
ENDBRANCH   2  21
TORSDOF 10
ENDMDL
MODEL 3
REMARK VINA RESULT:    -9.643      1.399      2.557
REMARK INTER + INTRA:         -14.638
REMARK INTER:                 -12.626
REMARK INTRA:                  -2.012
REMARK CONF_INDEPENDENT:        2.983
REMARK UNBOUND:                -2.012
REMARK  10 active torsions:
REMARK  status: ('A' for Active; 'I' for Inactive)
REMARK    1  A    between atoms: O_2  and  C_3 
REMARK    2  A    between atoms: C_6  and  C_7 
REMARK    3  A    between atoms: C_7  and  C_8 
REMARK    4  A    between atoms: C_7  and  N_28 
REMARK    5  A    between atoms: C_8  and  N_9 
REMARK       I    between atoms: N_9  and  C_10 
REMARK    6  A    between atoms: C_10  and  C_12 
REMARK    7  A    between atoms: C_15  and  S_16 
REMARK    8  A    between atoms: S_16  and  C_17 
REMARK    9  A    between atoms: C_17  and  C_18 
REMARK   10  A    between atoms: C_32  and  O_33 
ROOT
ATOM      1  N   UNL d   1      28.700 -15.204   1.169  0.00  0.00    -0.354 N 
ATOM      2  C   UNL d   1      27.971 -15.146  -0.006  0.00  0.00     0.256 C 
ATOM      3  O   UNL d   1      28.226 -14.368  -0.899  0.00  0.00    -0.268 OA
ATOM      4  H   UNL d   1      28.509 -15.969   1.795  0.00  0.00     0.162 HD
ENDROOT
BRANCH   1   5
ATOM      5  C   UNL d   1      29.744 -14.230   1.501  0.00  0.00     0.161 C 
BRANCH   5   6
ATOM      6  C   UNL d   1      29.226 -12.826   2.002  0.00  0.00     0.237 C 
BRANCH   6   7
ATOM      7  C   UNL d   1      28.926 -12.891   3.498  0.00  0.00    -0.023 C 
ATOM      8  C   UNL d   1      28.987 -14.087   4.199  0.00  0.00     0.012 C 
ATOM      9  C   UNL d   1      28.541 -14.174   5.524  0.00  0.00     0.040 C 
ATOM     10  C   UNL d   1      28.255 -13.041   6.288  0.00  0.00     0.101 C 
ATOM     11  C   UNL d   1      28.315 -11.810   5.630  0.00  0.00     0.102 C 
ATOM     12  C   UNL d   1      28.553 -11.775   4.248  0.00  0.00     0.049 C 
BRANCH  10  13
ATOM     13  O   UNL d   1      28.232 -13.334   7.624  0.00  0.00    -0.353 OA
ATOM     14  C   UNL d   1      29.189 -14.192   8.231  0.00  0.00     0.210 C 
ENDBRANCH  10  13
BRANCH  11  15
ATOM     15  O   UNL d   1      28.263 -10.512   6.069  0.00  0.00    -0.353 OA
ATOM     16  C   UNL d   1      29.165 -10.216   7.091  0.00  0.00     0.210 C 
ENDBRANCH  11  15
ENDBRANCH   6   7
BRANCH   6  17
ATOM     17  N   UNL d   1      28.006 -12.349   1.178  0.00  0.00    -0.069 N 
ATOM     18  C   UNL d   1      26.677 -12.771   1.798  0.00  0.00     0.270 C 
ATOM     19  C   UNL d   1      27.946 -10.866   0.947  0.00  0.00     0.270 C 
ATOM     20  H   UNL d   1      28.097 -12.789   0.252  0.00  0.00     0.279 HD
ENDBRANCH   6  17
ENDBRANCH   5   6
ENDBRANCH   1   5
BRANCH   2  21
ATOM     21  C   UNL d   1      26.883 -16.142  -0.153  0.00  0.00     0.090 A 
ATOM     22  C   UNL d   1      26.876 -17.303   0.585  0.00  0.00     0.139 A 
ATOM     23  N   UNL d   1      25.911 -18.261   0.493  0.00  0.00    -0.234 NA
ATOM     24  C   UNL d   1      24.928 -18.041  -0.392  0.00  0.00     0.189 A 
ATOM     25  N   UNL d   1      24.857 -16.956  -1.163  0.00  0.00    -0.210 NA
ATOM     26  C   UNL d   1      25.844 -16.061  -1.045  0.00  0.00     0.146 A 
ATOM     27 CL   UNL d   1      25.681 -14.851  -2.234  0.00  0.00    -0.061 Cl
BRANCH  24  28
ATOM     28  S   UNL d   1      23.576 -19.138  -0.618  0.00  0.00    -0.086 SA
BRANCH  28  29
ATOM     29  C   UNL d   1      22.122 -18.156  -0.129  0.00  0.00     0.121 C 
BRANCH  29  30
ATOM     30  C   UNL d   1      20.941 -19.057   0.193  0.00  0.00    -0.049 A 
ATOM     31  C   UNL d   1      20.075 -19.496  -0.818  0.00  0.00     0.008 A 
ATOM     32  C   UNL d   1      18.928 -20.233  -0.501  0.00  0.00     0.007 A 
ATOM     33  C   UNL d   1      18.675 -20.626   0.818  0.00  0.00    -0.062 A 
ATOM     34  C   UNL d   1      17.541 -21.550   1.145  0.00  0.00     0.048 C 
ATOM     35  C   UNL d   1      19.529 -20.193   1.830  0.00  0.00     0.007 A 
ATOM     36  C   UNL d   1      20.634 -19.401   1.521  0.00  0.00     0.008 A 
ENDBRANCH  29  30
ENDBRANCH  28  29
ENDBRANCH  24  28
ENDBRANCH   2  21
TORSDOF 10
ENDMDL
MODEL 4
REMARK VINA RESULT:    -9.640      3.793      9.684
REMARK INTER + INTRA:         -14.084
REMARK INTER:                 -12.623
REMARK INTRA:                  -1.462
REMARK CONF_INDEPENDENT:        2.983
REMARK UNBOUND:                -1.462
REMARK  10 active torsions:
REMARK  status: ('A' for Active; 'I' for Inactive)
REMARK    1  A    between atoms: O_2  and  C_3 
REMARK    2  A    between atoms: C_6  and  C_7 
REMARK    3  A    between atoms: C_7  and  C_8 
REMARK    4  A    between atoms: C_7  and  N_28 
REMARK    5  A    between atoms: C_8  and  N_9 
REMARK       I    between atoms: N_9  and  C_10 
REMARK    6  A    between atoms: C_10  and  C_12 
REMARK    7  A    between atoms: C_15  and  S_16 
REMARK    8  A    between atoms: S_16  and  C_17 
REMARK    9  A    between atoms: C_17  and  C_18 
REMARK   10  A    between atoms: C_32  and  O_33 
ROOT
ATOM      1  N   UNL d   1      29.014 -14.621   1.112  0.00  0.00    -0.354 N 
ATOM      2  C   UNL d   1      27.932 -13.957   1.664  0.00  0.00     0.256 C 
ATOM      3  O   UNL d   1      26.961 -13.630   1.017  0.00  0.00    -0.268 OA
ATOM      4  H   UNL d   1      29.711 -14.976   1.745  0.00  0.00     0.162 HD
ENDROOT
BRANCH   1   5
ATOM      5  C   UNL d   1      29.148 -14.850  -0.330  0.00  0.00     0.161 C 
BRANCH   5   6
ATOM      6  C   UNL d   1      28.986 -16.350  -0.795  0.00  0.00     0.237 C 
BRANCH   6   7
ATOM      7  C   UNL d   1      27.542 -16.801  -0.590  0.00  0.00    -0.023 C 
ATOM      8  C   UNL d   1      27.180 -17.617   0.473  0.00  0.00     0.012 C 
ATOM      9  C   UNL d   1      25.897 -18.172   0.557  0.00  0.00     0.040 C 
ATOM     10  C   UNL d   1      24.847 -17.744  -0.260  0.00  0.00     0.101 C 
ATOM     11  C   UNL d   1      25.166 -16.820  -1.258  0.00  0.00     0.102 C 
ATOM     12  C   UNL d   1      26.505 -16.449  -1.455  0.00  0.00     0.049 C 
BRANCH  10  13
ATOM     13  O   UNL d   1      23.634 -18.116   0.252  0.00  0.00    -0.353 OA
ATOM     14  C   UNL d   1      22.770 -19.020  -0.424  0.00  0.00     0.210 C 
ENDBRANCH  10  13
BRANCH  11  15
ATOM     15  O   UNL d   1      24.403 -16.070  -2.115  0.00  0.00    -0.353 OA
ATOM     16  C   UNL d   1      24.965 -14.840  -2.457  0.00  0.00     0.210 C 
ENDBRANCH  11  15
ENDBRANCH   6   7
BRANCH   6  17
ATOM     17  N   UNL d   1      29.997 -17.274  -0.076  0.00  0.00    -0.069 N 
ATOM     18  C   UNL d   1      30.390 -18.484  -0.918  0.00  0.00     0.270 C 
ATOM     19  C   UNL d   1      31.266 -16.597   0.361  0.00  0.00     0.270 C 
ATOM     20  H   UNL d   1      29.527 -17.601   0.780  0.00  0.00     0.279 HD
ENDBRANCH   6  17
ENDBRANCH   5   6
ENDBRANCH   1   5
BRANCH   2  21
ATOM     21  C   UNL d   1      27.987 -13.715   3.126  0.00  0.00     0.090 A 
ATOM     22  C   UNL d   1      28.159 -14.753   4.013  0.00  0.00     0.139 A 
ATOM     23  N   UNL d   1      28.211 -14.600   5.366  0.00  0.00    -0.234 NA
ATOM     24  C   UNL d   1      28.067 -13.353   5.836  0.00  0.00     0.189 A 
ATOM     25  N   UNL d   1      27.879 -12.287   5.059  0.00  0.00    -0.210 NA
ATOM     26  C   UNL d   1      27.814 -12.501   3.739  0.00  0.00     0.146 A 
ATOM     27 CL   UNL d   1      27.384 -11.062   2.934  0.00  0.00    -0.061 Cl
BRANCH  24  28
ATOM     28  S   UNL d   1      28.151 -12.954   7.544  0.00  0.00    -0.086 SA
BRANCH  28  29
ATOM     29  C   UNL d   1      29.935 -12.936   7.907  0.00  0.00     0.121 C 
BRANCH  29  30
ATOM     30  C   UNL d   1      30.269 -13.893   9.040  0.00  0.00    -0.049 A 
ATOM     31  C   UNL d   1      31.471 -14.614   9.040  0.00  0.00     0.008 A 
ATOM     32  C   UNL d   1      31.722 -15.574  10.026  0.00  0.00     0.007 A 
ATOM     33  C   UNL d   1      30.824 -15.766  11.082  0.00  0.00    -0.062 A 
ATOM     34  C   UNL d   1      31.159 -16.672  12.228  0.00  0.00     0.048 C 
ATOM     35  C   UNL d   1      29.626 -15.055  11.089  0.00  0.00     0.007 A 
ATOM     36  C   UNL d   1      29.345 -14.149  10.069  0.00  0.00     0.008 A 
ENDBRANCH  29  30
ENDBRANCH  28  29
ENDBRANCH  24  28
ENDBRANCH   2  21
TORSDOF 10
ENDMDL
MODEL 5
REMARK VINA RESULT:    -9.447      2.931      5.356
REMARK INTER + INTRA:         -14.107
REMARK INTER:                 -12.430
REMARK INTRA:                  -1.677
REMARK CONF_INDEPENDENT:        2.983
REMARK UNBOUND:                -1.677
REMARK  10 active torsions:
REMARK  status: ('A' for Active; 'I' for Inactive)
REMARK    1  A    between atoms: O_2  and  C_3 
REMARK    2  A    between atoms: C_6  and  C_7 
REMARK    3  A    between atoms: C_7  and  C_8 
REMARK    4  A    between atoms: C_7  and  N_28 
REMARK    5  A    between atoms: C_8  and  N_9 
REMARK       I    between atoms: N_9  and  C_10 
REMARK    6  A    between atoms: C_10  and  C_12 
REMARK    7  A    between atoms: C_15  and  S_16 
REMARK    8  A    between atoms: S_16  and  C_17 
REMARK    9  A    between atoms: C_17  and  C_18 
REMARK   10  A    between atoms: C_32  and  O_33 
ROOT
ATOM      1  N   UNL d   1      28.526 -15.565   0.815  0.00  0.00    -0.354 N 
ATOM      2  C   UNL d   1      27.732 -15.261  -0.278  0.00  0.00     0.256 C 
ATOM      3  O   UNL d   1      27.962 -14.329  -1.018  0.00  0.00    -0.268 OA
ATOM      4  H   UNL d   1      28.344 -16.433   1.292  0.00  0.00     0.162 HD
ENDROOT
BRANCH   1   5
ATOM      5  C   UNL d   1      29.622 -14.699   1.261  0.00  0.00     0.161 C 
BRANCH   5   6
ATOM      6  C   UNL d   1      31.062 -15.125   0.776  0.00  0.00     0.237 C 
BRANCH   6   7
ATOM      7  C   UNL d   1      30.950 -15.969  -0.492  0.00  0.00    -0.023 C 
ATOM      8  C   UNL d   1      30.931 -17.356  -0.442  0.00  0.00     0.012 C 
ATOM      9  C   UNL d   1      31.009 -18.125  -1.610  0.00  0.00     0.040 C 
ATOM     10  C   UNL d   1      30.852 -17.566  -2.880  0.00  0.00     0.101 C 
ATOM     11  C   UNL d   1      30.738 -16.175  -2.942  0.00  0.00     0.102 C 
ATOM     12  C   UNL d   1      30.883 -15.415  -1.771  0.00  0.00     0.049 C 
BRANCH  10  13
ATOM     13  O   UNL d   1      30.567 -18.523  -3.815  0.00  0.00    -0.353 OA
ATOM     14  C   UNL d   1      31.283 -18.626  -5.038  0.00  0.00     0.210 C 
ENDBRANCH  10  13
BRANCH  11  15
ATOM     15  O   UNL d   1      30.418 -15.308  -3.955  0.00  0.00    -0.353 OA
ATOM     16  C   UNL d   1      29.513 -14.311  -3.592  0.00  0.00     0.210 C 
ENDBRANCH  11  15
ENDBRANCH   6   7
BRANCH   6  17
ATOM     17  N   UNL d   1      31.842 -15.851   1.897  0.00  0.00    -0.069 N 
ATOM     18  C   UNL d   1      33.304 -16.093   1.534  0.00  0.00     0.270 C 
ATOM     19  C   UNL d   1      31.816 -15.156   3.230  0.00  0.00     0.270 C 
ATOM     20  H   UNL d   1      31.375 -16.759   2.028  0.00  0.00     0.279 HD
ENDBRANCH   6  17
ENDBRANCH   5   6
ENDBRANCH   1   5
BRANCH   2  21
ATOM     21  C   UNL d   1      26.602 -16.183  -0.545  0.00  0.00     0.090 A 
ATOM     22  C   UNL d   1      26.416 -17.317   0.210  0.00  0.00     0.139 A 
ATOM     23  N   UNL d   1      25.403 -18.208   0.013  0.00  0.00    -0.234 NA
ATOM     24  C   UNL d   1      24.562 -17.947  -0.997  0.00  0.00     0.189 A 
ATOM     25  N   UNL d   1      24.670 -16.884  -1.794  0.00  0.00    -0.210 NA
ATOM     26  C   UNL d   1      25.696 -16.056  -1.566  0.00  0.00     0.146 A 
ATOM     27 CL   UNL d   1      25.777 -14.875  -2.792  0.00  0.00    -0.061 Cl
BRANCH  24  28
ATOM     28  S   UNL d   1      23.173 -18.953  -1.376  0.00  0.00    -0.086 SA
BRANCH  28  29
ATOM     29  C   UNL d   1      21.757 -18.023  -0.711  0.00  0.00     0.121 C 
BRANCH  29  30
ATOM     30  C   UNL d   1      20.686 -18.965  -0.185  0.00  0.00    -0.049 A 
ATOM     31  C   UNL d   1      19.647 -19.408  -1.016  0.00  0.00     0.008 A 
ATOM     32  C   UNL d   1      18.605 -20.185  -0.497  0.00  0.00     0.007 A 
ATOM     33  C   UNL d   1      18.629 -20.613   0.835  0.00  0.00    -0.062 A 
ATOM     34  C   UNL d   1      17.606 -21.577   1.356  0.00  0.00     0.048 C 
ATOM     35  C   UNL d   1      19.656 -20.176   1.669  0.00  0.00     0.007 A 
ATOM     36  C   UNL d   1      20.657 -19.345   1.169  0.00  0.00     0.008 A 
ENDBRANCH  29  30
ENDBRANCH  28  29
ENDBRANCH  24  28
ENDBRANCH   2  21
TORSDOF 10
ENDMDL
MODEL 6
REMARK VINA RESULT:    -9.437      3.866      6.301
REMARK INTER + INTRA:         -13.723
REMARK INTER:                 -12.420
REMARK INTRA:                  -1.303
REMARK CONF_INDEPENDENT:        2.983
REMARK UNBOUND:                -1.303
REMARK  10 active torsions:
REMARK  status: ('A' for Active; 'I' for Inactive)
REMARK    1  A    between atoms: O_2  and  C_3 
REMARK    2  A    between atoms: C_6  and  C_7 
REMARK    3  A    between atoms: C_7  and  C_8 
REMARK    4  A    between atoms: C_7  and  N_28 
REMARK    5  A    between atoms: C_8  and  N_9 
REMARK       I    between atoms: N_9  and  C_10 
REMARK    6  A    between atoms: C_10  and  C_12 
REMARK    7  A    between atoms: C_15  and  S_16 
REMARK    8  A    between atoms: S_16  and  C_17 
REMARK    9  A    between atoms: C_17  and  C_18 
REMARK   10  A    between atoms: C_32  and  O_33 
ROOT
ATOM      1  N   UNL d   1      29.478 -16.740   0.109  0.00  0.00    -0.354 N 
ATOM      2  C   UNL d   1      28.502 -15.952  -0.477  0.00  0.00     0.256 C 
ATOM      3  O   UNL d   1      28.711 -14.820  -0.855  0.00  0.00    -0.268 OA
ATOM      4  H   UNL d   1      29.258 -17.710   0.265  0.00  0.00     0.162 HD
ENDROOT
BRANCH   1   5
ATOM      5  C   UNL d   1      30.804 -16.224   0.462  0.00  0.00     0.161 C 
BRANCH   5   6
ATOM      6  C   UNL d   1      32.024 -17.053  -0.098  0.00  0.00     0.237 C 
BRANCH   6   7
ATOM      7  C   UNL d   1      31.983 -17.065  -1.625  0.00  0.00    -0.023 C 
ATOM      8  C   UNL d   1      32.780 -16.214  -2.379  0.00  0.00     0.012 C 
ATOM      9  C   UNL d   1      32.611 -16.103  -3.765  0.00  0.00     0.040 C 
ATOM     10  C   UNL d   1      31.832 -17.004  -4.494  0.00  0.00     0.101 C 
ATOM     11  C   UNL d   1      31.120 -17.955  -3.759  0.00  0.00     0.102 C 
ATOM     12  C   UNL d   1      31.140 -17.902  -2.357  0.00  0.00     0.049 C 
BRANCH  10  13
ATOM     13  O   UNL d   1      32.127 -16.952  -5.829  0.00  0.00    -0.353 OA
ATOM     14  C   UNL d   1      31.320 -17.590  -6.810  0.00  0.00     0.210 C 
ENDBRANCH  10  13
BRANCH  11  15
ATOM     15  O   UNL d   1      30.405 -19.069  -4.116  0.00  0.00    -0.353 OA
ATOM     16  C   UNL d   1      31.109 -20.267  -3.993  0.00  0.00     0.210 C 
ENDBRANCH  11  15
ENDBRANCH   6   7
BRANCH   6  17
ATOM     17  N   UNL d   1      32.058 -18.479   0.500  0.00  0.00    -0.069 N 
ATOM     18  C   UNL d   1      32.773 -19.479  -0.403  0.00  0.00     0.270 C 
ATOM     19  C   UNL d   1      32.684 -18.573   1.863  0.00  0.00     0.270 C 
ATOM     20  H   UNL d   1      31.075 -18.768   0.605  0.00  0.00     0.279 HD
ENDBRANCH   6  17
ENDBRANCH   5   6
ENDBRANCH   1   5
BRANCH   2  21
ATOM     21  C   UNL d   1      27.180 -16.591  -0.683  0.00  0.00     0.090 A 
ATOM     22  C   UNL d   1      26.728 -17.579   0.160  0.00  0.00     0.139 A 
ATOM     23  N   UNL d   1      25.528 -18.210   0.023  0.00  0.00    -0.234 NA
ATOM     24  C   UNL d   1      24.768 -17.838  -1.018  0.00  0.00     0.189 A 
ATOM     25  N   UNL d   1      25.127 -16.903  -1.898  0.00  0.00    -0.210 NA
ATOM     26  C   UNL d   1      26.326 -16.334  -1.724  0.00  0.00     0.146 A 
ATOM     27 CL   UNL d   1      26.683 -15.314  -3.042  0.00  0.00    -0.061 Cl
BRANCH  24  28
ATOM     28  S   UNL d   1      23.175 -18.505  -1.332  0.00  0.00    -0.086 SA
BRANCH  28  29
ATOM     29  C   UNL d   1      22.191 -18.004   0.116  0.00  0.00     0.121 C 
BRANCH  29  30
ATOM     30  C   UNL d   1      21.022 -18.950   0.333  0.00  0.00    -0.049 A 
ATOM     31  C   UNL d   1      20.223 -19.364  -0.741  0.00  0.00     0.008 A 
ATOM     32  C   UNL d   1      19.084 -20.145  -0.520  0.00  0.00     0.007 A 
ATOM     33  C   UNL d   1      18.773 -20.607   0.764  0.00  0.00    -0.062 A 
ATOM     34  C   UNL d   1      17.651 -21.575   0.988  0.00  0.00     0.048 C 
ATOM     35  C   UNL d   1      19.560 -20.199   1.839  0.00  0.00     0.007 A 
ATOM     36  C   UNL d   1      20.655 -19.364   1.627  0.00  0.00     0.008 A 
ENDBRANCH  29  30
ENDBRANCH  28  29
ENDBRANCH  24  28
ENDBRANCH   2  21
TORSDOF 10
ENDMDL
MODEL 7
REMARK VINA RESULT:    -9.045      3.101      5.578
REMARK INTER + INTRA:         -14.077
REMARK INTER:                 -12.028
REMARK INTRA:                  -2.049
REMARK CONF_INDEPENDENT:        2.983
REMARK UNBOUND:                -2.049
REMARK  10 active torsions:
REMARK  status: ('A' for Active; 'I' for Inactive)
REMARK    1  A    between atoms: O_2  and  C_3 
REMARK    2  A    between atoms: C_6  and  C_7 
REMARK    3  A    between atoms: C_7  and  C_8 
REMARK    4  A    between atoms: C_7  and  N_28 
REMARK    5  A    between atoms: C_8  and  N_9 
REMARK       I    between atoms: N_9  and  C_10 
REMARK    6  A    between atoms: C_10  and  C_12 
REMARK    7  A    between atoms: C_15  and  S_16 
REMARK    8  A    between atoms: S_16  and  C_17 
REMARK    9  A    between atoms: C_17  and  C_18 
REMARK   10  A    between atoms: C_32  and  O_33 
ROOT
ATOM      1  N   UNL d   1      28.736 -15.281  -0.806  0.00  0.00    -0.354 N 
ATOM      2  C   UNL d   1      27.922 -15.678   0.241  0.00  0.00     0.256 C 
ATOM      3  O   UNL d   1      28.107 -15.324   1.386  0.00  0.00    -0.268 OA
ATOM      4  H   UNL d   1      28.431 -15.505  -1.739  0.00  0.00     0.162 HD
ENDROOT
BRANCH   1   5
ATOM      5  C   UNL d   1      29.976 -14.527  -0.602  0.00  0.00     0.161 C 
BRANCH   5   6
ATOM      6  C   UNL d   1      31.121 -15.301   0.160  0.00  0.00     0.237 C 
BRANCH   6   7
ATOM      7  C   UNL d   1      31.253 -16.714  -0.404  0.00  0.00    -0.023 C 
ATOM      8  C   UNL d   1      30.811 -17.030  -1.681  0.00  0.00     0.012 C 
ATOM      9  C   UNL d   1      30.770 -18.357  -2.126  0.00  0.00     0.040 C 
ATOM     10  C   UNL d   1      31.396 -19.394  -1.431  0.00  0.00     0.101 C 
ATOM     11  C   UNL d   1      31.963 -19.068  -0.197  0.00  0.00     0.102 C 
ATOM     12  C   UNL d   1      31.797 -17.775   0.322  0.00  0.00     0.049 C 
BRANCH  10  13
ATOM     13  O   UNL d   1      31.570 -20.494  -2.226  0.00  0.00    -0.353 OA
ATOM     14  C   UNL d   1      32.646 -21.403  -2.038  0.00  0.00     0.210 C 
ENDBRANCH  10  13
BRANCH  11  15
ATOM     15  O   UNL d   1      32.777 -19.754   0.668  0.00  0.00    -0.353 OA
ATOM     16  C   UNL d   1      33.375 -18.958   1.645  0.00  0.00     0.210 C 
ENDBRANCH  11  15
ENDBRANCH   6   7
BRANCH   6  17
ATOM     17  N   UNL d   1      30.882 -15.298   1.688  0.00  0.00    -0.069 N 
ATOM     18  C   UNL d   1      32.099 -15.773   2.476  0.00  0.00     0.270 C 
ATOM     19  C   UNL d   1      30.467 -13.970   2.256  0.00  0.00     0.270 C 
ATOM     20  H   UNL d   1      30.100 -15.948   1.856  0.00  0.00     0.279 HD
ENDBRANCH   6  17
ENDBRANCH   5   6
ENDBRANCH   1   5
BRANCH   2  21
ATOM     21  C   UNL d   1      26.755 -16.518  -0.116  0.00  0.00     0.090 A 
ATOM     22  C   UNL d   1      26.542 -17.735   0.489  0.00  0.00     0.139 A 
ATOM     23  N   UNL d   1      25.494 -18.558   0.201  0.00  0.00    -0.234 NA
ATOM     24  C   UNL d   1      24.643 -18.139  -0.746  0.00  0.00     0.189 A 
ATOM     25  N   UNL d   1      24.775 -16.985  -1.401  0.00  0.00    -0.210 NA
ATOM     26  C   UNL d   1      25.835 -16.229  -1.091  0.00  0.00     0.146 A 
ATOM     27 CL   UNL d   1      25.934 -14.901  -2.154  0.00  0.00    -0.061 Cl
BRANCH  24  28
ATOM     28  S   UNL d   1      23.212 -19.040  -1.220  0.00  0.00    -0.086 SA
BRANCH  28  29
ATOM     29  C   UNL d   1      21.830 -18.056  -0.559  0.00  0.00     0.121 C 
BRANCH  29  30
ATOM     30  C   UNL d   1      20.718 -18.957  -0.047  0.00  0.00    -0.049 A 
ATOM     31  C   UNL d   1      20.657 -19.328   1.303  0.00  0.00     0.008 A 
ATOM     32  C   UNL d   1      19.696 -20.244   1.745  0.00  0.00     0.007 A 
ATOM     33  C   UNL d   1      18.720 -20.734   0.870  0.00  0.00    -0.062 A 
ATOM     34  C   UNL d   1      17.592 -21.586   1.367  0.00  0.00     0.048 C 
ATOM     35  C   UNL d   1      18.774 -20.372  -0.475  0.00  0.00     0.007 A 
ATOM     36  C   UNL d   1      19.773 -19.514  -0.929  0.00  0.00     0.008 A 
ENDBRANCH  29  30
ENDBRANCH  28  29
ENDBRANCH  24  28
ENDBRANCH   2  21
TORSDOF 10
ENDMDL
MODEL 8
REMARK VINA RESULT:    -8.947      3.719     10.042
REMARK INTER + INTRA:         -13.749
REMARK INTER:                 -11.930
REMARK INTRA:                  -1.819
REMARK CONF_INDEPENDENT:        2.983
REMARK UNBOUND:                -1.819
REMARK  10 active torsions:
REMARK  status: ('A' for Active; 'I' for Inactive)
REMARK    1  A    between atoms: O_2  and  C_3 
REMARK    2  A    between atoms: C_6  and  C_7 
REMARK    3  A    between atoms: C_7  and  C_8 
REMARK    4  A    between atoms: C_7  and  N_28 
REMARK    5  A    between atoms: C_8  and  N_9 
REMARK       I    between atoms: N_9  and  C_10 
REMARK    6  A    between atoms: C_10  and  C_12 
REMARK    7  A    between atoms: C_15  and  S_16 
REMARK    8  A    between atoms: S_16  and  C_17 
REMARK    9  A    between atoms: C_17  and  C_18 
REMARK   10  A    between atoms: C_32  and  O_33 
ROOT
ATOM      1  N   UNL d   1      28.840 -14.602   1.645  0.00  0.00    -0.354 N 
ATOM      2  C   UNL d   1      27.970 -13.861   2.428  0.00  0.00     0.256 C 
ATOM      3  O   UNL d   1      27.034 -13.245   1.967  0.00  0.00    -0.268 OA
ATOM      4  H   UNL d   1      29.502 -15.192   2.121  0.00  0.00     0.162 HD
ENDROOT
BRANCH   1   5
ATOM      5  C   UNL d   1      28.797 -14.581   0.180  0.00  0.00     0.161 C 
BRANCH   5   6
ATOM      6  C   UNL d   1      28.731 -15.997  -0.515  0.00  0.00     0.237 C 
BRANCH   6   7
ATOM      7  C   UNL d   1      27.327 -16.580  -0.367  0.00  0.00    -0.023 C 
ATOM      8  C   UNL d   1      27.038 -17.542   0.591  0.00  0.00     0.012 C 
ATOM      9  C   UNL d   1      25.802 -18.200   0.606  0.00  0.00     0.040 C 
ATOM     10  C   UNL d   1      24.717 -17.762  -0.155  0.00  0.00     0.101 C 
ATOM     11  C   UNL d   1      24.955 -16.704  -1.036  0.00  0.00     0.102 C 
ATOM     12  C   UNL d   1      26.260 -16.209  -1.186  0.00  0.00     0.049 C 
BRANCH  10  13
ATOM     13  O   UNL d   1      23.540 -18.285   0.307  0.00  0.00    -0.353 OA
ATOM     14  C   UNL d   1      22.543 -18.799  -0.566  0.00  0.00     0.210 C 
ENDBRANCH  10  13
BRANCH  11  15
ATOM     15  O   UNL d   1      24.130 -15.920  -1.799  0.00  0.00    -0.353 OA
ATOM     16  C   UNL d   1      24.798 -14.985  -2.591  0.00  0.00     0.210 C 
ENDBRANCH  11  15
ENDBRANCH   6   7
BRANCH   6  17
ATOM     17  N   UNL d   1      29.822 -16.946   0.036  0.00  0.00    -0.069 N 
ATOM     18  C   UNL d   1      30.088 -18.133  -0.884  0.00  0.00     0.270 C 
ATOM     19  C   UNL d   1      31.143 -16.287   0.317  0.00  0.00     0.270 C 
ATOM     20  H   UNL d   1      29.468 -17.294   0.938  0.00  0.00     0.279 HD
ENDBRANCH   6  17
ENDBRANCH   5   6
ENDBRANCH   1   5
BRANCH   2  21
ATOM     21  C   UNL d   1      28.202 -13.909   3.891  0.00  0.00     0.090 A 
ATOM     22  C   UNL d   1      28.323 -15.108   4.554  0.00  0.00     0.139 A 
ATOM     23  N   UNL d   1      28.530 -15.222   5.896  0.00  0.00    -0.234 NA
ATOM     24  C   UNL d   1      28.598 -14.078   6.593  0.00  0.00     0.189 A 
ATOM     25  N   UNL d   1      28.475 -12.870   6.044  0.00  0.00    -0.210 NA
ATOM     26  C   UNL d   1      28.252 -12.821   4.725  0.00  0.00     0.146 A 
ATOM     27 CL   UNL d   1      27.937 -11.217   4.245  0.00  0.00    -0.061 Cl
BRANCH  24  28
ATOM     28  S   UNL d   1      28.904 -14.022   8.321  0.00  0.00    -0.086 SA
BRANCH  28  29
ATOM     29  C   UNL d   1      30.517 -13.189   8.459  0.00  0.00     0.121 C 
BRANCH  29  30
ATOM     30  C   UNL d   1      30.420 -11.739   8.013  0.00  0.00    -0.049 A 
ATOM     31  C   UNL d   1      29.433 -10.891   8.534  0.00  0.00     0.008 A 
ATOM     32  C   UNL d   1      29.280  -9.591   8.039  0.00  0.00     0.007 A 
ATOM     33  C   UNL d   1      30.167  -9.082   7.084  0.00  0.00    -0.062 A 
ATOM     34  C   UNL d   1      30.113  -7.643   6.667  0.00  0.00     0.048 C 
ATOM     35  C   UNL d   1      31.150  -9.918   6.558  0.00  0.00     0.007 A 
ATOM     36  C   UNL d   1      31.258 -11.235   7.002  0.00  0.00     0.008 A 
ENDBRANCH  29  30
ENDBRANCH  28  29
ENDBRANCH  24  28
ENDBRANCH   2  21
TORSDOF 10
ENDMDL
MODEL 9
REMARK VINA RESULT:    -8.673      3.747      9.363
REMARK INTER + INTRA:         -13.739
REMARK INTER:                 -11.656
REMARK INTRA:                  -2.083
REMARK CONF_INDEPENDENT:        2.983
REMARK UNBOUND:                -2.083
REMARK  10 active torsions:
REMARK  status: ('A' for Active; 'I' for Inactive)
REMARK    1  A    between atoms: O_2  and  C_3 
REMARK    2  A    between atoms: C_6  and  C_7 
REMARK    3  A    between atoms: C_7  and  C_8 
REMARK    4  A    between atoms: C_7  and  N_28 
REMARK    5  A    between atoms: C_8  and  N_9 
REMARK       I    between atoms: N_9  and  C_10 
REMARK    6  A    between atoms: C_10  and  C_12 
REMARK    7  A    between atoms: C_15  and  S_16 
REMARK    8  A    between atoms: S_16  and  C_17 
REMARK    9  A    between atoms: C_17  and  C_18 
REMARK   10  A    between atoms: C_32  and  O_33 
ROOT
ATOM      1  N   UNL d   1      29.518 -15.049   1.182  0.00  0.00    -0.354 N 
ATOM      2  C   UNL d   1      28.595 -14.283   1.873  0.00  0.00     0.256 C 
ATOM      3  O   UNL d   1      27.671 -13.719   1.329  0.00  0.00    -0.268 OA
ATOM      4  H   UNL d   1      30.168 -15.593   1.725  0.00  0.00     0.162 HD
ENDROOT
BRANCH   1   5
ATOM      5  C   UNL d   1      29.547 -15.122  -0.282  0.00  0.00     0.161 C 
BRANCH   5   6
ATOM      6  C   UNL d   1      29.279 -16.552  -0.895  0.00  0.00     0.237 C 
BRANCH   6   7
ATOM      7  C   UNL d   1      27.807 -16.920  -0.723  0.00  0.00    -0.023 C 
ATOM      8  C   UNL d   1      27.377 -17.726   0.322  0.00  0.00     0.012 C 
ATOM      9  C   UNL d   1      26.062 -18.205   0.374  0.00  0.00     0.040 C 
ATOM     10  C   UNL d   1      25.056 -17.707  -0.457  0.00  0.00     0.101 C 
ATOM     11  C   UNL d   1      25.448 -16.792  -1.437  0.00  0.00     0.102 C 
ATOM     12  C   UNL d   1      26.810 -16.498  -1.604  0.00  0.00     0.049 C 
BRANCH  10  13
ATOM     13  O   UNL d   1      23.813 -18.013   0.027  0.00  0.00    -0.353 OA
ATOM     14  C   UNL d   1      22.800 -18.585  -0.790  0.00  0.00     0.210 C 
ENDBRANCH  10  13
BRANCH  11  15
ATOM     15  O   UNL d   1      24.747 -15.989  -2.299  0.00  0.00    -0.353 OA
ATOM     16  C   UNL d   1      25.468 -14.895  -2.778  0.00  0.00     0.210 C 
ENDBRANCH  11  15
ENDBRANCH   6   7
BRANCH   6  17
ATOM     17  N   UNL d   1      30.224 -17.612  -0.282  0.00  0.00    -0.069 N 
ATOM     18  C   UNL d   1      30.577 -18.724  -1.266  0.00  0.00     0.270 C 
ATOM     19  C   UNL d   1      31.513 -17.064   0.262  0.00  0.00     0.270 C 
ATOM     20  H   UNL d   1      29.717 -18.021   0.516  0.00  0.00     0.279 HD
ENDBRANCH   6  17
ENDBRANCH   5   6
ENDBRANCH   1   5
BRANCH   2  21
ATOM     21  C   UNL d   1      28.756 -14.233   3.346  0.00  0.00     0.090 A 
ATOM     22  C   UNL d   1      27.700 -14.497   4.186  0.00  0.00     0.139 A 
ATOM     23  N   UNL d   1      27.778 -14.462   5.546  0.00  0.00    -0.234 NA
ATOM     24  C   UNL d   1      28.966 -14.130   6.071  0.00  0.00     0.189 A 
ATOM     25  N   UNL d   1      30.043 -13.840   5.340  0.00  0.00    -0.210 NA
ATOM     26  C   UNL d   1      29.899 -13.870   4.010  0.00  0.00     0.146 A 
ATOM     27 CL   UNL d   1      31.315 -13.292   3.258  0.00  0.00    -0.061 Cl
BRANCH  24  28
ATOM     28  S   UNL d   1      29.272 -14.076   7.799  0.00  0.00    -0.086 SA
BRANCH  28  29
ATOM     29  C   UNL d   1      29.238 -12.301   8.201  0.00  0.00     0.121 C 
BRANCH  29  30
ATOM     30  C   UNL d   1      29.091 -11.461   6.943  0.00  0.00    -0.049 A 
ATOM     31  C   UNL d   1      27.875 -11.414   6.248  0.00  0.00     0.008 A 
ATOM     32  C   UNL d   1      27.778 -10.729   5.032  0.00  0.00     0.007 A 
ATOM     33  C   UNL d   1      28.863 -10.000   4.534  0.00  0.00    -0.062 A 
ATOM     34  C   UNL d   1      28.722  -9.132   3.320  0.00  0.00     0.048 C 
ATOM     35  C   UNL d   1      30.078 -10.042   5.217  0.00  0.00     0.007 A 
ATOM     36  C   UNL d   1      30.193 -10.781   6.393  0.00  0.00     0.008 A 
ENDBRANCH  29  30
ENDBRANCH  28  29
ENDBRANCH  24  28
ENDBRANCH   2  21
TORSDOF 10
ENDMDL
