MODEL 1
REMARK VINA RESULT:    -8.594      0.000      0.000
REMARK INTER + INTRA:         -13.212
REMARK INTER:                 -11.577
REMARK INTRA:                  -1.634
REMARK CONF_INDEPENDENT:        2.983
REMARK UNBOUND:                -1.634
REMARK  10 active torsions:
REMARK  status: ('A' for Active; 'I' for Inactive)
REMARK    1  A    between atoms: N_2  and  C_3 
REMARK    2  A    between atoms: N_2  and  C_28 
REMARK    3  A    between atoms: C_3  and  C_4 
REMARK    4  A    between atoms: C_4  and  C_5 
REMARK    5  A    between atoms: C_5  and  N_6 
REMARK       I    between atoms: N_6  and  C_7 
REMARK    6  A    between atoms: C_7  and  C_9 
REMARK    7  A    between atoms: C_9  and  S_10 
REMARK    8  A    between atoms: S_10  and  C_11 
REMARK    9  A    between atoms: C_14  and  C_15 
REMARK   10  A    between atoms: N_24  and  C_25 
ROOT
ATOM      1  C   UNL d   1      30.132 -13.840   4.154  0.00  0.00     0.268 C 
ATOM      2  N   UNL d   1      29.104 -14.817   4.524  0.00  0.00    -0.279 N 
ATOM      3  N   UNL d   1      28.582 -14.683   5.784  0.00  0.00    -0.158 NA
ATOM      4  C   UNL d   1      29.107 -13.601   6.250  0.00  0.00     0.157 C 
ATOM      5  N   UNL d   1      30.142 -13.062   5.417  0.00  0.00    -0.328 N 
ATOM      6  H   UNL d   1      29.223 -15.762   4.165  0.00  0.00     0.185 HD
ENDROOT
BRANCH   1   7
ATOM      7  S   UNL d   1      29.605 -12.848   2.733  0.00  0.00    -0.112 SA
BRANCH   7   8
ATOM      8  C   UNL d   1      27.743 -12.964   2.761  0.00  0.00     0.180 C 
BRANCH   8   9
ATOM      9  C   UNL d   1      27.242 -14.024   1.765  0.00  0.00     0.227 C 
ATOM     10  N   UNL d   1      27.956 -15.214   1.728  0.00  0.00    -0.360 N 
ATOM     11  H   UNL d   1      28.753 -15.383   2.330  0.00  0.00     0.162 HD
ATOM     12  O   UNL d   1      26.297 -13.830   1.001  0.00  0.00    -0.273 OA
BRANCH  10  13
ATOM     13  C   UNL d   1      27.531 -16.274   0.811  0.00  0.00     0.124 C 
BRANCH  13  14
ATOM     14  C   UNL d   1      27.913 -15.990  -0.634  0.00  0.00     0.039 C 
BRANCH  14  15
ATOM     15  C   UNL d   1      27.003 -16.703  -1.643  0.00  0.00     0.124 C 
BRANCH  15  16
ATOM     16  N   UNL d   1      25.638 -16.156  -1.695  0.00  0.00    -0.385 N 
ATOM     17  C   UNL d   1      25.348 -14.796  -2.137  0.00  0.00     0.149 C 
BRANCH  16  18
ATOM     18  C   UNL d   1      24.580 -16.878  -1.129  0.00  0.00     0.029 A 
ATOM     19  C   UNL d   1      24.772 -18.170  -0.610  0.00  0.00     0.029 A 
ATOM     20  C   UNL d   1      23.704 -18.950  -0.144  0.00  0.00     0.002 A 
ATOM     21  C   UNL d   1      22.420 -18.420  -0.108  0.00  0.00     0.000 A 
ATOM     22  C   UNL d   1      22.215 -17.109  -0.520  0.00  0.00     0.002 A 
ATOM     23  C   UNL d   1      23.275 -16.365  -1.058  0.00  0.00     0.029 A 
ENDBRANCH  16  18
ENDBRANCH  15  16
ENDBRANCH  14  15
ENDBRANCH  13  14
ENDBRANCH  10  13
ENDBRANCH   8   9
ENDBRANCH   7   8
ENDBRANCH   1   7
BRANCH   5  24
ATOM     24  C   UNL d   1      31.202 -12.193   5.838  0.00  0.00     0.089 A 
ATOM     25  C   UNL d   1      32.079 -11.464   4.849  0.00  0.00     0.027 A 
ATOM     26  C   UNL d   1      31.060 -10.707   5.644  0.00  0.00     0.027 A 
ENDBRANCH   5  24
BRANCH   4  27
ATOM     27  C   UNL d   1      28.702 -12.883   7.467  0.00  0.00     0.019 A 
ATOM     28  C   UNL d   1      28.716 -13.430   8.688  0.00  0.00     0.002 A 
ATOM     29  C   UNL d   1      28.956 -14.741   9.196  0.00  0.00     0.014 A 
ATOM     30  C   UNL d   1      28.511 -12.300   9.627  0.00  0.00     0.039 A 
ATOM     31  C   UNL d   1      28.921 -14.938  10.523  0.00  0.00     0.001 A 
ATOM     32  C   UNL d   1      28.674 -13.852  11.459  0.00  0.00     0.002 A 
ATOM     33  C   UNL d   1      28.481 -12.575  11.076  0.00  0.00     0.030 A 
ATOM     34  N   UNL d   1      28.400 -11.178   9.010  0.00  0.00    -0.385 N 
ATOM     35  C   UNL d   1      28.535 -11.397   7.545  0.00  0.00     0.163 A 
ATOM     36  H   UNL d   1      28.253 -10.294   9.494  0.00  0.00     0.160 HD
ENDBRANCH   4  27
TORSDOF 10
ENDMDL
MODEL 2
REMARK VINA RESULT:    -8.198      1.656      2.706
REMARK INTER + INTRA:         -12.720
REMARK INTER:                 -11.181
REMARK INTRA:                  -1.539
REMARK CONF_INDEPENDENT:        2.983
REMARK UNBOUND:                -1.539
REMARK  10 active torsions:
REMARK  status: ('A' for Active; 'I' for Inactive)
REMARK    1  A    between atoms: N_2  and  C_3 
REMARK    2  A    between atoms: N_2  and  C_28 
REMARK    3  A    between atoms: C_3  and  C_4 
REMARK    4  A    between atoms: C_4  and  C_5 
REMARK    5  A    between atoms: C_5  and  N_6 
REMARK       I    between atoms: N_6  and  C_7 
REMARK    6  A    between atoms: C_7  and  C_9 
REMARK    7  A    between atoms: C_9  and  S_10 
REMARK    8  A    between atoms: S_10  and  C_11 
REMARK    9  A    between atoms: C_14  and  C_15 
REMARK   10  A    between atoms: N_24  and  C_25 
ROOT
ATOM      1  C   UNL d   1      27.883 -11.331   4.894  0.00  0.00     0.268 C 
ATOM      2  N   UNL d   1      28.263 -10.289   5.852  0.00  0.00    -0.279 N 
ATOM      3  N   UNL d   1      28.709 -10.734   7.069  0.00  0.00    -0.158 NA
ATOM      4  C   UNL d   1      28.768 -12.017   6.955  0.00  0.00     0.157 C 
ATOM      5  N   UNL d   1      28.190 -12.511   5.739  0.00  0.00    -0.328 N 
ATOM      6  H   UNL d   1      27.710  -9.434   5.840  0.00  0.00     0.185 HD
ENDROOT
BRANCH   1   7
ATOM      7  S   UNL d   1      28.916 -11.256   3.407  0.00  0.00    -0.112 SA
BRANCH   7   8
ATOM      8  C   UNL d   1      27.703 -10.941   2.025  0.00  0.00     0.180 C 
BRANCH   8   9
ATOM      9  C   UNL d   1      26.956 -12.230   1.644  0.00  0.00     0.227 C 
ATOM     10  N   UNL d   1      27.735 -13.262   1.139  0.00  0.00    -0.360 N 
ATOM     11  H   UNL d   1      28.740 -13.179   1.038  0.00  0.00     0.162 HD
ATOM     12  O   UNL d   1      25.733 -12.344   1.725  0.00  0.00    -0.273 OA
BRANCH  10  13
ATOM     13  C   UNL d   1      27.094 -14.524   0.762  0.00  0.00     0.124 C 
BRANCH  13  14
ATOM     14  C   UNL d   1      27.995 -15.730   0.976  0.00  0.00     0.039 C 
BRANCH  14  15
ATOM     15  C   UNL d   1      27.345 -17.047   0.535  0.00  0.00     0.124 C 
BRANCH  15  16
ATOM     16  N   UNL d   1      26.534 -16.925  -0.687  0.00  0.00    -0.385 N 
ATOM     17  C   UNL d   1      27.031 -16.293  -1.905  0.00  0.00     0.149 C 
BRANCH  16  18
ATOM     18  C   UNL d   1      25.172 -17.245  -0.649  0.00  0.00     0.029 A 
ATOM     19  C   UNL d   1      24.191 -16.314  -1.032  0.00  0.00     0.029 A 
ATOM     20  C   UNL d   1      22.821 -16.578  -0.893  0.00  0.00     0.002 A 
ATOM     21  C   UNL d   1      22.395 -17.820  -0.441  0.00  0.00     0.000 A 
ATOM     22  C   UNL d   1      23.338 -18.797  -0.150  0.00  0.00     0.002 A 
ATOM     23  C   UNL d   1      24.707 -18.498  -0.217  0.00  0.00     0.029 A 
ENDBRANCH  16  18
ENDBRANCH  15  16
ENDBRANCH  14  15
ENDBRANCH  13  14
ENDBRANCH  10  13
ENDBRANCH   8   9
ENDBRANCH   7   8
ENDBRANCH   1   7
BRANCH   5  24
ATOM     24  C   UNL d   1      27.683 -13.834   5.519  0.00  0.00     0.089 A 
ATOM     25  C   UNL d   1      27.586 -14.433   4.137  0.00  0.00     0.027 A 
ATOM     26  C   UNL d   1      28.628 -14.925   5.094  0.00  0.00     0.027 A 
ENDBRANCH   5  24
BRANCH   4  27
ATOM     27  C   UNL d   1      29.407 -12.952   7.892  0.00  0.00     0.019 A 
ATOM     28  C   UNL d   1      28.977 -13.155   9.143  0.00  0.00     0.002 A 
ATOM     29  C   UNL d   1      27.985 -12.552   9.972  0.00  0.00     0.014 A 
ATOM     30  C   UNL d   1      29.713 -14.351   9.621  0.00  0.00     0.039 A 
ATOM     31  C   UNL d   1      27.788 -13.041  11.205  0.00  0.00     0.001 A 
ATOM     32  C   UNL d   1      28.533 -14.184  11.712  0.00  0.00     0.002 A 
ATOM     33  C   UNL d   1      29.456 -14.845  10.988  0.00  0.00     0.030 A 
ATOM     34  N   UNL d   1      30.500 -14.822   8.722  0.00  0.00    -0.385 N 
ATOM     35  C   UNL d   1      30.389 -14.006   7.483  0.00  0.00     0.163 A 
ATOM     36  H   UNL d   1      31.086 -15.640   8.874  0.00  0.00     0.160 HD
ENDBRANCH   4  27
TORSDOF 10
ENDMDL
MODEL 3
REMARK VINA RESULT:    -8.129      7.320     10.949
REMARK INTER + INTRA:         -12.867
REMARK INTER:                 -11.112
REMARK INTRA:                  -1.755
REMARK CONF_INDEPENDENT:        2.983
REMARK UNBOUND:                -1.755
REMARK  10 active torsions:
REMARK  status: ('A' for Active; 'I' for Inactive)
REMARK    1  A    between atoms: N_2  and  C_3 
REMARK    2  A    between atoms: N_2  and  C_28 
REMARK    3  A    between atoms: C_3  and  C_4 
REMARK    4  A    between atoms: C_4  and  C_5 
REMARK    5  A    between atoms: C_5  and  N_6 
REMARK       I    between atoms: N_6  and  C_7 
REMARK    6  A    between atoms: C_7  and  C_9 
REMARK    7  A    between atoms: C_9  and  S_10 
REMARK    8  A    between atoms: S_10  and  C_11 
REMARK    9  A    between atoms: C_14  and  C_15 
REMARK   10  A    between atoms: N_24  and  C_25 
ROOT
ATOM      1  C   UNL d   1      25.579 -13.890  -4.486  0.00  0.00     0.268 C 
ATOM      2  N   UNL d   1      25.726 -15.248  -5.016  0.00  0.00    -0.279 N 
ATOM      3  N   UNL d   1      26.845 -15.472  -5.776  0.00  0.00    -0.158 NA
ATOM      4  C   UNL d   1      27.528 -14.381  -5.695  0.00  0.00     0.157 C 
ATOM      5  N   UNL d   1      26.825 -13.313  -5.046  0.00  0.00    -0.328 N 
ATOM      6  H   UNL d   1      24.870 -15.726  -5.292  0.00  0.00     0.185 HD
ENDROOT
BRANCH   1   7
ATOM      7  S   UNL d   1      25.572 -13.896  -2.674  0.00  0.00    -0.112 SA
BRANCH   7   8
ATOM      8  C   UNL d   1      27.317 -14.365  -2.213  0.00  0.00     0.180 C 
BRANCH   8   9
ATOM      9  C   UNL d   1      27.396 -15.839  -1.782  0.00  0.00     0.227 C 
ATOM     10  N   UNL d   1      26.433 -16.264  -0.876  0.00  0.00    -0.360 N 
ATOM     11  H   UNL d   1      25.711 -15.644  -0.527  0.00  0.00     0.162 HD
ATOM     12  O   UNL d   1      28.282 -16.603  -2.165  0.00  0.00    -0.273 OA
BRANCH  10  13
ATOM     13  C   UNL d   1      26.439 -17.658  -0.427  0.00  0.00     0.124 C 
BRANCH  13  14
ATOM     14  C   UNL d   1      25.156 -18.052   0.289  0.00  0.00     0.039 C 
BRANCH  14  15
ATOM     15  C   UNL d   1      24.102 -18.642  -0.657  0.00  0.00     0.124 C 
BRANCH  15  16
ATOM     16  N   UNL d   1      22.834 -17.896  -0.667  0.00  0.00    -0.385 N 
ATOM     17  C   UNL d   1      22.771 -16.448  -0.837  0.00  0.00     0.149 C 
BRANCH  16  18
ATOM     18  C   UNL d   1      21.646 -18.545  -0.313  0.00  0.00     0.029 A 
ATOM     19  C   UNL d   1      20.647 -18.813  -1.265  0.00  0.00     0.029 A 
ATOM     20  C   UNL d   1      19.406 -19.358  -0.908  0.00  0.00     0.002 A 
ATOM     21  C   UNL d   1      19.162 -19.728   0.409  0.00  0.00     0.000 A 
ATOM     22  C   UNL d   1      20.166 -19.570   1.355  0.00  0.00     0.002 A 
ATOM     23  C   UNL d   1      21.375 -18.952   1.004  0.00  0.00     0.029 A 
ENDBRANCH  16  18
ENDBRANCH  15  16
ENDBRANCH  14  15
ENDBRANCH  13  14
ENDBRANCH  10  13
ENDBRANCH   8   9
ENDBRANCH   7   8
ENDBRANCH   1   7
BRANCH   5  24
ATOM     24  C   UNL d   1      27.084 -11.911  -5.204  0.00  0.00     0.089 A 
ATOM     25  C   UNL d   1      26.143 -11.005  -5.961  0.00  0.00     0.027 A 
ATOM     26  C   UNL d   1      26.227 -10.915  -4.468  0.00  0.00     0.027 A 
ENDBRANCH   5  24
BRANCH   4  27
ATOM     27  C   UNL d   1      28.917 -14.181  -6.132  0.00  0.00     0.019 A 
ATOM     28  C   UNL d   1      29.255 -13.514  -7.242  0.00  0.00     0.002 A 
ATOM     29  C   UNL d   1      28.528 -12.945  -8.330  0.00  0.00     0.014 A 
ATOM     30  C   UNL d   1      30.722 -13.314  -7.149  0.00  0.00     0.039 A 
ATOM     31  C   UNL d   1      29.203 -12.297  -9.291  0.00  0.00     0.001 A 
ATOM     32  C   UNL d   1      30.648 -12.131  -9.243  0.00  0.00     0.002 A 
ATOM     33  C   UNL d   1      31.412 -12.594  -8.236  0.00  0.00     0.030 A 
ATOM     34  N   UNL d   1      31.206 -13.811  -6.067  0.00  0.00    -0.385 N 
ATOM     35  C   UNL d   1      30.110 -14.408  -5.257  0.00  0.00     0.163 A 
ATOM     36  H   UNL d   1      32.196 -13.768  -5.835  0.00  0.00     0.160 HD
ENDBRANCH   4  27
TORSDOF 10
ENDMDL
MODEL 4
REMARK VINA RESULT:    -8.013      6.483      9.124
REMARK INTER + INTRA:         -13.355
REMARK INTER:                 -10.996
REMARK INTRA:                  -2.359
REMARK CONF_INDEPENDENT:        2.983
REMARK UNBOUND:                -2.359
REMARK  10 active torsions:
REMARK  status: ('A' for Active; 'I' for Inactive)
REMARK    1  A    between atoms: N_2  and  C_3 
REMARK    2  A    between atoms: N_2  and  C_28 
REMARK    3  A    between atoms: C_3  and  C_4 
REMARK    4  A    between atoms: C_4  and  C_5 
REMARK    5  A    between atoms: C_5  and  N_6 
REMARK       I    between atoms: N_6  and  C_7 
REMARK    6  A    between atoms: C_7  and  C_9 
REMARK    7  A    between atoms: C_9  and  S_10 
REMARK    8  A    between atoms: S_10  and  C_11 
REMARK    9  A    between atoms: C_14  and  C_15 
REMARK   10  A    between atoms: N_24  and  C_25 
ROOT
ATOM      1  C   UNL d   1      28.907 -15.319  -0.918  0.00  0.00     0.268 C 
ATOM      2  N   UNL d   1      27.959 -14.711   0.022  0.00  0.00    -0.279 N 
ATOM      3  N   UNL d   1      27.027 -13.874  -0.533  0.00  0.00    -0.158 NA
ATOM      4  C   UNL d   1      27.208 -13.968  -1.806  0.00  0.00     0.157 C 
ATOM      5  N   UNL d   1      28.379 -14.713  -2.164  0.00  0.00    -0.328 N 
ATOM      6  H   UNL d   1      28.323 -14.465   0.940  0.00  0.00     0.185 HD
ENDROOT
BRANCH   1   7
ATOM      7  S   UNL d   1      28.762 -17.125  -0.909  0.00  0.00    -0.112 SA
BRANCH   7   8
ATOM      8  C   UNL d   1      27.530 -17.478   0.446  0.00  0.00     0.180 C 
BRANCH   8   9
ATOM      9  C   UNL d   1      26.103 -17.571  -0.118  0.00  0.00     0.227 C 
ATOM     10  N   UNL d   1      25.723 -16.562  -0.993  0.00  0.00    -0.360 N 
ATOM     11  H   UNL d   1      26.352 -15.813  -1.256  0.00  0.00     0.162 HD
ATOM     12  O   UNL d   1      25.309 -18.452   0.211  0.00  0.00    -0.273 OA
BRANCH  10  13
ATOM     13  C   UNL d   1      24.380 -16.590  -1.578  0.00  0.00     0.124 C 
BRANCH  13  14
ATOM     14  C   UNL d   1      23.286 -16.325  -0.556  0.00  0.00     0.039 C 
BRANCH  14  15
ATOM     15  C   UNL d   1      21.968 -17.032  -0.895  0.00  0.00     0.124 C 
BRANCH  15  16
ATOM     16  N   UNL d   1      21.972 -18.470  -0.584  0.00  0.00    -0.385 N 
ATOM     17  C   UNL d   1      23.072 -19.355  -0.954  0.00  0.00     0.149 C 
BRANCH  16  18
ATOM     18  C   UNL d   1      20.813 -19.075  -0.085  0.00  0.00     0.029 A 
ATOM     19  C   UNL d   1      20.666 -19.356   1.284  0.00  0.00     0.029 A 
ATOM     20  C   UNL d   1      19.563 -20.063   1.784  0.00  0.00     0.002 A 
ATOM     21  C   UNL d   1      18.531 -20.436   0.931  0.00  0.00     0.000 A 
ATOM     22  C   UNL d   1      18.599 -20.083  -0.410  0.00  0.00     0.002 A 
ATOM     23  C   UNL d   1      19.742 -19.446  -0.915  0.00  0.00     0.029 A 
ENDBRANCH  16  18
ENDBRANCH  15  16
ENDBRANCH  14  15
ENDBRANCH  13  14
ENDBRANCH  10  13
ENDBRANCH   8   9
ENDBRANCH   7   8
ENDBRANCH   1   7
BRANCH   5  24
ATOM     24  C   UNL d   1      29.102 -14.613  -3.399  0.00  0.00     0.089 A 
ATOM     25  C   UNL d   1      29.720 -15.819  -4.064  0.00  0.00     0.027 A 
ATOM     26  C   UNL d   1      28.499 -15.182  -4.655  0.00  0.00     0.027 A 
ENDBRANCH   5  24
BRANCH   4  27
ATOM     27  C   UNL d   1      26.318 -13.457  -2.859  0.00  0.00     0.019 A 
ATOM     28  C   UNL d   1      26.552 -12.332  -3.544  0.00  0.00     0.002 A 
ATOM     29  C   UNL d   1      27.519 -11.286  -3.453  0.00  0.00     0.014 A 
ATOM     30  C   UNL d   1      25.583 -12.346  -4.666  0.00  0.00     0.039 A 
ATOM     31  C   UNL d   1      27.482 -10.291  -4.352  0.00  0.00     0.001 A 
ATOM     32  C   UNL d   1      26.508 -10.261  -5.433  0.00  0.00     0.002 A 
ATOM     33  C   UNL d   1      25.587 -11.225  -5.625  0.00  0.00     0.030 A 
ATOM     34  N   UNL d   1      24.847 -13.400  -4.651  0.00  0.00    -0.385 N 
ATOM     35  C   UNL d   1      25.238 -14.267  -3.507  0.00  0.00     0.163 A 
ATOM     36  H   UNL d   1      24.124 -13.578  -5.345  0.00  0.00     0.160 HD
ENDBRANCH   4  27
TORSDOF 10
ENDMDL
MODEL 5
REMARK VINA RESULT:    -7.683      3.280      9.298
REMARK INTER + INTRA:         -13.310
REMARK INTER:                 -10.666
REMARK INTRA:                  -2.644
REMARK CONF_INDEPENDENT:        2.983
REMARK UNBOUND:                -2.644
REMARK  10 active torsions:
REMARK  status: ('A' for Active; 'I' for Inactive)
REMARK    1  A    between atoms: N_2  and  C_3 
REMARK    2  A    between atoms: N_2  and  C_28 
REMARK    3  A    between atoms: C_3  and  C_4 
REMARK    4  A    between atoms: C_4  and  C_5 
REMARK    5  A    between atoms: C_5  and  N_6 
REMARK       I    between atoms: N_6  and  C_7 
REMARK    6  A    between atoms: C_7  and  C_9 
REMARK    7  A    between atoms: C_9  and  S_10 
REMARK    8  A    between atoms: S_10  and  C_11 
REMARK    9  A    between atoms: C_14  and  C_15 
REMARK   10  A    between atoms: N_24  and  C_25 
ROOT
ATOM      1  C   UNL d   1      25.704 -13.355  -5.020  0.00  0.00     0.268 C 
ATOM      2  N   UNL d   1      24.489 -13.327  -4.200  0.00  0.00    -0.279 N 
ATOM      3  N   UNL d   1      24.443 -14.234  -3.174  0.00  0.00    -0.158 NA
ATOM      4  C   UNL d   1      25.603 -14.797  -3.173  0.00  0.00     0.157 C 
ATOM      5  N   UNL d   1      26.413 -14.442  -4.302  0.00  0.00    -0.328 N 
ATOM      6  H   UNL d   1      23.617 -13.122  -4.685  0.00  0.00     0.185 HD
ENDROOT
BRANCH   1   7
ATOM      7  S   UNL d   1      26.586 -11.775  -4.931  0.00  0.00    -0.112 SA
BRANCH   7   8
ATOM      8  C   UNL d   1      25.987 -11.008  -3.340  0.00  0.00     0.180 C 
BRANCH   8   9
ATOM      9  C   UNL d   1      26.907 -11.383  -2.166  0.00  0.00     0.227 C 
ATOM     10  N   UNL d   1      26.591 -12.555  -1.492  0.00  0.00    -0.360 N 
ATOM     11  H   UNL d   1      25.808 -13.139  -1.764  0.00  0.00     0.162 HD
ATOM     12  O   UNL d   1      27.843 -10.675  -1.796  0.00  0.00    -0.273 OA
BRANCH  10  13
ATOM     13  C   UNL d   1      27.429 -12.982  -0.369  0.00  0.00     0.124 C 
BRANCH  13  14
ATOM     14  C   UNL d   1      26.641 -13.706   0.711  0.00  0.00     0.039 C 
BRANCH  14  15
ATOM     15  C   UNL d   1      27.435 -14.841   1.370  0.00  0.00     0.124 C 
BRANCH  15  16
ATOM     16  N   UNL d   1      28.653 -14.386   2.059  0.00  0.00    -0.385 N 
ATOM     17  C   UNL d   1      29.962 -14.359   1.415  0.00  0.00     0.149 C 
BRANCH  16  18
ATOM     18  C   UNL d   1      28.620 -14.145   3.438  0.00  0.00     0.029 A 
ATOM     19  C   UNL d   1      29.716 -14.456   4.261  0.00  0.00     0.029 A 
ATOM     20  C   UNL d   1      29.658 -14.328   5.656  0.00  0.00     0.002 A 
ATOM     21  C   UNL d   1      28.523 -13.801   6.259  0.00  0.00     0.000 A 
ATOM     22  C   UNL d   1      27.461 -13.389   5.464  0.00  0.00     0.002 A 
ATOM     23  C   UNL d   1      27.497 -13.595   4.078  0.00  0.00     0.029 A 
ENDBRANCH  16  18
ENDBRANCH  15  16
ENDBRANCH  14  15
ENDBRANCH  13  14
ENDBRANCH  10  13
ENDBRANCH   8   9
ENDBRANCH   7   8
ENDBRANCH   1   7
BRANCH   5  24
ATOM     24  C   UNL d   1      27.502 -15.207  -4.837  0.00  0.00     0.089 A 
ATOM     25  C   UNL d   1      28.190 -14.825  -6.125  0.00  0.00     0.027 A 
ATOM     26  C   UNL d   1      28.891 -14.628  -4.815  0.00  0.00     0.027 A 
ENDBRANCH   5  24
BRANCH   4  27
ATOM     27  C   UNL d   1      26.153 -15.671  -2.127  0.00  0.00     0.019 A 
ATOM     28  C   UNL d   1      25.409 -16.518  -1.405  0.00  0.00     0.002 A 
ATOM     29  C   UNL d   1      24.011 -16.771  -1.284  0.00  0.00     0.014 A 
ATOM     30  C   UNL d   1      26.381 -17.380  -0.689  0.00  0.00     0.039 A 
ATOM     31  C   UNL d   1      23.598 -17.748  -0.462  0.00  0.00     0.001 A 
ATOM     32  C   UNL d   1      24.533 -18.575   0.286  0.00  0.00     0.002 A 
ATOM     33  C   UNL d   1      25.870 -18.439   0.203  0.00  0.00     0.030 A 
ATOM     34  N   UNL d   1      27.596 -17.075  -0.976  0.00  0.00    -0.385 N 
ATOM     35  C   UNL d   1      27.612 -15.958  -1.958  0.00  0.00     0.163 A 
ATOM     36  H   UNL d   1      28.396 -17.561  -0.576  0.00  0.00     0.160 HD
ENDBRANCH   4  27
TORSDOF 10
ENDMDL
MODEL 6
REMARK VINA RESULT:    -6.944      7.215      9.830
REMARK INTER + INTRA:         -12.776
REMARK INTER:                  -9.927
REMARK INTRA:                  -2.849
REMARK CONF_INDEPENDENT:        2.983
REMARK UNBOUND:                -2.849
REMARK  10 active torsions:
REMARK  status: ('A' for Active; 'I' for Inactive)
REMARK    1  A    between atoms: N_2  and  C_3 
REMARK    2  A    between atoms: N_2  and  C_28 
REMARK    3  A    between atoms: C_3  and  C_4 
REMARK    4  A    between atoms: C_4  and  C_5 
REMARK    5  A    between atoms: C_5  and  N_6 
REMARK       I    between atoms: N_6  and  C_7 
REMARK    6  A    between atoms: C_7  and  C_9 
REMARK    7  A    between atoms: C_9  and  S_10 
REMARK    8  A    between atoms: S_10  and  C_11 
REMARK    9  A    between atoms: C_14  and  C_15 
REMARK   10  A    between atoms: N_24  and  C_25 
ROOT
ATOM      1  C   UNL d   1      26.202 -12.590  -4.145  0.00  0.00     0.268 C 
ATOM      2  N   UNL d   1      24.972 -13.328  -4.447  0.00  0.00    -0.279 N 
ATOM      3  N   UNL d   1      24.846 -14.548  -3.836  0.00  0.00    -0.158 NA
ATOM      4  C   UNL d   1      25.861 -14.633  -3.045  0.00  0.00     0.157 C 
ATOM      5  N   UNL d   1      26.813 -13.575  -3.220  0.00  0.00    -0.328 N 
ATOM      6  H   UNL d   1      24.606 -13.237  -5.392  0.00  0.00     0.185 HD
ENDROOT
BRANCH   1   7
ATOM      7  S   UNL d   1      25.832 -11.013  -3.334  0.00  0.00    -0.112 SA
BRANCH   7   8
ATOM      8  C   UNL d   1      25.530  -9.833  -4.747  0.00  0.00     0.180 C 
BRANCH   8   9
ATOM      9  C   UNL d   1      25.786 -10.517  -6.100  0.00  0.00     0.227 C 
ATOM     10  N   UNL d   1      26.812  -9.986  -6.870  0.00  0.00    -0.360 N 
ATOM     11  H   UNL d   1      27.371  -9.202  -6.555  0.00  0.00     0.162 HD
ATOM     12  O   UNL d   1      25.100 -11.450  -6.520  0.00  0.00    -0.273 OA
BRANCH  10  13
ATOM     13  C   UNL d   1      27.121 -10.592  -8.167  0.00  0.00     0.124 C 
BRANCH  13  14
ATOM     14  C   UNL d   1      28.605 -10.863  -8.353  0.00  0.00     0.039 C 
BRANCH  14  15
ATOM     15  C   UNL d   1      28.895 -12.286  -8.848  0.00  0.00     0.124 C 
BRANCH  15  16
ATOM     16  N   UNL d   1      29.947 -12.974  -8.084  0.00  0.00    -0.385 N 
ATOM     17  C   UNL d   1      31.370 -12.792  -8.356  0.00  0.00     0.149 C 
BRANCH  16  18
ATOM     18  C   UNL d   1      29.599 -13.989  -7.184  0.00  0.00     0.029 A 
ATOM     19  C   UNL d   1      28.298 -14.088  -6.661  0.00  0.00     0.029 A 
ATOM     20  C   UNL d   1      27.963 -15.025  -5.675  0.00  0.00     0.002 A 
ATOM     21  C   UNL d   1      28.907 -15.949  -5.244  0.00  0.00     0.000 A 
ATOM     22  C   UNL d   1      30.173 -15.942  -5.815  0.00  0.00     0.002 A 
ATOM     23  C   UNL d   1      30.522 -14.951  -6.743  0.00  0.00     0.029 A 
ENDBRANCH  16  18
ENDBRANCH  15  16
ENDBRANCH  14  15
ENDBRANCH  13  14
ENDBRANCH  10  13
ENDBRANCH   8   9
ENDBRANCH   7   8
ENDBRANCH   1   7
BRANCH   5  24
ATOM     24  C   UNL d   1      28.202 -13.618  -2.866  0.00  0.00     0.089 A 
ATOM     25  C   UNL d   1      29.067 -12.381  -2.871  0.00  0.00     0.027 A 
ATOM     26  C   UNL d   1      28.653 -12.999  -1.571  0.00  0.00     0.027 A 
ENDBRANCH   5  24
BRANCH   4  27
ATOM     27  C   UNL d   1      26.070 -15.635  -1.990  0.00  0.00     0.019 A 
ATOM     28  C   UNL d   1      25.072 -16.252  -1.347  0.00  0.00     0.002 A 
ATOM     29  C   UNL d   1      23.653 -16.111  -1.330  0.00  0.00     0.014 A 
ATOM     30  C   UNL d   1      25.714 -17.356  -0.593  0.00  0.00     0.039 A 
ATOM     31  C   UNL d   1      22.929 -16.944  -0.568  0.00  0.00     0.001 A 
ATOM     32  C   UNL d   1      23.542 -18.004   0.217  0.00  0.00     0.002 A 
ATOM     33  C   UNL d   1      24.868 -18.242   0.230  0.00  0.00     0.030 A 
ATOM     34  N   UNL d   1      26.984 -17.395  -0.787  0.00  0.00    -0.385 N 
ATOM     35  C   UNL d   1      27.379 -16.315  -1.731  0.00  0.00     0.163 A 
ATOM     36  H   UNL d   1      27.588 -18.087  -0.348  0.00  0.00     0.160 HD
ENDBRANCH   4  27
TORSDOF 10
ENDMDL
MODEL 7
REMARK VINA RESULT:    -6.846      5.419      8.542
REMARK INTER + INTRA:         -13.114
REMARK INTER:                  -9.829
REMARK INTRA:                  -3.285
REMARK CONF_INDEPENDENT:        2.983
REMARK UNBOUND:                -3.285
REMARK  10 active torsions:
REMARK  status: ('A' for Active; 'I' for Inactive)
REMARK    1  A    between atoms: N_2  and  C_3 
REMARK    2  A    between atoms: N_2  and  C_28 
REMARK    3  A    between atoms: C_3  and  C_4 
REMARK    4  A    between atoms: C_4  and  C_5 
REMARK    5  A    between atoms: C_5  and  N_6 
REMARK       I    between atoms: N_6  and  C_7 
REMARK    6  A    between atoms: C_7  and  C_9 
REMARK    7  A    between atoms: C_9  and  S_10 
REMARK    8  A    between atoms: S_10  and  C_11 
REMARK    9  A    between atoms: C_14  and  C_15 
REMARK   10  A    between atoms: N_24  and  C_25 
ROOT
ATOM      1  C   UNL d   1      27.950 -12.226  -1.577  0.00  0.00     0.268 C 
ATOM      2  N   UNL d   1      28.948 -13.044  -2.272  0.00  0.00    -0.279 N 
ATOM      3  N   UNL d   1      29.036 -14.349  -1.864  0.00  0.00    -0.158 NA
ATOM      4  C   UNL d   1      28.076 -14.500  -1.016  0.00  0.00     0.157 C 
ATOM      5  N   UNL d   1      27.422 -13.272  -0.668  0.00  0.00    -0.328 N 
ATOM      6  H   UNL d   1      29.813 -12.578  -2.541  0.00  0.00     0.185 HD
ENDROOT
BRANCH   1   7
ATOM      7  S   UNL d   1      26.695 -11.611  -2.731  0.00  0.00    -0.112 SA
BRANCH   7   8
ATOM      8  C   UNL d   1      25.410 -12.962  -2.768  0.00  0.00     0.180 C 
BRANCH   8   9
ATOM      9  C   UNL d   1      25.674 -13.941  -3.925  0.00  0.00     0.227 C 
ATOM     10  N   UNL d   1      27.003 -14.266  -4.160  0.00  0.00    -0.360 N 
ATOM     11  H   UNL d   1      27.757 -13.892  -3.596  0.00  0.00     0.162 HD
ATOM     12  O   UNL d   1      24.779 -14.383  -4.645  0.00  0.00    -0.273 OA
BRANCH  10  13
ATOM     13  C   UNL d   1      27.330 -15.201  -5.240  0.00  0.00     0.124 C 
BRANCH  13  14
ATOM     14  C   UNL d   1      28.661 -14.888  -5.906  0.00  0.00     0.039 C 
BRANCH  14  15
ATOM     15  C   UNL d   1      29.867 -15.232  -5.022  0.00  0.00     0.124 C 
BRANCH  15  16
ATOM     16  N   UNL d   1      29.908 -16.642  -4.603  0.00  0.00    -0.385 N 
ATOM     17  C   UNL d   1      29.680 -17.064  -3.224  0.00  0.00     0.149 C 
BRANCH  16  18
ATOM     18  C   UNL d   1      30.366 -17.617  -5.496  0.00  0.00     0.029 A 
ATOM     19  C   UNL d   1      30.802 -17.277  -6.789  0.00  0.00     0.029 A 
ATOM     20  C   UNL d   1      31.155 -18.251  -7.734  0.00  0.00     0.002 A 
ATOM     21  C   UNL d   1      31.161 -19.594  -7.380  0.00  0.00     0.000 A 
ATOM     22  C   UNL d   1      30.833 -19.954  -6.079  0.00  0.00     0.002 A 
ATOM     23  C   UNL d   1      30.405 -18.981  -5.165  0.00  0.00     0.029 A 
ENDBRANCH  16  18
ENDBRANCH  15  16
ENDBRANCH  14  15
ENDBRANCH  13  14
ENDBRANCH  10  13
ENDBRANCH   8   9
ENDBRANCH   7   8
ENDBRANCH   1   7
BRANCH   5  24
ATOM     24  C   UNL d   1      26.678 -13.019   0.532  0.00  0.00     0.089 A 
ATOM     25  C   UNL d   1      27.218 -13.374   1.896  0.00  0.00     0.027 A 
ATOM     26  C   UNL d   1      27.141 -11.939   1.473  0.00  0.00     0.027 A 
ENDBRANCH   5  24
BRANCH   4  27
ATOM     27  C   UNL d   1      27.586 -15.770  -0.462  0.00  0.00     0.019 A 
ATOM     28  C   UNL d   1      26.335 -16.215  -0.627  0.00  0.00     0.002 A 
ATOM     29  C   UNL d   1      25.143 -15.669  -1.191  0.00  0.00     0.014 A 
ATOM     30  C   UNL d   1      26.354 -17.623  -0.163  0.00  0.00     0.039 A 
ATOM     31  C   UNL d   1      24.037 -16.426  -1.223  0.00  0.00     0.001 A 
ATOM     32  C   UNL d   1      24.021 -17.795  -0.729  0.00  0.00     0.002 A 
ATOM     33  C   UNL d   1      25.107 -18.409  -0.221  0.00  0.00     0.030 A 
ATOM     34  N   UNL d   1      27.524 -17.982   0.231  0.00  0.00    -0.385 N 
ATOM     35  C   UNL d   1      28.476 -16.852   0.065  0.00  0.00     0.163 A 
ATOM     36  H   UNL d   1      27.725 -18.916   0.585  0.00  0.00     0.160 HD
ENDBRANCH   4  27
TORSDOF 10
ENDMDL
MODEL 8
REMARK VINA RESULT:    -6.695      6.230     10.538
REMARK INTER + INTRA:         -12.728
REMARK INTER:                  -9.678
REMARK INTRA:                  -3.050
REMARK CONF_INDEPENDENT:        2.983
REMARK UNBOUND:                -3.050
REMARK  10 active torsions:
REMARK  status: ('A' for Active; 'I' for Inactive)
REMARK    1  A    between atoms: N_2  and  C_3 
REMARK    2  A    between atoms: N_2  and  C_28 
REMARK    3  A    between atoms: C_3  and  C_4 
REMARK    4  A    between atoms: C_4  and  C_5 
REMARK    5  A    between atoms: C_5  and  N_6 
REMARK       I    between atoms: N_6  and  C_7 
REMARK    6  A    between atoms: C_7  and  C_9 
REMARK    7  A    between atoms: C_9  and  S_10 
REMARK    8  A    between atoms: S_10  and  C_11 
REMARK    9  A    between atoms: C_14  and  C_15 
REMARK   10  A    between atoms: N_24  and  C_25 
ROOT
ATOM      1  C   UNL d   1      25.582 -13.766  -4.414  0.00  0.00     0.268 C 
ATOM      2  N   UNL d   1      25.663 -15.197  -4.724  0.00  0.00    -0.279 N 
ATOM      3  N   UNL d   1      26.716 -15.575  -5.515  0.00  0.00    -0.158 NA
ATOM      4  C   UNL d   1      27.423 -14.506  -5.665  0.00  0.00     0.157 C 
ATOM      5  N   UNL d   1      26.792 -13.326  -5.151  0.00  0.00    -0.328 N 
ATOM      6  H   UNL d   1      24.780 -15.686  -4.854  0.00  0.00     0.185 HD
ENDROOT
BRANCH   1   7
ATOM      7  S   UNL d   1      25.713 -13.479  -2.630  0.00  0.00    -0.112 SA
BRANCH   7   8
ATOM      8  C   UNL d   1      27.452 -12.843  -2.397  0.00  0.00     0.180 C 
BRANCH   8   9
ATOM      9  C   UNL d   1      28.427 -13.998  -2.112  0.00  0.00     0.227 C 
ATOM     10  N   UNL d   1      28.178 -15.188  -2.782  0.00  0.00    -0.360 N 
ATOM     11  H   UNL d   1      27.408 -15.289  -3.433  0.00  0.00     0.162 HD
ATOM     12  O   UNL d   1      29.349 -13.910  -1.302  0.00  0.00    -0.273 OA
BRANCH  10  13
ATOM     13  C   UNL d   1      29.071 -16.329  -2.568  0.00  0.00     0.124 C 
BRANCH  13  14
ATOM     14  C   UNL d   1      29.218 -16.694  -1.099  0.00  0.00     0.039 C 
BRANCH  14  15
ATOM     15  C   UNL d   1      28.007 -17.460  -0.549  0.00  0.00     0.124 C 
BRANCH  15  16
ATOM     16  N   UNL d   1      26.890 -16.589  -0.150  0.00  0.00    -0.385 N 
ATOM     17  C   UNL d   1      27.079 -15.366   0.625  0.00  0.00     0.149 C 
BRANCH  16  18
ATOM     18  C   UNL d   1      25.573 -17.020  -0.343  0.00  0.00     0.029 A 
ATOM     19  C   UNL d   1      24.672 -16.287  -1.134  0.00  0.00     0.029 A 
ATOM     20  C   UNL d   1      23.320 -16.642  -1.245  0.00  0.00     0.002 A 
ATOM     21  C   UNL d   1      22.851 -17.796  -0.628  0.00  0.00     0.000 A 
ATOM     22  C   UNL d   1      23.740 -18.596   0.078  0.00  0.00     0.002 A 
ATOM     23  C   UNL d   1      25.071 -18.191   0.249  0.00  0.00     0.029 A 
ENDBRANCH  16  18
ENDBRANCH  15  16
ENDBRANCH  14  15
ENDBRANCH  13  14
ENDBRANCH  10  13
ENDBRANCH   8   9
ENDBRANCH   7   8
ENDBRANCH   1   7
BRANCH   5  24
ATOM     24  C   UNL d   1      27.063 -11.977  -5.554  0.00  0.00     0.089 A 
ATOM     25  C   UNL d   1      26.622 -11.439  -6.894  0.00  0.00     0.027 A 
ATOM     26  C   UNL d   1      25.929 -10.991  -5.644  0.00  0.00     0.027 A 
ENDBRANCH   5  24
BRANCH   4  27
ATOM     27  C   UNL d   1      28.778 -14.423  -6.229  0.00  0.00     0.019 A 
ATOM     28  C   UNL d   1      29.662 -15.426  -6.182  0.00  0.00     0.002 A 
ATOM     29  C   UNL d   1      29.690 -16.708  -5.556  0.00  0.00     0.014 A 
ATOM     30  C   UNL d   1      30.761 -15.023  -7.092  0.00  0.00     0.039 A 
ATOM     31  C   UNL d   1      30.756 -17.499  -5.751  0.00  0.00     0.001 A 
ATOM     32  C   UNL d   1      31.868 -17.104  -6.602  0.00  0.00     0.002 A 
ATOM     33  C   UNL d   1      31.909 -15.934  -7.268  0.00  0.00     0.030 A 
ATOM     34  N   UNL d   1      30.537 -13.883  -7.640  0.00  0.00    -0.385 N 
ATOM     35  C   UNL d   1      29.223 -13.358  -7.182  0.00  0.00     0.163 A 
ATOM     36  H   UNL d   1      31.185 -13.447  -8.294  0.00  0.00     0.160 HD
ENDBRANCH   4  27
TORSDOF 10
ENDMDL
MODEL 9
REMARK VINA RESULT:    -6.003      5.124      8.566
REMARK INTER + INTRA:         -12.720
REMARK INTER:                  -8.986
REMARK INTRA:                  -3.734
REMARK CONF_INDEPENDENT:        2.983
REMARK UNBOUND:                -3.734
REMARK  10 active torsions:
REMARK  status: ('A' for Active; 'I' for Inactive)
REMARK    1  A    between atoms: N_2  and  C_3 
REMARK    2  A    between atoms: N_2  and  C_28 
REMARK    3  A    between atoms: C_3  and  C_4 
REMARK    4  A    between atoms: C_4  and  C_5 
REMARK    5  A    between atoms: C_5  and  N_6 
REMARK       I    between atoms: N_6  and  C_7 
REMARK    6  A    between atoms: C_7  and  C_9 
REMARK    7  A    between atoms: C_9  and  S_10 
REMARK    8  A    between atoms: S_10  and  C_11 
REMARK    9  A    between atoms: C_14  and  C_15 
REMARK   10  A    between atoms: N_24  and  C_25 
ROOT
ATOM      1  C   UNL d   1      28.038 -12.965  -1.068  0.00  0.00     0.268 C 
ATOM      2  N   UNL d   1      28.877 -13.880  -1.848  0.00  0.00    -0.279 N 
ATOM      3  N   UNL d   1      28.740 -15.210  -1.550  0.00  0.00    -0.158 NA
ATOM      4  C   UNL d   1      27.773 -15.266  -0.699  0.00  0.00     0.157 C 
ATOM      5  N   UNL d   1      27.342 -13.978  -0.238  0.00  0.00    -0.328 N 
ATOM      6  H   UNL d   1      29.807 -13.548  -2.094  0.00  0.00     0.185 HD
ENDROOT
BRANCH   1   7
ATOM      7  S   UNL d   1      26.902 -12.049  -2.142  0.00  0.00    -0.112 SA
BRANCH   7   8
ATOM      8  C   UNL d   1      25.482 -13.229  -2.415  0.00  0.00     0.180 C 
BRANCH   8   9
ATOM      9  C   UNL d   1      25.661 -14.011  -3.727  0.00  0.00     0.227 C 
ATOM     10  N   UNL d   1      26.908 -14.586  -3.931  0.00  0.00    -0.360 N 
ATOM     11  H   UNL d   1      27.655 -14.507  -3.252  0.00  0.00     0.162 HD
ATOM     12  O   UNL d   1      24.780 -14.094  -4.583  0.00  0.00    -0.273 OA
BRANCH  10  13
ATOM     13  C   UNL d   1      27.149 -15.355  -5.154  0.00  0.00     0.124 C 
BRANCH  13  14
ATOM     14  C   UNL d   1      28.442 -14.963  -5.851  0.00  0.00     0.039 C 
BRANCH  14  15
ATOM     15  C   UNL d   1      28.335 -13.630  -6.604  0.00  0.00     0.124 C 
BRANCH  15  16
ATOM     16  N   UNL d   1      28.636 -12.456  -5.770  0.00  0.00    -0.385 N 
ATOM     17  C   UNL d   1      29.818 -12.375  -4.916  0.00  0.00     0.149 C 
BRANCH  16  18
ATOM     18  C   UNL d   1      27.678 -11.446  -5.623  0.00  0.00     0.029 A 
ATOM     19  C   UNL d   1      27.846 -10.409  -4.689  0.00  0.00     0.029 A 
ATOM     20  C   UNL d   1      26.847  -9.455  -4.449  0.00  0.00     0.002 A 
ATOM     21  C   UNL d   1      25.680  -9.466  -5.203  0.00  0.00     0.000 A 
ATOM     22  C   UNL d   1      25.528 -10.417  -6.203  0.00  0.00     0.002 A 
ATOM     23  C   UNL d   1      26.497 -11.415  -6.382  0.00  0.00     0.029 A 
ENDBRANCH  16  18
ENDBRANCH  15  16
ENDBRANCH  14  15
ENDBRANCH  13  14
ENDBRANCH  10  13
ENDBRANCH   8   9
ENDBRANCH   7   8
ENDBRANCH   1   7
BRANCH   5  24
ATOM     24  C   UNL d   1      26.660 -13.704   0.993  0.00  0.00     0.089 A 
ATOM     25  C   UNL d   1      27.404 -13.491   2.289  0.00  0.00     0.027 A 
ATOM     26  C   UNL d   1      26.755 -12.329   1.600  0.00  0.00     0.027 A 
ENDBRANCH   5  24
BRANCH   4  27
ATOM     27  C   UNL d   1      27.075 -16.475  -0.242  0.00  0.00     0.019 A 
ATOM     28  C   UNL d   1      25.776 -16.708  -0.464  0.00  0.00     0.002 A 
ATOM     29  C   UNL d   1      24.702 -15.948  -1.017  0.00  0.00     0.014 A 
ATOM     30  C   UNL d   1      25.562 -18.128  -0.094  0.00  0.00     0.039 A 
ATOM     31  C   UNL d   1      23.493 -16.519  -1.124  0.00  0.00     0.001 A 
ATOM     32  C   UNL d   1      23.250 -17.897  -0.723  0.00  0.00     0.002 A 
ATOM     33  C   UNL d   1      24.210 -18.704  -0.232  0.00  0.00     0.030 A 
ATOM     34  N   UNL d   1      26.648 -18.689   0.301  0.00  0.00    -0.385 N 
ATOM     35  C   UNL d   1      27.769 -17.714   0.232  0.00  0.00     0.163 A 
ATOM     36  H   UNL d   1      26.691 -19.663   0.596  0.00  0.00     0.160 HD
ENDBRANCH   4  27
TORSDOF 10
ENDMDL
