MODEL 1
REMARK VINA RESULT:   -29.618      0.000      0.000
REMARK INTER + INTRA:         -34.301
REMARK INTER:                 -32.303
REMARK INTRA:                  -1.999
REMARK CONF_INDEPENDENT:        2.685
REMARK UNBOUND:                -1.999
REMARK  9 active torsions:
REMARK  status: ('A' for Active; 'I' for Inactive)
REMARK    1  A    between atoms: C_6  and  O_7 
REMARK    2  A    between atoms: O_7  and  C_8 
REMARK    3  A    between atoms: C_8  and  C_10 
REMARK       I    between atoms: C_10  and  N_12 
REMARK    4  A    between atoms: N_12  and  N_13 
REMARK       I    between atoms: N_13  and  C_14 
REMARK    5  A    between atoms: C_14  and  C_16 
REMARK    6  A    between atoms: C_19  and  N_20 
REMARK       I    between atoms: N_20  and  C_21 
REMARK    7  A    between atoms: C_21  and  C_23 
REMARK    8  A    between atoms: C_23  and  S_24 
REMARK    9  A    between atoms: S_24  and  C_25 
ROOT
ATOM      1  N   UNL d   1      29.802 -15.306  -4.931  0.00  0.00    -0.263 N 
ATOM      2  C   UNL d   1      29.553 -14.894  -3.626  0.00  0.00     0.270 C 
ATOM      3  O   UNL d   1      30.427 -14.410  -2.900  0.00  0.00    -0.266 OA
ATOM      4  H   UNL d   1      29.079 -15.640  -5.569  0.00  0.00     0.190 HD
ENDROOT
BRANCH   2   5
ATOM      5  C   UNL d   1      28.165 -15.095  -3.092  0.00  0.00     0.033 A 
ATOM      6  C   UNL d   1      27.899 -15.380  -1.740  0.00  0.00     0.019 A 
ATOM      7  C   UNL d   1      26.579 -15.693  -1.294  0.00  0.00     0.030 A 
ATOM      8  C   UNL d   1      25.495 -15.676  -2.188  0.00  0.00     0.034 A 
ATOM      9  C   UNL d   1      25.808 -15.429  -3.531  0.00  0.00     0.030 A 
ATOM     10  C   UNL d   1      27.102 -15.135  -3.982  0.00  0.00     0.019 A 
BRANCH   8  11
ATOM     11  N   UNL d   1      24.138 -15.879  -1.739  0.00  0.00    -0.327 N 
ATOM     12  C   UNL d   1      23.715 -16.994  -0.996  0.00  0.00     0.231 C 
ATOM     13  O   UNL d   1      24.491 -17.881  -0.634  0.00  0.00    -0.272 OA
ATOM     14  H   UNL d   1      23.444 -15.211  -2.056  0.00  0.00     0.169 HD
BRANCH  12  15
ATOM     15  C   UNL d   1      22.209 -17.117  -0.641  0.00  0.00     0.185 C 
BRANCH  15  16
ATOM     16  S   UNL d   1      22.044 -18.509   0.566  0.00  0.00    -0.083 SA
BRANCH  16  17
ATOM     17  C   UNL d   1      20.536 -19.278   0.253  0.00  0.00     0.168 A 
ATOM     18  N   UNL d   1      19.902 -19.322  -0.895  0.00  0.00    -0.235 NA
ATOM     19  C   UNL d   1      18.696 -19.922  -0.616  0.00  0.00     0.136 A 
ATOM     20  C   UNL d   1      18.606 -20.261   0.714  0.00  0.00     0.112 A 
ATOM     21  N   UNL d   1      19.786 -19.833   1.265  0.00  0.00    -0.339 N 
ATOM     22  C   UNL d   1      20.149 -19.992   2.654  0.00  0.00     0.158 C 
ENDBRANCH  16  17
ENDBRANCH  15  16
ENDBRANCH  12  15
ENDBRANCH   8  11
ENDBRANCH   2   5
BRANCH   1  23
ATOM     23  N   UNL d   1      31.110 -15.187  -5.485  0.00  0.00    -0.265 N 
ATOM     24  C   UNL d   1      31.341 -15.627  -6.790  0.00  0.00     0.265 C 
ATOM     25  O   UNL d   1      30.438 -16.159  -7.441  0.00  0.00    -0.269 OA
ATOM     26  H   UNL d   1      31.808 -14.748  -4.887  0.00  0.00     0.190 HD
BRANCH  24  27
ATOM     27  C   UNL d   1      32.792 -15.405  -7.348  0.00  0.00     0.218 C 
ATOM     28  C   UNL d   1      32.688 -14.521  -8.597  0.00  0.00     0.050 C 
BRANCH  27  29
ATOM     29  O   UNL d   1      33.402 -16.674  -7.657  0.00  0.00    -0.336 OA
BRANCH  29  30
ATOM     30  C   UNL d   1      32.680 -17.842  -7.568  0.00  0.00     0.076 A 
ATOM     31  C   UNL d   1      32.192 -18.541  -8.676  0.00  0.00     0.037 A 
ATOM     32  C   UNL d   1      31.363 -19.650  -8.531  0.00  0.00     0.003 A 
ATOM     33  C   UNL d   1      31.064 -20.129  -7.265  0.00  0.00     0.007 A 
ATOM     34  C   UNL d   1      31.584 -19.496  -6.128  0.00  0.00    -0.053 A 
ATOM     35  C   UNL d   1      31.255 -20.079  -4.779  0.00  0.00     0.049 C 
ATOM     36  C   UNL d   1      32.399 -18.339  -6.273  0.00  0.00    -0.023 A 
ATOM     37  C   UNL d   1      32.976 -17.680  -5.044  0.00  0.00     0.052 C 
ENDBRANCH  29  30
ENDBRANCH  27  29
ENDBRANCH  24  27
ENDBRANCH   1  23
TORSDOF 9
ENDMDL
MODEL 2
REMARK VINA RESULT:   -28.785      4.572      5.714
REMARK INTER + INTRA:         -34.081
REMARK INTER:                 -31.470
REMARK INTRA:                  -2.611
REMARK CONF_INDEPENDENT:        2.685
REMARK UNBOUND:                -2.611
REMARK  9 active torsions:
REMARK  status: ('A' for Active; 'I' for Inactive)
REMARK    1  A    between atoms: C_6  and  O_7 
REMARK    2  A    between atoms: O_7  and  C_8 
REMARK    3  A    between atoms: C_8  and  C_10 
REMARK       I    between atoms: C_10  and  N_12 
REMARK    4  A    between atoms: N_12  and  N_13 
REMARK       I    between atoms: N_13  and  C_14 
REMARK    5  A    between atoms: C_14  and  C_16 
REMARK    6  A    between atoms: C_19  and  N_20 
REMARK       I    between atoms: N_20  and  C_21 
REMARK    7  A    between atoms: C_21  and  C_23 
REMARK    8  A    between atoms: C_23  and  S_24 
REMARK    9  A    between atoms: S_24  and  C_25 
ROOT
ATOM      1  N   UNL d   1      30.987 -16.169   0.626  0.00  0.00    -0.263 N 
ATOM      2  C   UNL d   1      30.291 -16.218  -0.576  0.00  0.00     0.270 C 
ATOM      3  O   UNL d   1      30.838 -16.063  -1.673  0.00  0.00    -0.266 OA
ATOM      4  H   UNL d   1      30.567 -16.365   1.536  0.00  0.00     0.190 HD
ENDROOT
BRANCH   2   5
ATOM      5  C   UNL d   1      28.806 -16.429  -0.506  0.00  0.00     0.033 A 
ATOM      6  C   UNL d   1      27.892 -15.379  -0.300  0.00  0.00     0.019 A 
ATOM      7  C   UNL d   1      26.500 -15.634  -0.109  0.00  0.00     0.030 A 
ATOM      8  C   UNL d   1      25.995 -16.944  -0.171  0.00  0.00     0.034 A 
ATOM      9  C   UNL d   1      26.941 -17.963  -0.335  0.00  0.00     0.030 A 
ATOM     10  C   UNL d   1      28.311 -17.725  -0.509  0.00  0.00     0.019 A 
BRANCH   8  11
ATOM     11  N   UNL d   1      24.578 -17.214  -0.092  0.00  0.00    -0.327 N 
ATOM     12  C   UNL d   1      23.630 -16.707  -0.997  0.00  0.00     0.231 C 
ATOM     13  O   UNL d   1      23.946 -16.011  -1.964  0.00  0.00    -0.272 OA
ATOM     14  H   UNL d   1      24.253 -17.735   0.715  0.00  0.00     0.169 HD
BRANCH  12  15
ATOM     15  C   UNL d   1      22.131 -17.022  -0.750  0.00  0.00     0.185 C 
BRANCH  15  16
ATOM     16  S   UNL d   1      22.059 -18.500   0.360  0.00  0.00    -0.083 SA
BRANCH  16  17
ATOM     17  C   UNL d   1      20.558 -19.287   0.063  0.00  0.00     0.168 A 
ATOM     18  N   UNL d   1      19.903 -19.323  -1.074  0.00  0.00    -0.235 NA
ATOM     19  C   UNL d   1      18.712 -19.946  -0.783  0.00  0.00     0.136 A 
ATOM     20  C   UNL d   1      18.652 -20.308   0.543  0.00  0.00     0.112 A 
ATOM     21  N   UNL d   1      19.835 -19.871   1.079  0.00  0.00    -0.339 N 
ATOM     22  C   UNL d   1      20.227 -20.046   2.458  0.00  0.00     0.158 C 
ENDBRANCH  16  17
ENDBRANCH  15  16
ENDBRANCH  12  15
ENDBRANCH   8  11
ENDBRANCH   2   5
BRANCH   1  23
ATOM     23  N   UNL d   1      32.391 -15.924   0.634  0.00  0.00    -0.265 N 
ATOM     24  C   UNL d   1      33.065 -15.849   1.855  0.00  0.00     0.265 C 
ATOM     25  O   UNL d   1      32.446 -15.943   2.918  0.00  0.00    -0.269 OA
ATOM     26  H   UNL d   1      32.834 -15.846  -0.281  0.00  0.00     0.190 HD
BRANCH  24  27
ATOM     27  C   UNL d   1      34.619 -15.640   1.776  0.00  0.00     0.218 C 
ATOM     28  C   UNL d   1      34.923 -14.824   0.513  0.00  0.00     0.050 C 
BRANCH  27  29
ATOM     29  O   UNL d   1      35.289 -16.916   1.746  0.00  0.00    -0.336 OA
BRANCH  29  30
ATOM     30  C   UNL d   1      34.803 -17.948   0.976  0.00  0.00     0.076 A 
ATOM     31  C   UNL d   1      35.027 -18.066  -0.399  0.00  0.00     0.037 A 
ATOM     32  C   UNL d   1      34.412 -19.060  -1.155  0.00  0.00     0.003 A 
ATOM     33  C   UNL d   1      33.614 -20.008  -0.533  0.00  0.00     0.007 A 
ATOM     34  C   UNL d   1      33.413 -19.964   0.854  0.00  0.00    -0.053 A 
ATOM     35  C   UNL d   1      32.564 -21.038   1.480  0.00  0.00     0.049 C 
ATOM     36  C   UNL d   1      34.008 -18.925   1.622  0.00  0.00    -0.023 A 
ATOM     37  C   UNL d   1      33.808 -18.902   3.118  0.00  0.00     0.052 C 
ENDBRANCH  29  30
ENDBRANCH  27  29
ENDBRANCH  24  27
ENDBRANCH   1  23
TORSDOF 9
ENDMDL
MODEL 3
REMARK VINA RESULT:   -28.735      1.470      2.252
REMARK INTER + INTRA:         -33.965
REMARK INTER:                 -31.420
REMARK INTRA:                  -2.545
REMARK CONF_INDEPENDENT:        2.685
REMARK UNBOUND:                -2.545
REMARK  9 active torsions:
REMARK  status: ('A' for Active; 'I' for Inactive)
REMARK    1  A    between atoms: C_6  and  O_7 
REMARK    2  A    between atoms: O_7  and  C_8 
REMARK    3  A    between atoms: C_8  and  C_10 
REMARK       I    between atoms: C_10  and  N_12 
REMARK    4  A    between atoms: N_12  and  N_13 
REMARK       I    between atoms: N_13  and  C_14 
REMARK    5  A    between atoms: C_14  and  C_16 
REMARK    6  A    between atoms: C_19  and  N_20 
REMARK       I    between atoms: N_20  and  C_21 
REMARK    7  A    between atoms: C_21  and  C_23 
REMARK    8  A    between atoms: C_23  and  S_24 
REMARK    9  A    between atoms: S_24  and  C_25 
ROOT
ATOM      1  N   UNL d   1      30.375 -15.325  -3.407  0.00  0.00    -0.263 N 
ATOM      2  C   UNL d   1      29.318 -15.411  -4.306  0.00  0.00     0.270 C 
ATOM      3  O   UNL d   1      29.472 -15.329  -5.529  0.00  0.00    -0.266 OA
ATOM      4  H   UNL d   1      30.278 -15.461  -2.400  0.00  0.00     0.190 HD
ENDROOT
BRANCH   2   5
ATOM      5  C   UNL d   1      27.938 -15.570  -3.736  0.00  0.00     0.033 A 
ATOM      6  C   UNL d   1      26.783 -15.094  -4.382  0.00  0.00     0.019 A 
ATOM      7  C   UNL d   1      25.504 -15.147  -3.750  0.00  0.00     0.030 A 
ATOM      8  C   UNL d   1      25.355 -15.725  -2.478  0.00  0.00     0.034 A 
ATOM      9  C   UNL d   1      26.534 -16.149  -1.851  0.00  0.00     0.030 A 
ATOM     10  C   UNL d   1      27.796 -16.088  -2.457  0.00  0.00     0.019 A 
BRANCH   8  11
ATOM     11  N   UNL d   1      24.056 -15.891  -1.868  0.00  0.00    -0.327 N 
ATOM     12  C   UNL d   1      23.670 -17.030  -1.140  0.00  0.00     0.231 C 
ATOM     13  O   UNL d   1      24.436 -17.973  -0.933  0.00  0.00    -0.272 OA
ATOM     14  H   UNL d   1      23.365 -15.172  -2.053  0.00  0.00     0.169 HD
BRANCH  12  15
ATOM     15  C   UNL d   1      22.217 -17.103  -0.600  0.00  0.00     0.185 C 
BRANCH  15  16
ATOM     16  S   UNL d   1      22.117 -18.587   0.500  0.00  0.00    -0.083 SA
BRANCH  16  17
ATOM     17  C   UNL d   1      20.584 -19.319   0.228  0.00  0.00     0.168 A 
ATOM     18  N   UNL d   1      19.905 -19.323  -0.895  0.00  0.00    -0.235 NA
ATOM     19  C   UNL d   1      18.699 -19.907  -0.583  0.00  0.00     0.136 A 
ATOM     20  C   UNL d   1      18.654 -20.276   0.741  0.00  0.00     0.112 A 
ATOM     21  N   UNL d   1      19.862 -19.884   1.255  0.00  0.00    -0.339 N 
ATOM     22  C   UNL d   1      20.275 -20.084   2.625  0.00  0.00     0.158 C 
ENDBRANCH  16  17
ENDBRANCH  15  16
ENDBRANCH  12  15
ENDBRANCH   8  11
ENDBRANCH   2   5
BRANCH   1  23
ATOM     23  N   UNL d   1      31.705 -15.126  -3.879  0.00  0.00    -0.265 N 
ATOM     24  C   UNL d   1      32.780 -15.525  -3.082  0.00  0.00     0.265 C 
ATOM     25  O   UNL d   1      32.585 -15.999  -1.959  0.00  0.00    -0.269 OA
ATOM     26  H   UNL d   1      31.791 -14.720  -4.810  0.00  0.00     0.190 HD
BRANCH  24  27
ATOM     27  C   UNL d   1      34.210 -15.330  -3.699  0.00  0.00     0.218 C 
ATOM     28  C   UNL d   1      34.237 -13.972  -4.411  0.00  0.00     0.050 C 
BRANCH  27  29
ATOM     29  O   UNL d   1      34.504 -16.404  -4.615  0.00  0.00    -0.336 OA
BRANCH  29  30
ATOM     30  C   UNL d   1      33.518 -16.935  -5.416  0.00  0.00     0.076 A 
ATOM     31  C   UNL d   1      33.149 -16.401  -6.655  0.00  0.00     0.037 A 
ATOM     32  C   UNL d   1      32.065 -16.901  -7.369  0.00  0.00     0.003 A 
ATOM     33  C   UNL d   1      31.369 -18.000  -6.892  0.00  0.00     0.007 A 
ATOM     34  C   UNL d   1      31.745 -18.606  -5.685  0.00  0.00    -0.053 A 
ATOM     35  C   UNL d   1      30.975 -19.818  -5.231  0.00  0.00     0.049 C 
ATOM     36  C   UNL d   1      32.828 -18.072  -4.933  0.00  0.00    -0.023 A 
ATOM     37  C   UNL d   1      33.242 -18.748  -3.648  0.00  0.00     0.052 C 
ENDBRANCH  29  30
ENDBRANCH  27  29
ENDBRANCH  24  27
ENDBRANCH   1  23
TORSDOF 9
ENDMDL
MODEL 4
REMARK VINA RESULT:   -28.670      5.393      7.712
REMARK INTER + INTRA:         -33.453
REMARK INTER:                 -31.354
REMARK INTRA:                  -2.099
REMARK CONF_INDEPENDENT:        2.685
REMARK UNBOUND:                -2.099
REMARK  9 active torsions:
REMARK  status: ('A' for Active; 'I' for Inactive)
REMARK    1  A    between atoms: C_6  and  O_7 
REMARK    2  A    between atoms: O_7  and  C_8 
REMARK    3  A    between atoms: C_8  and  C_10 
REMARK       I    between atoms: C_10  and  N_12 
REMARK    4  A    between atoms: N_12  and  N_13 
REMARK       I    between atoms: N_13  and  C_14 
REMARK    5  A    between atoms: C_14  and  C_16 
REMARK    6  A    between atoms: C_19  and  N_20 
REMARK       I    between atoms: N_20  and  C_21 
REMARK    7  A    between atoms: C_21  and  C_23 
REMARK    8  A    between atoms: C_23  and  S_24 
REMARK    9  A    between atoms: S_24  and  C_25 
ROOT
ATOM      1  N   UNL d   1      30.973 -15.953   0.643  0.00  0.00    -0.263 N 
ATOM      2  C   UNL d   1      30.201 -15.872  -0.511  0.00  0.00     0.270 C 
ATOM      3  O   UNL d   1      30.653 -15.483  -1.593  0.00  0.00    -0.266 OA
ATOM      4  H   UNL d   1      30.637 -16.339   1.526  0.00  0.00     0.190 HD
ENDROOT
BRANCH   2   5
ATOM      5  C   UNL d   1      28.750 -16.240  -0.398  0.00  0.00     0.033 A 
ATOM      6  C   UNL d   1      28.309 -17.455   0.161  0.00  0.00     0.019 A 
ATOM      7  C   UNL d   1      26.931 -17.827   0.134  0.00  0.00     0.030 A 
ATOM      8  C   UNL d   1      25.964 -16.964  -0.409  0.00  0.00     0.034 A 
ATOM      9  C   UNL d   1      26.447 -15.785  -0.991  0.00  0.00     0.030 A 
ATOM     10  C   UNL d   1      27.800 -15.417  -0.983  0.00  0.00     0.019 A 
BRANCH   8  11
ATOM     11  N   UNL d   1      24.554 -17.270  -0.346  0.00  0.00    -0.327 N 
ATOM     12  C   UNL d   1      23.567 -16.575  -1.066  0.00  0.00     0.231 C 
ATOM     13  O   UNL d   1      23.839 -15.661  -1.847  0.00  0.00    -0.272 OA
ATOM     14  H   UNL d   1      24.266 -17.975   0.324  0.00  0.00     0.169 HD
BRANCH  12  15
ATOM     15  C   UNL d   1      22.082 -16.966  -0.847  0.00  0.00     0.185 C 
BRANCH  15  16
ATOM     16  S   UNL d   1      22.065 -18.475   0.222  0.00  0.00    -0.083 SA
BRANCH  16  17
ATOM     17  C   UNL d   1      20.572 -19.283  -0.060  0.00  0.00     0.168 A 
ATOM     18  N   UNL d   1      19.904 -19.324  -1.189  0.00  0.00    -0.235 NA
ATOM     19  C   UNL d   1      18.725 -19.965  -0.886  0.00  0.00     0.136 A 
ATOM     20  C   UNL d   1      18.686 -20.330   0.440  0.00  0.00     0.112 A 
ATOM     21  N   UNL d   1      19.869 -19.878   0.963  0.00  0.00    -0.339 N 
ATOM     22  C   UNL d   1      20.279 -20.051   2.338  0.00  0.00     0.158 C 
ENDBRANCH  16  17
ENDBRANCH  15  16
ENDBRANCH  12  15
ENDBRANCH   8  11
ENDBRANCH   2   5
BRANCH   1  23
ATOM     23  N   UNL d   1      32.346 -15.573   0.616  0.00  0.00    -0.265 N 
ATOM     24  C   UNL d   1      33.058 -15.500   1.815  0.00  0.00     0.265 C 
ATOM     25  O   UNL d   1      32.494 -15.712   2.892  0.00  0.00    -0.269 OA
ATOM     26  H   UNL d   1      32.743 -15.401  -0.307  0.00  0.00     0.190 HD
BRANCH  24  27
ATOM     27  C   UNL d   1      34.580 -15.135   1.695  0.00  0.00     0.218 C 
ATOM     28  C   UNL d   1      35.309 -15.741   2.901  0.00  0.00     0.050 C 
BRANCH  27  29
ATOM     29  O   UNL d   1      34.743 -13.703   1.653  0.00  0.00    -0.336 OA
BRANCH  29  30
ATOM     30  C   UNL d   1      34.588 -12.943   2.790  0.00  0.00     0.076 A 
ATOM     31  C   UNL d   1      35.582 -12.780   3.760  0.00  0.00     0.037 A 
ATOM     32  C   UNL d   1      35.335 -12.104   4.951  0.00  0.00     0.003 A 
ATOM     33  C   UNL d   1      34.102 -11.508   5.165  0.00  0.00     0.007 A 
ATOM     34  C   UNL d   1      33.097 -11.593   4.191  0.00  0.00    -0.053 A 
ATOM     35  C   UNL d   1      31.788 -10.899   4.463  0.00  0.00     0.049 C 
ATOM     36  C   UNL d   1      33.334 -12.319   2.992  0.00  0.00    -0.023 A 
ATOM     37  C   UNL d   1      32.254 -12.382   1.938  0.00  0.00     0.052 C 
ENDBRANCH  29  30
ENDBRANCH  27  29
ENDBRANCH  24  27
ENDBRANCH   1  23
TORSDOF 9
ENDMDL
MODEL 5
REMARK VINA RESULT:   -28.613      4.810      6.807
REMARK INTER + INTRA:         -33.996
REMARK INTER:                 -31.298
REMARK INTRA:                  -2.698
REMARK CONF_INDEPENDENT:        2.685
REMARK UNBOUND:                -2.698
REMARK  9 active torsions:
REMARK  status: ('A' for Active; 'I' for Inactive)
REMARK    1  A    between atoms: C_6  and  O_7 
REMARK    2  A    between atoms: O_7  and  C_8 
REMARK    3  A    between atoms: C_8  and  C_10 
REMARK       I    between atoms: C_10  and  N_12 
REMARK    4  A    between atoms: N_12  and  N_13 
REMARK       I    between atoms: N_13  and  C_14 
REMARK    5  A    between atoms: C_14  and  C_16 
REMARK    6  A    between atoms: C_19  and  N_20 
REMARK       I    between atoms: N_20  and  C_21 
REMARK    7  A    between atoms: C_21  and  C_23 
REMARK    8  A    between atoms: C_23  and  S_24 
REMARK    9  A    between atoms: S_24  and  C_25 
ROOT
ATOM      1  N   UNL d   1      31.075 -16.394   0.683  0.00  0.00    -0.263 N 
ATOM      2  C   UNL d   1      30.362 -16.309  -0.508  0.00  0.00     0.270 C 
ATOM      3  O   UNL d   1      30.897 -16.050  -1.591  0.00  0.00    -0.266 OA
ATOM      4  H   UNL d   1      30.663 -16.676   1.574  0.00  0.00     0.190 HD
ENDROOT
BRANCH   2   5
ATOM      5  C   UNL d   1      28.875 -16.506  -0.437  0.00  0.00     0.033 A 
ATOM      6  C   UNL d   1      27.965 -15.438  -0.334  0.00  0.00     0.019 A 
ATOM      7  C   UNL d   1      26.570 -15.669  -0.139  0.00  0.00     0.030 A 
ATOM      8  C   UNL d   1      26.057 -16.976  -0.094  0.00  0.00     0.034 A 
ATOM      9  C   UNL d   1      26.999 -18.010  -0.158  0.00  0.00     0.030 A 
ATOM     10  C   UNL d   1      28.373 -17.794  -0.335  0.00  0.00     0.019 A 
BRANCH   8  11
ATOM     11  N   UNL d   1      24.638 -17.231  -0.010  0.00  0.00    -0.327 N 
ATOM     12  C   UNL d   1      23.708 -16.828  -0.983  0.00  0.00     0.231 C 
ATOM     13  O   UNL d   1      24.043 -16.247  -2.017  0.00  0.00    -0.272 OA
ATOM     14  H   UNL d   1      24.297 -17.655   0.846  0.00  0.00     0.169 HD
BRANCH  12  15
ATOM     15  C   UNL d   1      22.203 -17.108  -0.727  0.00  0.00     0.185 C 
BRANCH  15  16
ATOM     16  S   UNL d   1      22.104 -18.570   0.401  0.00  0.00    -0.083 SA
BRANCH  16  17
ATOM     17  C   UNL d   1      20.575 -19.315   0.137  0.00  0.00     0.168 A 
ATOM     18  N   UNL d   1      19.892 -19.325  -0.984  0.00  0.00    -0.235 NA
ATOM     19  C   UNL d   1      18.692 -19.918  -0.667  0.00  0.00     0.136 A 
ATOM     20  C   UNL d   1      18.654 -20.286   0.657  0.00  0.00     0.112 A 
ATOM     21  N   UNL d   1      19.862 -19.884   1.167  0.00  0.00    -0.339 N 
ATOM     22  C   UNL d   1      20.282 -20.080   2.535  0.00  0.00     0.158 C 
ENDBRANCH  16  17
ENDBRANCH  15  16
ENDBRANCH  12  15
ENDBRANCH   8  11
ENDBRANCH   2   5
BRANCH   1  23
ATOM     23  N   UNL d   1      32.482 -16.170   0.695  0.00  0.00    -0.265 N 
ATOM     24  C   UNL d   1      33.215 -16.485   1.841  0.00  0.00     0.265 C 
ATOM     25  O   UNL d   1      32.645 -16.905   2.852  0.00  0.00    -0.269 OA
ATOM     26  H   UNL d   1      32.884 -15.811  -0.170  0.00  0.00     0.190 HD
BRANCH  24  27
ATOM     27  C   UNL d   1      34.767 -16.269   1.753  0.00  0.00     0.218 C 
ATOM     28  C   UNL d   1      35.376 -16.644   3.109  0.00  0.00     0.050 C 
BRANCH  27  29
ATOM     29  O   UNL d   1      35.056 -14.898   1.412  0.00  0.00    -0.336 OA
BRANCH  29  30
ATOM     30  C   UNL d   1      34.127 -13.907   1.636  0.00  0.00     0.076 A 
ATOM     31  C   UNL d   1      33.758 -13.459   2.908  0.00  0.00     0.037 A 
ATOM     32  C   UNL d   1      32.726 -12.542   3.086  0.00  0.00     0.003 A 
ATOM     33  C   UNL d   1      32.089 -11.995   1.984  0.00  0.00     0.007 A 
ATOM     34  C   UNL d   1      32.471 -12.369   0.688  0.00  0.00    -0.053 A 
ATOM     35  C   UNL d   1      31.768 -11.717  -0.474  0.00  0.00     0.049 C 
ATOM     36  C   UNL d   1      33.498 -13.336   0.505  0.00  0.00    -0.023 A 
ATOM     37  C   UNL d   1      33.921 -13.712  -0.895  0.00  0.00     0.052 C 
ENDBRANCH  29  30
ENDBRANCH  27  29
ENDBRANCH  24  27
ENDBRANCH   1  23
TORSDOF 9
ENDMDL
MODEL 6
REMARK VINA RESULT:   -28.547      5.920      8.609
REMARK INTER + INTRA:         -33.375
REMARK INTER:                 -31.232
REMARK INTRA:                  -2.143
REMARK CONF_INDEPENDENT:        2.685
REMARK UNBOUND:                -2.143
REMARK  9 active torsions:
REMARK  status: ('A' for Active; 'I' for Inactive)
REMARK    1  A    between atoms: C_6  and  O_7 
REMARK    2  A    between atoms: O_7  and  C_8 
REMARK    3  A    between atoms: C_8  and  C_10 
REMARK       I    between atoms: C_10  and  N_12 
REMARK    4  A    between atoms: N_12  and  N_13 
REMARK       I    between atoms: N_13  and  C_14 
REMARK    5  A    between atoms: C_14  and  C_16 
REMARK    6  A    between atoms: C_19  and  N_20 
REMARK       I    between atoms: N_20  and  C_21 
REMARK    7  A    between atoms: C_21  and  C_23 
REMARK    8  A    between atoms: C_23  and  S_24 
REMARK    9  A    between atoms: S_24  and  C_25 
ROOT
ATOM      1  N   UNL d   1      30.589 -14.795   1.404  0.00  0.00    -0.263 N 
ATOM      2  C   UNL d   1      29.672 -14.581   0.382  0.00  0.00     0.270 C 
ATOM      3  O   UNL d   1      29.758 -13.633  -0.406  0.00  0.00    -0.266 OA
ATOM      4  H   UNL d   1      30.576 -15.610   2.019  0.00  0.00     0.190 HD
ENDROOT
BRANCH   2   5
ATOM      5  C   UNL d   1      28.517 -15.534   0.280  0.00  0.00     0.033 A 
ATOM      6  C   UNL d   1      28.678 -16.907   0.018  0.00  0.00     0.019 A 
ATOM      7  C   UNL d   1      27.552 -17.758  -0.200  0.00  0.00     0.030 A 
ATOM      8  C   UNL d   1      26.243 -17.255  -0.109  0.00  0.00     0.034 A 
ATOM      9  C   UNL d   1      26.126 -15.876   0.111  0.00  0.00     0.030 A 
ATOM     10  C   UNL d   1      27.225 -15.030   0.313  0.00  0.00     0.019 A 
BRANCH   8  11
ATOM     11  N   UNL d   1      25.090 -18.118  -0.215  0.00  0.00    -0.327 N 
ATOM     12  C   UNL d   1      24.180 -18.086  -1.286  0.00  0.00     0.231 C 
ATOM     13  O   UNL d   1      24.321 -17.331  -2.250  0.00  0.00    -0.272 OA
ATOM     14  H   UNL d   1      24.892 -18.720   0.577  0.00  0.00     0.169 HD
BRANCH  12  15
ATOM     15  C   UNL d   1      22.945 -19.023  -1.233  0.00  0.00     0.185 C 
BRANCH  15  16
ATOM     16  S   UNL d   1      21.980 -18.571   0.279  0.00  0.00    -0.083 SA
BRANCH  16  17
ATOM     17  C   UNL d   1      20.428 -19.300   0.130  0.00  0.00     0.168 A 
ATOM     18  N   UNL d   1      19.674 -19.325  -0.944  0.00  0.00    -0.235 NA
ATOM     19  C   UNL d   1      18.489 -19.894  -0.538  0.00  0.00     0.136 A 
ATOM     20  C   UNL d   1      18.534 -20.233   0.795  0.00  0.00     0.112 A 
ATOM     21  N   UNL d   1      19.776 -19.838   1.216  0.00  0.00    -0.339 N 
ATOM     22  C   UNL d   1      20.282 -20.010   2.559  0.00  0.00     0.158 C 
ENDBRANCH  16  17
ENDBRANCH  15  16
ENDBRANCH  12  15
ENDBRANCH   8  11
ENDBRANCH   2   5
BRANCH   1  23
ATOM     23  N   UNL d   1      31.683 -13.900   1.587  0.00  0.00    -0.265 N 
ATOM     24  C   UNL d   1      32.735 -14.270   2.428  0.00  0.00     0.265 C 
ATOM     25  O   UNL d   1      32.696 -15.337   3.047  0.00  0.00    -0.269 OA
ATOM     26  H   UNL d   1      31.643 -13.033   1.053  0.00  0.00     0.190 HD
BRANCH  24  27
ATOM     27  C   UNL d   1      33.931 -13.258   2.527  0.00  0.00     0.218 C 
ATOM     28  C   UNL d   1      34.952 -13.826   3.520  0.00  0.00     0.050 C 
BRANCH  27  29
ATOM     29  O   UNL d   1      33.451 -11.966   2.954  0.00  0.00    -0.336 OA
BRANCH  29  30
ATOM     30  C   UNL d   1      32.784 -11.824   4.150  0.00  0.00     0.076 A 
ATOM     31  C   UNL d   1      31.409 -12.027   4.303  0.00  0.00     0.037 A 
ATOM     32  C   UNL d   1      30.761 -11.752   5.503  0.00  0.00     0.003 A 
ATOM     33  C   UNL d   1      31.492 -11.336   6.604  0.00  0.00     0.007 A 
ATOM     34  C   UNL d   1      32.883 -11.181   6.513  0.00  0.00    -0.053 A 
ATOM     35  C   UNL d   1      33.631 -10.759   7.750  0.00  0.00     0.049 C 
ATOM     36  C   UNL d   1      33.541 -11.422   5.275  0.00  0.00    -0.023 A 
ATOM     37  C   UNL d   1      35.042 -11.278   5.194  0.00  0.00     0.052 C 
ENDBRANCH  29  30
ENDBRANCH  27  29
ENDBRANCH  24  27
ENDBRANCH   1  23
TORSDOF 9
ENDMDL
MODEL 7
REMARK VINA RESULT:   -28.456      3.722      5.144
REMARK INTER + INTRA:         -33.929
REMARK INTER:                 -31.141
REMARK INTRA:                  -2.789
REMARK CONF_INDEPENDENT:        2.685
REMARK UNBOUND:                -2.789
REMARK  9 active torsions:
REMARK  status: ('A' for Active; 'I' for Inactive)
REMARK    1  A    between atoms: C_6  and  O_7 
REMARK    2  A    between atoms: O_7  and  C_8 
REMARK    3  A    between atoms: C_8  and  C_10 
REMARK       I    between atoms: C_10  and  N_12 
REMARK    4  A    between atoms: N_12  and  N_13 
REMARK       I    between atoms: N_13  and  C_14 
REMARK    5  A    between atoms: C_14  and  C_16 
REMARK    6  A    between atoms: C_19  and  N_20 
REMARK       I    between atoms: N_20  and  C_21 
REMARK    7  A    between atoms: C_21  and  C_23 
REMARK    8  A    between atoms: C_23  and  S_24 
REMARK    9  A    between atoms: S_24  and  C_25 
ROOT
ATOM      1  N   UNL d   1      31.171 -16.890   0.623  0.00  0.00    -0.263 N 
ATOM      2  C   UNL d   1      30.411 -16.228  -0.335  0.00  0.00     0.270 C 
ATOM      3  O   UNL d   1      30.904 -15.458  -1.166  0.00  0.00    -0.266 OA
ATOM      4  H   UNL d   1      30.793 -17.583   1.271  0.00  0.00     0.190 HD
ENDROOT
BRANCH   2   5
ATOM      5  C   UNL d   1      28.926 -16.447  -0.310  0.00  0.00     0.033 A 
ATOM      6  C   UNL d   1      27.998 -15.395  -0.207  0.00  0.00     0.019 A 
ATOM      7  C   UNL d   1      26.602 -15.649  -0.055  0.00  0.00     0.030 A 
ATOM      8  C   UNL d   1      26.107 -16.964  -0.054  0.00  0.00     0.034 A 
ATOM      9  C   UNL d   1      27.065 -17.984  -0.116  0.00  0.00     0.030 A 
ATOM     10  C   UNL d   1      28.440 -17.745  -0.251  0.00  0.00     0.019 A 
BRANCH   8  11
ATOM     11  N   UNL d   1      24.690 -17.242  -0.014  0.00  0.00    -0.327 N 
ATOM     12  C   UNL d   1      23.780 -16.826  -1.001  0.00  0.00     0.231 C 
ATOM     13  O   UNL d   1      24.134 -16.213  -2.010  0.00  0.00    -0.272 OA
ATOM     14  H   UNL d   1      24.333 -17.692   0.822  0.00  0.00     0.169 HD
BRANCH  12  15
ATOM     15  C   UNL d   1      22.273 -17.133  -0.792  0.00  0.00     0.185 C 
BRANCH  15  16
ATOM     16  S   UNL d   1      22.165 -18.672   0.228  0.00  0.00    -0.083 SA
BRANCH  16  17
ATOM     17  C   UNL d   1      20.596 -19.334  -0.013  0.00  0.00     0.168 A 
ATOM     18  N   UNL d   1      19.904 -19.325  -1.129  0.00  0.00    -0.235 NA
ATOM     19  C   UNL d   1      18.675 -19.845  -0.794  0.00  0.00     0.136 A 
ATOM     20  C   UNL d   1      18.628 -20.189   0.537  0.00  0.00     0.112 A 
ATOM     21  N   UNL d   1      19.860 -19.847   1.031  0.00  0.00    -0.339 N 
ATOM     22  C   UNL d   1      20.279 -20.043   2.400  0.00  0.00     0.158 C 
ENDBRANCH  16  17
ENDBRANCH  15  16
ENDBRANCH  12  15
ENDBRANCH   8  11
ENDBRANCH   2   5
BRANCH   1  23
ATOM     23  N   UNL d   1      32.581 -16.689   0.686  0.00  0.00    -0.265 N 
ATOM     24  C   UNL d   1      33.331 -17.398   1.626  0.00  0.00     0.265 C 
ATOM     25  O   UNL d   1      32.775 -18.152   2.430  0.00  0.00    -0.269 OA
ATOM     26  H   UNL d   1      32.970 -16.044  -0.001  0.00  0.00     0.190 HD
BRANCH  24  27
ATOM     27  C   UNL d   1      34.883 -17.168   1.589  0.00  0.00     0.218 C 
ATOM     28  C   UNL d   1      35.141 -15.660   1.686  0.00  0.00     0.050 C 
BRANCH  27  29
ATOM     29  O   UNL d   1      35.435 -17.715   0.375  0.00  0.00    -0.336 OA
BRANCH  29  30
ATOM     30  C   UNL d   1      34.871 -17.425  -0.847  0.00  0.00     0.076 A 
ATOM     31  C   UNL d   1      35.096 -16.235  -1.546  0.00  0.00     0.037 A 
ATOM     32  C   UNL d   1      34.407 -15.937  -2.717  0.00  0.00     0.003 A 
ATOM     33  C   UNL d   1      33.527 -16.862  -3.258  0.00  0.00     0.007 A 
ATOM     34  C   UNL d   1      33.319 -18.094  -2.623  0.00  0.00    -0.053 A 
ATOM     35  C   UNL d   1      32.378 -19.075  -3.272  0.00  0.00     0.049 C 
ATOM     36  C   UNL d   1      33.992 -18.384  -1.404  0.00  0.00    -0.023 A 
ATOM     37  C   UNL d   1      33.782 -19.726  -0.743  0.00  0.00     0.052 C 
ENDBRANCH  29  30
ENDBRANCH  27  29
ENDBRANCH  24  27
ENDBRANCH   1  23
TORSDOF 9
ENDMDL
MODEL 8
REMARK VINA RESULT:   -28.337      3.849      5.356
REMARK INTER + INTRA:         -33.704
REMARK INTER:                 -31.022
REMARK INTRA:                  -2.683
REMARK CONF_INDEPENDENT:        2.685
REMARK UNBOUND:                -2.683
REMARK  9 active torsions:
REMARK  status: ('A' for Active; 'I' for Inactive)
REMARK    1  A    between atoms: C_6  and  O_7 
REMARK    2  A    between atoms: O_7  and  C_8 
REMARK    3  A    between atoms: C_8  and  C_10 
REMARK       I    between atoms: C_10  and  N_12 
REMARK    4  A    between atoms: N_12  and  N_13 
REMARK       I    between atoms: N_13  and  C_14 
REMARK    5  A    between atoms: C_14  and  C_16 
REMARK    6  A    between atoms: C_19  and  N_20 
REMARK       I    between atoms: N_20  and  C_21 
REMARK    7  A    between atoms: C_21  and  C_23 
REMARK    8  A    between atoms: C_23  and  S_24 
REMARK    9  A    between atoms: S_24  and  C_25 
ROOT
ATOM      1  N   UNL d   1      27.497 -11.550  -3.648  0.00  0.00    -0.263 N 
ATOM      2  C   UNL d   1      27.978 -12.736  -3.103  0.00  0.00     0.270 C 
ATOM      3  O   UNL d   1      29.184 -12.985  -3.004  0.00  0.00    -0.266 OA
ATOM      4  H   UNL d   1      26.508 -11.295  -3.673  0.00  0.00     0.190 HD
ENDROOT
BRANCH   2   5
ATOM      5  C   UNL d   1      26.966 -13.752  -2.661  0.00  0.00     0.033 A 
ATOM      6  C   UNL d   1      26.671 -14.002  -1.308  0.00  0.00     0.019 A 
ATOM      7  C   UNL d   1      25.800 -15.065  -0.922  0.00  0.00     0.030 A 
ATOM      8  C   UNL d   1      25.169 -15.864  -1.891  0.00  0.00     0.034 A 
ATOM      9  C   UNL d   1      25.520 -15.611  -3.223  0.00  0.00     0.030 A 
ATOM     10  C   UNL d   1      26.386 -14.579  -3.611  0.00  0.00     0.019 A 
BRANCH   8  11
ATOM     11  N   UNL d   1      24.198 -16.871  -1.529  0.00  0.00    -0.327 N 
ATOM     12  C   UNL d   1      24.513 -18.053  -0.838  0.00  0.00     0.231 C 
ATOM     13  O   UNL d   1      25.655 -18.309  -0.452  0.00  0.00    -0.272 OA
ATOM     14  H   UNL d   1      23.252 -16.741  -1.871  0.00  0.00     0.169 HD
BRANCH  12  15
ATOM     15  C   UNL d   1      23.380 -19.080  -0.578  0.00  0.00     0.185 C 
BRANCH  15  16
ATOM     16  S   UNL d   1      21.942 -18.144   0.114  0.00  0.00    -0.083 SA
BRANCH  16  17
ATOM     17  C   UNL d   1      20.543 -19.120  -0.112  0.00  0.00     0.168 A 
ATOM     18  N   UNL d   1      19.904 -19.325  -1.240  0.00  0.00    -0.235 NA
ATOM     19  C   UNL d   1      18.790 -20.053  -0.895  0.00  0.00     0.136 A 
ATOM     20  C   UNL d   1      18.762 -20.307   0.457  0.00  0.00     0.112 A 
ATOM     21  N   UNL d   1      19.884 -19.694   0.951  0.00  0.00    -0.339 N 
ATOM     22  C   UNL d   1      20.283 -19.708   2.340  0.00  0.00     0.158 C 
ENDBRANCH  16  17
ENDBRANCH  15  16
ENDBRANCH  12  15
ENDBRANCH   8  11
ENDBRANCH   2   5
BRANCH   1  23
ATOM     23  N   UNL d   1      28.403 -10.562  -4.132  0.00  0.00    -0.265 N 
ATOM     24  C   UNL d   1      27.898  -9.402  -4.722  0.00  0.00     0.265 C 
ATOM     25  O   UNL d   1      26.682  -9.254  -4.871  0.00  0.00    -0.269 OA
ATOM     26  H   UNL d   1      29.393 -10.756  -3.985  0.00  0.00     0.190 HD
BRANCH  24  27
ATOM     27  C   UNL d   1      28.958  -8.335  -5.171  0.00  0.00     0.218 C 
ATOM     28  C   UNL d   1      28.205  -7.142  -5.772  0.00  0.00     0.050 C 
BRANCH  27  29
ATOM     29  O   UNL d   1      29.867  -8.915  -6.129  0.00  0.00    -0.336 OA
BRANCH  29  30
ATOM     30  C   UNL d   1      29.441  -9.893  -6.999  0.00  0.00     0.076 A 
ATOM     31  C   UNL d   1      28.460  -9.693  -7.975  0.00  0.00     0.037 A 
ATOM     32  C   UNL d   1      27.977 -10.744  -8.748  0.00  0.00     0.003 A 
ATOM     33  C   UNL d   1      28.523 -12.011  -8.612  0.00  0.00     0.007 A 
ATOM     34  C   UNL d   1      29.553 -12.242  -7.690  0.00  0.00    -0.053 A 
ATOM     35  C   UNL d   1      30.132 -13.630  -7.608  0.00  0.00     0.049 C 
ATOM     36  C   UNL d   1      30.020 -11.177  -6.870  0.00  0.00    -0.023 A 
ATOM     37  C   UNL d   1      31.148 -11.430  -5.899  0.00  0.00     0.052 C 
ENDBRANCH  29  30
ENDBRANCH  27  29
ENDBRANCH  24  27
ENDBRANCH   1  23
TORSDOF 9
ENDMDL
MODEL 9
REMARK VINA RESULT:   -28.280      4.139      5.626
REMARK INTER + INTRA:         -33.870
REMARK INTER:                 -30.965
REMARK INTRA:                  -2.905
REMARK CONF_INDEPENDENT:        2.685
REMARK UNBOUND:                -2.905
REMARK  9 active torsions:
REMARK  status: ('A' for Active; 'I' for Inactive)
REMARK    1  A    between atoms: C_6  and  O_7 
REMARK    2  A    between atoms: O_7  and  C_8 
REMARK    3  A    between atoms: C_8  and  C_10 
REMARK       I    between atoms: C_10  and  N_12 
REMARK    4  A    between atoms: N_12  and  N_13 
REMARK       I    between atoms: N_13  and  C_14 
REMARK    5  A    between atoms: C_14  and  C_16 
REMARK    6  A    between atoms: C_19  and  N_20 
REMARK       I    between atoms: N_20  and  C_21 
REMARK    7  A    between atoms: C_21  and  C_23 
REMARK    8  A    between atoms: C_23  and  S_24 
REMARK    9  A    between atoms: S_24  and  C_25 
ROOT
ATOM      1  N   UNL d   1      30.939 -15.975   0.998  0.00  0.00    -0.263 N 
ATOM      2  C   UNL d   1      30.120 -15.511  -0.026  0.00  0.00     0.270 C 
ATOM      3  O   UNL d   1      30.511 -14.717  -0.887  0.00  0.00    -0.266 OA
ATOM      4  H   UNL d   1      30.657 -16.685   1.675  0.00  0.00     0.190 HD
ENDROOT
BRANCH   2   5
ATOM      5  C   UNL d   1      28.694 -15.980  -0.034  0.00  0.00     0.033 A 
ATOM      6  C   UNL d   1      28.334 -17.335  -0.154  0.00  0.00     0.019 A 
ATOM      7  C   UNL d   1      26.969 -17.731  -0.289  0.00  0.00     0.030 A 
ATOM      8  C   UNL d   1      25.938 -16.778  -0.255  0.00  0.00     0.034 A 
ATOM      9  C   UNL d   1      26.339 -15.438  -0.177  0.00  0.00     0.030 A 
ATOM     10  C   UNL d   1      27.677 -15.038  -0.059  0.00  0.00     0.019 A 
BRANCH   8  11
ATOM     11  N   UNL d   1      24.546 -17.164  -0.277  0.00  0.00    -0.327 N 
ATOM     12  C   UNL d   1      23.559 -16.501  -1.025  0.00  0.00     0.231 C 
ATOM     13  O   UNL d   1      23.816 -15.545  -1.759  0.00  0.00    -0.272 OA
ATOM     14  H   UNL d   1      24.266 -17.909   0.352  0.00  0.00     0.169 HD
BRANCH  12  15
ATOM     15  C   UNL d   1      22.089 -16.983  -0.897  0.00  0.00     0.185 C 
BRANCH  15  16
ATOM     16  S   UNL d   1      22.083 -18.419   0.268  0.00  0.00    -0.083 SA
BRANCH  16  17
ATOM     17  C   UNL d   1      20.589 -19.244   0.052  0.00  0.00     0.168 A 
ATOM     18  N   UNL d   1      19.891 -19.325  -1.057  0.00  0.00    -0.235 NA
ATOM     19  C   UNL d   1      18.726 -19.964  -0.702  0.00  0.00     0.136 A 
ATOM     20  C   UNL d   1      18.726 -20.289   0.634  0.00  0.00     0.112 A 
ATOM     21  N   UNL d   1      19.919 -19.814   1.111  0.00  0.00    -0.339 N 
ATOM     22  C   UNL d   1      20.368 -19.943   2.478  0.00  0.00     0.158 C 
ENDBRANCH  16  17
ENDBRANCH  15  16
ENDBRANCH  12  15
ENDBRANCH   8  11
ENDBRANCH   2   5
BRANCH   1  23
ATOM     23  N   UNL d   1      32.291 -15.532   1.092  0.00  0.00    -0.265 N 
ATOM     24  C   UNL d   1      33.193 -16.255   1.876  0.00  0.00     0.265 C 
ATOM     25  O   UNL d   1      32.815 -17.237   2.521  0.00  0.00    -0.269 OA
ATOM     26  H   UNL d   1      32.529 -14.708   0.542  0.00  0.00     0.190 HD
BRANCH  24  27
ATOM     27  C   UNL d   1      34.675 -15.738   1.878  0.00  0.00     0.218 C 
ATOM     28  C   UNL d   1      34.951 -15.097   3.244  0.00  0.00     0.050 C 
BRANCH  27  29
ATOM     29  O   UNL d   1      34.871 -14.792   0.808  0.00  0.00    -0.336 OA
BRANCH  29  30
ATOM     30  C   UNL d   1      34.820 -15.197  -0.507  0.00  0.00     0.076 A 
ATOM     31  C   UNL d   1      35.418 -16.367  -0.985  0.00  0.00     0.037 A 
ATOM     32  C   UNL d   1      35.444 -16.670  -2.343  0.00  0.00     0.003 A 
ATOM     33  C   UNL d   1      34.802 -15.840  -3.248  0.00  0.00     0.007 A 
ATOM     34  C   UNL d   1      34.136 -14.689  -2.805  0.00  0.00    -0.053 A 
ATOM     35  C   UNL d   1      33.427 -13.842  -3.829  0.00  0.00     0.049 C 
ATOM     36  C   UNL d   1      34.143 -14.357  -1.422  0.00  0.00    -0.023 A 
ATOM     37  C   UNL d   1      33.400 -13.130  -0.950  0.00  0.00     0.052 C 
ENDBRANCH  29  30
ENDBRANCH  27  29
ENDBRANCH  24  27
ENDBRANCH   1  23
TORSDOF 9
ENDMDL
