MODEL 1
REMARK VINA RESULT:    -8.016      0.000      0.000
REMARK INTER + INTRA:         -11.473
REMARK INTER:                  -9.806
REMARK INTRA:                  -1.667
REMARK CONF_INDEPENDENT:        1.790
REMARK UNBOUND:                -1.667
REMARK  6 active torsions:
REMARK  status: ('A' for Active; 'I' for Inactive)
REMARK    1  A    between atoms: C_7  and  C_8 
REMARK       I    between atoms: C_8  and  N_10 
REMARK    2  A    between atoms: N_10  and  C_11 
REMARK    3  A    between atoms: C_11  and  C_12 
REMARK    4  A    between atoms: C_12  and  C_13 
REMARK       I    between atoms: C_13  and  N_15 
REMARK    5  A    between atoms: N_15  and  N_16 
REMARK       I    between atoms: N_16  and  C_17 
REMARK    6  A    between atoms: C_19  and  C_17 
ROOT
ATOM      1  C   UNL d   1      24.528 -16.293  -1.334  0.00  0.00     0.124 C 
ENDROOT
BRANCH   1   2
ATOM      2  C   UNL d   1      25.279 -16.680  -2.627  0.00  0.00     0.132 C 
BRANCH   2   3
ATOM      3  N   UNL d   1      25.896 -15.535  -3.273  0.00  0.00    -0.356 N 
ATOM      4  C   UNL d   1      25.223 -14.425  -3.752  0.00  0.00     0.252 C 
ATOM      5  O   UNL d   1      23.993 -14.339  -3.659  0.00  0.00    -0.268 OA
ATOM      6  H   UNL d   1      26.885 -15.604  -3.328  0.00  0.00     0.162 HD
BRANCH   4   7
ATOM      7  C   UNL d   1      26.003 -13.288  -4.403  0.00  0.00     0.037 A 
ATOM      8  C   UNL d   1      25.574 -11.970  -4.111  0.00  0.00     0.017 A 
ATOM      9  C   UNL d   1      26.220 -10.845  -4.648  0.00  0.00     0.001 A 
ATOM     10  C   UNL d   1      27.305 -11.007  -5.497  0.00  0.00     0.001 A 
ATOM     11  C   UNL d   1      27.746 -12.288  -5.802  0.00  0.00     0.007 A 
ATOM     12  C   UNL d   1      27.116 -13.431  -5.266  0.00  0.00    -0.046 A 
ATOM     13  C   UNL d   1      27.707 -14.746  -5.665  0.00  0.00     0.049 C 
ENDBRANCH   4   7
ENDBRANCH   2   3
ENDBRANCH   1   2
BRANCH   1  14
ATOM     14  C   UNL d   1      24.051 -17.549  -0.613  0.00  0.00     0.237 C 
ATOM     15  O   UNL d   1      24.787 -18.212   0.117  0.00  0.00    -0.272 OA
ATOM     16  N   UNL d   1      22.734 -17.910  -0.819  0.00  0.00    -0.267 N 
ATOM     17  H   UNL d   1      22.070 -17.410  -1.411  0.00  0.00     0.190 HD
BRANCH  16  18
ATOM     18  N   UNL d   1      22.245 -19.099  -0.200  0.00  0.00    -0.265 N 
ATOM     19  C   UNL d   1      20.880 -19.316  -0.207  0.00  0.00     0.265 C 
ATOM     20  O   UNL d   1      20.136 -18.528  -0.802  0.00  0.00    -0.269 OA
ATOM     21  H   UNL d   1      22.934 -19.707   0.241  0.00  0.00     0.190 HD
BRANCH  19  22
ATOM     22  C   UNL d   1      20.334 -20.526   0.617  0.00  0.00     0.215 C 
ATOM     23  C   UNL d   1      19.894 -19.989   1.980  0.00  0.00     0.044 C 
ATOM     24  C   UNL d   1      18.413 -19.770   1.785  0.00  0.00     0.029 C 
ATOM     25  C   UNL d   1      18.039 -20.941   0.913  0.00  0.00     0.168 C 
ATOM     26  O   UNL d   1      19.185 -21.202   0.077  0.00  0.00    -0.376 OA
ENDBRANCH  19  22
ENDBRANCH  16  18
ENDBRANCH   1  14
TORSDOF 6
ENDMDL
MODEL 2
REMARK VINA RESULT:    -7.809      4.778      6.004
REMARK INTER + INTRA:         -11.204
REMARK INTER:                  -9.598
REMARK INTRA:                  -1.606
REMARK CONF_INDEPENDENT:        1.790
REMARK UNBOUND:                -1.606
REMARK  6 active torsions:
REMARK  status: ('A' for Active; 'I' for Inactive)
REMARK    1  A    between atoms: C_7  and  C_8 
REMARK       I    between atoms: C_8  and  N_10 
REMARK    2  A    between atoms: N_10  and  C_11 
REMARK    3  A    between atoms: C_11  and  C_12 
REMARK    4  A    between atoms: C_12  and  C_13 
REMARK       I    between atoms: C_13  and  N_15 
REMARK    5  A    between atoms: N_15  and  N_16 
REMARK       I    between atoms: N_16  and  C_17 
REMARK    6  A    between atoms: C_19  and  C_17 
ROOT
ATOM      1  C   UNL d   1      26.054 -15.849  -0.142  0.00  0.00     0.124 C 
ENDROOT
BRANCH   1   2
ATOM      2  C   UNL d   1      27.534 -16.038   0.259  0.00  0.00     0.132 C 
BRANCH   2   3
ATOM      3  N   UNL d   1      27.850 -15.395   1.523  0.00  0.00    -0.356 N 
ATOM      4  C   UNL d   1      27.353 -14.176   1.950  0.00  0.00     0.252 C 
ATOM      5  O   UNL d   1      26.574 -13.526   1.244  0.00  0.00    -0.268 OA
ATOM      6  H   UNL d   1      28.463 -15.931   2.091  0.00  0.00     0.162 HD
BRANCH   4   7
ATOM      7  C   UNL d   1      27.767 -13.623   3.309  0.00  0.00     0.037 A 
ATOM      8  C   UNL d   1      28.321 -14.545   4.231  0.00  0.00     0.017 A 
ATOM      9  C   UNL d   1      28.744 -14.150   5.510  0.00  0.00     0.001 A 
ATOM     10  C   UNL d   1      28.616 -12.826   5.905  0.00  0.00     0.001 A 
ATOM     11  C   UNL d   1      28.074 -11.900   5.023  0.00  0.00     0.007 A 
ATOM     12  C   UNL d   1      27.651 -12.276   3.729  0.00  0.00    -0.046 A 
ATOM     13  C   UNL d   1      27.103 -11.174   2.880  0.00  0.00     0.049 C 
ENDBRANCH   4   7
ENDBRANCH   2   3
ENDBRANCH   1   2
BRANCH   1  14
ATOM     14  C   UNL d   1      25.344 -17.199  -0.165  0.00  0.00     0.237 C 
ATOM     15  O   UNL d   1      25.933 -18.259   0.045  0.00  0.00    -0.272 OA
ATOM     16  N   UNL d   1      23.990 -17.173  -0.434  0.00  0.00    -0.267 N 
ATOM     17  H   UNL d   1      23.440 -16.334  -0.619  0.00  0.00     0.190 HD
BRANCH  16  18
ATOM     18  N   UNL d   1      23.282 -18.410  -0.508  0.00  0.00    -0.265 N 
ATOM     19  C   UNL d   1      21.916 -18.362  -0.702  0.00  0.00     0.265 C 
ATOM     20  O   UNL d   1      21.358 -17.273  -0.879  0.00  0.00    -0.269 OA
ATOM     21  H   UNL d   1      23.828 -19.262  -0.380  0.00  0.00     0.190 HD
BRANCH  19  22
ATOM     22  C   UNL d   1      21.122 -19.705  -0.611  0.00  0.00     0.215 C 
ATOM     23  C   UNL d   1      20.637 -19.852   0.832  0.00  0.00     0.044 C 
ATOM     24  C   UNL d   1      19.229 -19.309   0.763  0.00  0.00     0.029 C 
ATOM     25  C   UNL d   1      18.773 -19.804  -0.586  0.00  0.00     0.168 C 
ATOM     26  O   UNL d   1      19.943 -19.809  -1.429  0.00  0.00    -0.376 OA
ENDBRANCH  19  22
ENDBRANCH  16  18
ENDBRANCH   1  14
TORSDOF 6
ENDMDL
MODEL 3
REMARK VINA RESULT:    -7.560      1.317      2.103
REMARK INTER + INTRA:         -10.455
REMARK INTER:                  -9.349
REMARK INTRA:                  -1.106
REMARK CONF_INDEPENDENT:        1.790
REMARK UNBOUND:                -1.106
REMARK  6 active torsions:
REMARK  status: ('A' for Active; 'I' for Inactive)
REMARK    1  A    between atoms: C_7  and  C_8 
REMARK       I    between atoms: C_8  and  N_10 
REMARK    2  A    between atoms: N_10  and  C_11 
REMARK    3  A    between atoms: C_11  and  C_12 
REMARK    4  A    between atoms: C_12  and  C_13 
REMARK       I    between atoms: C_13  and  N_15 
REMARK    5  A    between atoms: N_15  and  N_16 
REMARK       I    between atoms: N_16  and  C_17 
REMARK    6  A    between atoms: C_19  and  C_17 
ROOT
ATOM      1  C   UNL d   1      24.908 -16.029  -0.572  0.00  0.00     0.124 C 
ENDROOT
BRANCH   1   2
ATOM      2  C   UNL d   1      25.765 -16.866  -1.548  0.00  0.00     0.132 C 
BRANCH   2   3
ATOM      3  N   UNL d   1      26.377 -16.053  -2.584  0.00  0.00    -0.356 N 
ATOM      4  C   UNL d   1      25.732 -15.077  -3.323  0.00  0.00     0.252 C 
ATOM      5  O   UNL d   1      24.535 -14.830  -3.141  0.00  0.00    -0.268 OA
ATOM      6  H   UNL d   1      27.342 -16.246  -2.712  0.00  0.00     0.162 HD
BRANCH   4   7
ATOM      7  C   UNL d   1      26.504 -14.292  -4.378  0.00  0.00     0.037 A 
ATOM      8  C   UNL d   1      27.384 -15.030  -5.207  0.00  0.00     0.017 A 
ATOM      9  C   UNL d   1      28.142 -14.416  -6.216  0.00  0.00     0.001 A 
ATOM     10  C   UNL d   1      28.049 -13.046  -6.418  0.00  0.00     0.001 A 
ATOM     11  C   UNL d   1      27.195 -12.296  -5.618  0.00  0.00     0.007 A 
ATOM     12  C   UNL d   1      26.418 -12.897  -4.604  0.00  0.00    -0.046 A 
ATOM     13  C   UNL d   1      25.531 -11.973  -3.833  0.00  0.00     0.049 C 
ENDBRANCH   4   7
ENDBRANCH   2   3
ENDBRANCH   1   2
BRANCH   1  14
ATOM     14  C   UNL d   1      23.503 -16.613  -0.480  0.00  0.00     0.237 C 
ATOM     15  O   UNL d   1      22.528 -16.075  -1.005  0.00  0.00    -0.272 OA
ATOM     16  N   UNL d   1      23.375 -17.792   0.228  0.00  0.00    -0.267 N 
ATOM     17  H   UNL d   1      24.137 -18.290   0.688  0.00  0.00     0.190 HD
BRANCH  16  18
ATOM     18  N   UNL d   1      22.076 -18.363   0.379  0.00  0.00    -0.265 N 
ATOM     19  C   UNL d   1      21.524 -19.011  -0.709  0.00  0.00     0.265 C 
ATOM     20  O   UNL d   1      22.185 -19.144  -1.744  0.00  0.00    -0.269 OA
ATOM     21  H   UNL d   1      21.616 -18.229   1.279  0.00  0.00     0.190 HD
BRANCH  19  22
ATOM     22  C   UNL d   1      20.039 -19.484  -0.595  0.00  0.00     0.215 C 
ATOM     23  C   UNL d   1      20.044 -20.838   0.116  0.00  0.00     0.044 C 
ATOM     24  C   UNL d   1      19.774 -20.457   1.552  0.00  0.00     0.029 C 
ATOM     25  C   UNL d   1      18.794 -19.323   1.393  0.00  0.00     0.168 C 
ATOM     26  O   UNL d   1      19.157 -18.646   0.172  0.00  0.00    -0.376 OA
ENDBRANCH  19  22
ENDBRANCH  16  18
ENDBRANCH   1  14
TORSDOF 6
ENDMDL
MODEL 4
REMARK VINA RESULT:    -6.480      5.067      8.257
REMARK INTER + INTRA:         -10.650
REMARK INTER:                  -8.269
REMARK INTRA:                  -2.381
REMARK CONF_INDEPENDENT:        1.790
REMARK UNBOUND:                -2.381
REMARK  6 active torsions:
REMARK  status: ('A' for Active; 'I' for Inactive)
REMARK    1  A    between atoms: C_7  and  C_8 
REMARK       I    between atoms: C_8  and  N_10 
REMARK    2  A    between atoms: N_10  and  C_11 
REMARK    3  A    between atoms: C_11  and  C_12 
REMARK    4  A    between atoms: C_12  and  C_13 
REMARK       I    between atoms: C_13  and  N_15 
REMARK    5  A    between atoms: N_15  and  N_16 
REMARK       I    between atoms: N_16  and  C_17 
REMARK    6  A    between atoms: C_19  and  C_17 
ROOT
ATOM      1  C   UNL d   1      28.994 -14.228  -1.254  0.00  0.00     0.124 C 
ENDROOT
BRANCH   1   2
ATOM      2  C   UNL d   1      27.851 -14.663  -2.198  0.00  0.00     0.132 C 
BRANCH   2   3
ATOM      3  N   UNL d   1      26.887 -15.526  -1.538  0.00  0.00    -0.356 N 
ATOM      4  C   UNL d   1      25.593 -15.759  -1.967  0.00  0.00     0.252 C 
ATOM      5  O   UNL d   1      25.155 -15.216  -2.987  0.00  0.00    -0.268 OA
ATOM      6  H   UNL d   1      27.252 -15.972  -0.729  0.00  0.00     0.162 HD
BRANCH   4   7
ATOM      7  C   UNL d   1      24.690 -16.700  -1.176  0.00  0.00     0.037 A 
ATOM      8  C   UNL d   1      23.294 -16.475  -1.269  0.00  0.00     0.017 A 
ATOM      9  C   UNL d   1      22.367 -17.280  -0.590  0.00  0.00     0.001 A 
ATOM     10  C   UNL d   1      22.809 -18.326   0.208  0.00  0.00     0.001 A 
ATOM     11  C   UNL d   1      24.172 -18.568   0.320  0.00  0.00     0.007 A 
ATOM     12  C   UNL d   1      25.120 -17.775  -0.362  0.00  0.00    -0.046 A 
ATOM     13  C   UNL d   1      26.551 -18.160  -0.163  0.00  0.00     0.049 C 
ENDBRANCH   4   7
ENDBRANCH   2   3
ENDBRANCH   1   2
BRANCH   1  14
ATOM     14  C   UNL d   1      28.806 -14.860   0.120  0.00  0.00     0.237 C 
ATOM     15  O   UNL d   1      29.020 -16.053   0.333  0.00  0.00    -0.272 OA
ATOM     16  N   UNL d   1      28.379 -14.019   1.128  0.00  0.00    -0.267 N 
ATOM     17  H   UNL d   1      28.180 -13.023   1.022  0.00  0.00     0.190 HD
BRANCH  16  18
ATOM     18  N   UNL d   1      28.147 -14.565   2.425  0.00  0.00    -0.265 N 
ATOM     19  C   UNL d   1      27.515 -13.767   3.359  0.00  0.00     0.265 C 
ATOM     20  O   UNL d   1      27.105 -12.648   3.034  0.00  0.00    -0.269 OA
ATOM     21  H   UNL d   1      28.494 -15.508   2.597  0.00  0.00     0.190 HD
BRANCH  19  22
ATOM     22  C   UNL d   1      27.416 -14.303   4.824  0.00  0.00     0.215 C 
ATOM     23  C   UNL d   1      28.660 -15.155   5.083  0.00  0.00     0.044 C 
ATOM     24  C   UNL d   1      29.591 -14.179   5.764  0.00  0.00     0.029 C 
ATOM     25  C   UNL d   1      28.635 -13.378   6.609  0.00  0.00     0.168 C 
ATOM     26  O   UNL d   1      27.399 -13.314   5.868  0.00  0.00    -0.376 OA
ENDBRANCH  19  22
ENDBRANCH  16  18
ENDBRANCH   1  14
TORSDOF 6
ENDMDL
MODEL 5
REMARK VINA RESULT:    -6.287      2.816      5.192
REMARK INTER + INTRA:         -10.529
REMARK INTER:                  -8.077
REMARK INTRA:                  -2.452
REMARK CONF_INDEPENDENT:        1.790
REMARK UNBOUND:                -2.452
REMARK  6 active torsions:
REMARK  status: ('A' for Active; 'I' for Inactive)
REMARK    1  A    between atoms: C_7  and  C_8 
REMARK       I    between atoms: C_8  and  N_10 
REMARK    2  A    between atoms: N_10  and  C_11 
REMARK    3  A    between atoms: C_11  and  C_12 
REMARK    4  A    between atoms: C_12  and  C_13 
REMARK       I    between atoms: C_13  and  N_15 
REMARK    5  A    between atoms: N_15  and  N_16 
REMARK       I    between atoms: N_16  and  C_17 
REMARK    6  A    between atoms: C_19  and  C_17 
ROOT
ATOM      1  C   UNL d   1      25.699 -12.531  -3.839  0.00  0.00     0.124 C 
ENDROOT
BRANCH   1   2
ATOM      2  C   UNL d   1      27.050 -12.594  -4.586  0.00  0.00     0.132 C 
BRANCH   2   3
ATOM      3  N   UNL d   1      27.898 -13.672  -4.108  0.00  0.00    -0.356 N 
ATOM      4  C   UNL d   1      28.024 -14.916  -4.700  0.00  0.00     0.252 C 
ATOM      5  O   UNL d   1      27.388 -15.200  -5.721  0.00  0.00    -0.268 OA
ATOM      6  H   UNL d   1      28.417 -13.429  -3.297  0.00  0.00     0.162 HD
BRANCH   4   7
ATOM      7  C   UNL d   1      28.962 -15.953  -4.091  0.00  0.00     0.037 A 
ATOM      8  C   UNL d   1      28.864 -16.158  -2.692  0.00  0.00     0.017 A 
ATOM      9  C   UNL d   1      29.671 -17.091  -2.022  0.00  0.00     0.001 A 
ATOM     10  C   UNL d   1      30.603 -17.837  -2.730  0.00  0.00     0.001 A 
ATOM     11  C   UNL d   1      30.722 -17.656  -4.102  0.00  0.00     0.007 A 
ATOM     12  C   UNL d   1      29.913 -16.729  -4.795  0.00  0.00    -0.046 A 
ATOM     13  C   UNL d   1      30.136 -16.650  -6.271  0.00  0.00     0.049 C 
ENDBRANCH   4   7
ENDBRANCH   2   3
ENDBRANCH   1   2
BRANCH   1  14
ATOM     14  C   UNL d   1      25.121 -13.934  -3.690  0.00  0.00     0.237 C 
ATOM     15  O   UNL d   1      24.407 -14.449  -4.549  0.00  0.00    -0.272 OA
ATOM     16  N   UNL d   1      25.443 -14.609  -2.528  0.00  0.00    -0.267 N 
ATOM     17  H   UNL d   1      26.026 -14.243  -1.775  0.00  0.00     0.190 HD
BRANCH  16  18
ATOM     18  N   UNL d   1      24.897 -15.910  -2.318  0.00  0.00    -0.265 N 
ATOM     19  C   UNL d   1      25.140 -16.523  -1.104  0.00  0.00     0.265 C 
ATOM     20  O   UNL d   1      25.750 -15.914  -0.219  0.00  0.00    -0.269 OA
ATOM     21  H   UNL d   1      24.382 -16.325  -3.093  0.00  0.00     0.190 HD
BRANCH  19  22
ATOM     22  C   UNL d   1      24.689 -18.011  -0.940  0.00  0.00     0.215 C 
ATOM     23  C   UNL d   1      24.108 -18.159   0.467  0.00  0.00     0.044 C 
ATOM     24  C   UNL d   1      22.625 -17.993   0.230  0.00  0.00     0.029 C 
ATOM     25  C   UNL d   1      22.444 -18.691  -1.094  0.00  0.00     0.168 C 
ATOM     26  O   UNL d   1      23.661 -18.470  -1.835  0.00  0.00    -0.376 OA
ENDBRANCH  19  22
ENDBRANCH  16  18
ENDBRANCH   1  14
TORSDOF 6
ENDMDL
MODEL 6
REMARK VINA RESULT:    -6.249      4.303      9.352
REMARK INTER + INTRA:         -10.478
REMARK INTER:                  -8.039
REMARK INTRA:                  -2.438
REMARK CONF_INDEPENDENT:        1.790
REMARK UNBOUND:                -2.438
REMARK  6 active torsions:
REMARK  status: ('A' for Active; 'I' for Inactive)
REMARK    1  A    between atoms: C_7  and  C_8 
REMARK       I    between atoms: C_8  and  N_10 
REMARK    2  A    between atoms: N_10  and  C_11 
REMARK    3  A    between atoms: C_11  and  C_12 
REMARK    4  A    between atoms: C_12  and  C_13 
REMARK       I    between atoms: C_13  and  N_15 
REMARK    5  A    between atoms: N_15  and  N_16 
REMARK       I    between atoms: N_16  and  C_17 
REMARK    6  A    between atoms: C_19  and  C_17 
ROOT
ATOM      1  C   UNL d   1      27.481 -13.165  -5.682  0.00  0.00     0.124 C 
ENDROOT
BRANCH   1   2
ATOM      2  C   UNL d   1      26.198 -13.178  -4.822  0.00  0.00     0.132 C 
BRANCH   2   3
ATOM      3  N   UNL d   1      26.212 -14.234  -3.825  0.00  0.00    -0.356 N 
ATOM      4  C   UNL d   1      25.124 -14.640  -3.072  0.00  0.00     0.252 C 
ATOM      5  O   UNL d   1      24.021 -14.098  -3.206  0.00  0.00    -0.268 OA
ATOM      6  H   UNL d   1      27.096 -14.675  -3.735  0.00  0.00     0.162 HD
BRANCH   4   7
ATOM      7  C   UNL d   1      25.282 -15.772  -2.062  0.00  0.00     0.037 A 
ATOM      8  C   UNL d   1      24.096 -16.420  -1.638  0.00  0.00     0.017 A 
ATOM      9  C   UNL d   1      24.118 -17.479  -0.716  0.00  0.00     0.001 A 
ATOM     10  C   UNL d   1      25.326 -17.913  -0.188  0.00  0.00     0.001 A 
ATOM     11  C   UNL d   1      26.505 -17.295  -0.585  0.00  0.00     0.007 A 
ATOM     12  C   UNL d   1      26.503 -16.234  -1.516  0.00  0.00    -0.046 A 
ATOM     13  C   UNL d   1      27.846 -15.675  -1.865  0.00  0.00     0.049 C 
ENDBRANCH   4   7
ENDBRANCH   2   3
ENDBRANCH   1   2
BRANCH   1  14
ATOM     14  C   UNL d   1      27.985 -14.589  -5.890  0.00  0.00     0.237 C 
ATOM     15  O   UNL d   1      27.269 -15.575  -5.716  0.00  0.00    -0.272 OA
ATOM     16  N   UNL d   1      29.300 -14.721  -6.290  0.00  0.00    -0.267 N 
ATOM     17  H   UNL d   1      29.949 -13.950  -6.450  0.00  0.00     0.190 HD
BRANCH  16  18
ATOM     18  N   UNL d   1      29.836 -16.032  -6.461  0.00  0.00    -0.265 N 
ATOM     19  C   UNL d   1      31.152 -16.144  -6.867  0.00  0.00     0.265 C 
ATOM     20  O   UNL d   1      31.842 -15.128  -6.998  0.00  0.00    -0.269 OA
ATOM     21  H   UNL d   1      29.202 -16.814  -6.302  0.00  0.00     0.190 HD
BRANCH  19  22
ATOM     22  C   UNL d   1      31.684 -17.571  -7.218  0.00  0.00     0.215 C 
ATOM     23  C   UNL d   1      32.085 -18.245  -5.905  0.00  0.00     0.044 C 
ATOM     24  C   UNL d   1      30.858 -19.055  -5.562  0.00  0.00     0.029 C 
ATOM     25  C   UNL d   1      30.405 -19.522  -6.922  0.00  0.00     0.168 C 
ATOM     26  O   UNL d   1      30.749 -18.467  -7.844  0.00  0.00    -0.376 OA
ENDBRANCH  19  22
ENDBRANCH  16  18
ENDBRANCH   1  14
TORSDOF 6
ENDMDL
MODEL 7
REMARK VINA RESULT:    -6.110      3.845      9.656
REMARK INTER + INTRA:         -10.417
REMARK INTER:                  -7.900
REMARK INTRA:                  -2.517
REMARK CONF_INDEPENDENT:        1.790
REMARK UNBOUND:                -2.517
REMARK  6 active torsions:
REMARK  status: ('A' for Active; 'I' for Inactive)
REMARK    1  A    between atoms: C_7  and  C_8 
REMARK       I    between atoms: C_8  and  N_10 
REMARK    2  A    between atoms: N_10  and  C_11 
REMARK    3  A    between atoms: C_11  and  C_12 
REMARK    4  A    between atoms: C_12  and  C_13 
REMARK       I    between atoms: C_13  and  N_15 
REMARK    5  A    between atoms: N_15  and  N_16 
REMARK       I    between atoms: N_16  and  C_17 
REMARK    6  A    between atoms: C_19  and  C_17 
ROOT
ATOM      1  C   UNL d   1      26.763 -13.353  -5.062  0.00  0.00     0.124 C 
ENDROOT
BRANCH   1   2
ATOM      2  C   UNL d   1      25.491 -13.709  -4.262  0.00  0.00     0.132 C 
BRANCH   2   3
ATOM      3  N   UNL d   1      25.730 -14.749  -3.277  0.00  0.00    -0.356 N 
ATOM      4  C   UNL d   1      24.787 -15.254  -2.399  0.00  0.00     0.252 C 
ATOM      5  O   UNL d   1      23.628 -14.824  -2.395  0.00  0.00    -0.268 OA
ATOM      6  H   UNL d   1      26.658 -15.100  -3.298  0.00  0.00     0.162 HD
BRANCH   4   7
ATOM      7  C   UNL d   1      25.178 -16.356  -1.419  0.00  0.00     0.037 A 
ATOM      8  C   UNL d   1      26.562 -16.532  -1.175  0.00  0.00     0.017 A 
ATOM      9  C   UNL d   1      27.039 -17.510  -0.289  0.00  0.00     0.001 A 
ATOM     10  C   UNL d   1      26.148 -18.345   0.369  0.00  0.00     0.001 A 
ATOM     11  C   UNL d   1      24.784 -18.196   0.147  0.00  0.00     0.007 A 
ATOM     12  C   UNL d   1      24.284 -17.213  -0.733  0.00  0.00    -0.046 A 
ATOM     13  C   UNL d   1      22.796 -17.154  -0.862  0.00  0.00     0.049 C 
ENDBRANCH   4   7
ENDBRANCH   2   3
ENDBRANCH   1   2
BRANCH   1  14
ATOM     14  C   UNL d   1      27.489 -14.626  -5.482  0.00  0.00     0.237 C 
ATOM     15  O   UNL d   1      26.981 -15.742  -5.376  0.00  0.00    -0.272 OA
ATOM     16  N   UNL d   1      28.760 -14.465  -5.997  0.00  0.00    -0.267 N 
ATOM     17  H   UNL d   1      29.243 -13.573  -6.111  0.00  0.00     0.190 HD
BRANCH  16  18
ATOM     18  N   UNL d   1      29.501 -15.626  -6.369  0.00  0.00    -0.265 N 
ATOM     19  C   UNL d   1      30.756 -15.443  -6.917  0.00  0.00     0.265 C 
ATOM     20  O   UNL d   1      31.229 -14.304  -7.002  0.00  0.00    -0.269 OA
ATOM     21  H   UNL d   1      29.044 -16.527  -6.236  0.00  0.00     0.190 HD
BRANCH  19  22
ATOM     22  C   UNL d   1      31.493 -16.702  -7.479  0.00  0.00     0.215 C 
ATOM     23  C   UNL d   1      32.593 -17.071  -6.483  0.00  0.00     0.044 C 
ATOM     24  C   UNL d   1      31.930 -18.138  -5.643  0.00  0.00     0.029 C 
ATOM     25  C   UNL d   1      31.111 -18.876  -6.670  0.00  0.00     0.168 C 
ATOM     26  O   UNL d   1      30.699 -17.890  -7.639  0.00  0.00    -0.376 OA
ENDBRANCH  19  22
ENDBRANCH  16  18
ENDBRANCH   1  14
TORSDOF 6
ENDMDL
MODEL 8
REMARK VINA RESULT:    -6.011      3.997      9.038
REMARK INTER + INTRA:         -10.705
REMARK INTER:                  -7.801
REMARK INTRA:                  -2.903
REMARK CONF_INDEPENDENT:        1.790
REMARK UNBOUND:                -2.903
REMARK  6 active torsions:
REMARK  status: ('A' for Active; 'I' for Inactive)
REMARK    1  A    between atoms: C_7  and  C_8 
REMARK       I    between atoms: C_8  and  N_10 
REMARK    2  A    between atoms: N_10  and  C_11 
REMARK    3  A    between atoms: C_11  and  C_12 
REMARK    4  A    between atoms: C_12  and  C_13 
REMARK       I    between atoms: C_13  and  N_15 
REMARK    5  A    between atoms: N_15  and  N_16 
REMARK       I    between atoms: N_16  and  C_17 
REMARK    6  A    between atoms: C_19  and  C_17 
ROOT
ATOM      1  C   UNL d   1      26.503 -14.055  -4.628  0.00  0.00     0.124 C 
ENDROOT
BRANCH   1   2
ATOM      2  C   UNL d   1      26.726 -14.001  -3.101  0.00  0.00     0.132 C 
BRANCH   2   3
ATOM      3  N   UNL d   1      25.803 -14.857  -2.376  0.00  0.00    -0.356 N 
ATOM      4  C   UNL d   1      26.125 -16.065  -1.784  0.00  0.00     0.252 C 
ATOM      5  O   UNL d   1      27.275 -16.514  -1.843  0.00  0.00    -0.268 OA
ATOM      6  H   UNL d   1      24.886 -14.481  -2.319  0.00  0.00     0.162 HD
BRANCH   4   7
ATOM      7  C   UNL d   1      25.051 -16.857  -1.045  0.00  0.00     0.037 A 
ATOM      8  C   UNL d   1      23.706 -16.486  -1.285  0.00  0.00     0.017 A 
ATOM      9  C   UNL d   1      22.633 -17.147  -0.667  0.00  0.00     0.001 A 
ATOM     10  C   UNL d   1      22.876 -18.191   0.214  0.00  0.00     0.001 A 
ATOM     11  C   UNL d   1      24.186 -18.575   0.470  0.00  0.00     0.007 A 
ATOM     12  C   UNL d   1      25.278 -17.928  -0.148  0.00  0.00    -0.046 A 
ATOM     13  C   UNL d   1      26.631 -18.457   0.206  0.00  0.00     0.049 C 
ENDBRANCH   4   7
ENDBRANCH   2   3
ENDBRANCH   1   2
BRANCH   1  14
ATOM     14  C   UNL d   1      27.577 -14.915  -5.282  0.00  0.00     0.237 C 
ATOM     15  O   UNL d   1      27.769 -14.923  -6.498  0.00  0.00    -0.272 OA
ATOM     16  N   UNL d   1      28.338 -15.695  -4.433  0.00  0.00    -0.267 N 
ATOM     17  H   UNL d   1      28.233 -15.740  -3.419  0.00  0.00     0.190 HD
BRANCH  16  18
ATOM     18  N   UNL d   1      29.332 -16.551  -4.995  0.00  0.00    -0.265 N 
ATOM     19  C   UNL d   1      30.077 -17.329  -4.130  0.00  0.00     0.265 C 
ATOM     20  O   UNL d   1      29.820 -17.323  -2.921  0.00  0.00    -0.269 OA
ATOM     21  H   UNL d   1      29.456 -16.513  -6.006  0.00  0.00     0.190 HD
BRANCH  19  22
ATOM     22  C   UNL d   1      31.276 -18.134  -4.728  0.00  0.00     0.215 C 
ATOM     23  C   UNL d   1      30.920 -19.619  -4.640  0.00  0.00     0.044 C 
ATOM     24  C   UNL d   1      30.361 -19.905  -6.013  0.00  0.00     0.029 C 
ATOM     25  C   UNL d   1      31.246 -19.057  -6.890  0.00  0.00     0.168 C 
ATOM     26  O   UNL d   1      31.584 -17.891  -6.112  0.00  0.00    -0.376 OA
ENDBRANCH  19  22
ENDBRANCH  16  18
ENDBRANCH   1  14
TORSDOF 6
ENDMDL
MODEL 9
REMARK VINA RESULT:    -5.739      4.434      8.776
REMARK INTER + INTRA:         -10.566
REMARK INTER:                  -7.529
REMARK INTRA:                  -3.037
REMARK CONF_INDEPENDENT:        1.790
REMARK UNBOUND:                -3.037
REMARK  6 active torsions:
REMARK  status: ('A' for Active; 'I' for Inactive)
REMARK    1  A    between atoms: C_7  and  C_8 
REMARK       I    between atoms: C_8  and  N_10 
REMARK    2  A    between atoms: N_10  and  C_11 
REMARK    3  A    between atoms: C_11  and  C_12 
REMARK    4  A    between atoms: C_12  and  C_13 
REMARK       I    between atoms: C_13  and  N_15 
REMARK    5  A    between atoms: N_15  and  N_16 
REMARK       I    between atoms: N_16  and  C_17 
REMARK    6  A    between atoms: C_19  and  C_17 
ROOT
ATOM      1  C   UNL d   1      26.235 -11.479  -3.670  0.00  0.00     0.124 C 
ENDROOT
BRANCH   1   2
ATOM      2  C   UNL d   1      25.155 -12.567  -3.860  0.00  0.00     0.132 C 
BRANCH   2   3
ATOM      3  N   UNL d   1      25.286 -13.650  -2.901  0.00  0.00    -0.356 N 
ATOM      4  C   UNL d   1      25.469 -14.985  -3.219  0.00  0.00     0.252 C 
ATOM      5  O   UNL d   1      25.530 -15.355  -4.396  0.00  0.00    -0.268 OA
ATOM      6  H   UNL d   1      25.252 -13.342  -1.958  0.00  0.00     0.162 HD
BRANCH   4   7
ATOM      7  C   UNL d   1      25.599 -16.017  -2.104  0.00  0.00     0.037 A 
ATOM      8  C   UNL d   1      24.394 -16.551  -1.584  0.00  0.00     0.017 A 
ATOM      9  C   UNL d   1      24.390 -17.512  -0.561  0.00  0.00     0.001 A 
ATOM     10  C   UNL d   1      25.589 -17.958  -0.023  0.00  0.00     0.001 A 
ATOM     11  C   UNL d   1      26.786 -17.450  -0.512  0.00  0.00     0.007 A 
ATOM     12  C   UNL d   1      26.811 -16.490  -1.546  0.00  0.00    -0.046 A 
ATOM     13  C   UNL d   1      28.169 -16.045  -1.985  0.00  0.00     0.049 C 
ENDBRANCH   4   7
ENDBRANCH   2   3
ENDBRANCH   1   2
BRANCH   1  14
ATOM     14  C   UNL d   1      27.611 -12.048  -3.993  0.00  0.00     0.237 C 
ATOM     15  O   UNL d   1      28.654 -11.495  -3.645  0.00  0.00    -0.272 OA
ATOM     16  N   UNL d   1      27.633 -13.233  -4.703  0.00  0.00    -0.267 N 
ATOM     17  H   UNL d   1      26.810 -13.744  -5.025  0.00  0.00     0.190 HD
BRANCH  16  18
ATOM     18  N   UNL d   1      28.894 -13.791  -5.068  0.00  0.00    -0.265 N 
ATOM     19  C   UNL d   1      28.899 -15.026  -5.687  0.00  0.00     0.265 C 
ATOM     20  O   UNL d   1      27.829 -15.575  -5.971  0.00  0.00    -0.269 OA
ATOM     21  H   UNL d   1      29.725 -13.255  -4.820  0.00  0.00     0.190 HD
BRANCH  19  22
ATOM     22  C   UNL d   1      30.283 -15.710  -5.930  0.00  0.00     0.215 C 
ATOM     23  C   UNL d   1      30.639 -16.485  -4.659  0.00  0.00     0.044 C 
ATOM     24  C   UNL d   1      30.167 -17.883  -4.984  0.00  0.00     0.029 C 
ATOM     25  C   UNL d   1      30.509 -17.993  -6.448  0.00  0.00     0.168 C 
ATOM     26  O   UNL d   1      30.344 -16.670  -6.999  0.00  0.00    -0.376 OA
ENDBRANCH  19  22
ENDBRANCH  16  18
ENDBRANCH   1  14
TORSDOF 6
ENDMDL
