MODEL 1
REMARK VINA RESULT:   -31.720      0.000      0.000
REMARK INTER + INTRA:         -33.156
REMARK INTER:                 -32.615
REMARK INTRA:                  -0.542
REMARK CONF_INDEPENDENT:        0.895
REMARK UNBOUND:                -0.542
REMARK  3 active torsions:
REMARK  status: ('A' for Active; 'I' for Inactive)
REMARK    1  A    between atoms: C_4  and  C_5 
REMARK       I    between atoms: C_5  and  N_7 
REMARK    2  A    between atoms: N_7  and  C_8 
REMARK    3  A    between atoms: C_11  and  C_12 
ROOT
ATOM      1  C   UNL d   1      25.992 -15.795  -2.408  0.00  0.00     0.258 C 
ATOM      2  O   UNL d   1      25.071 -15.475  -3.167  0.00  0.00    -0.267 OA
ATOM      3  N   UNL d   1      25.784 -16.598  -1.284  0.00  0.00    -0.323 N 
ATOM      4  H   UNL d   1      26.510 -16.661  -0.585  0.00  0.00     0.169 HD
ENDROOT
BRANCH   3   5
ATOM      5  C   UNL d   1      24.523 -17.195  -1.002  0.00  0.00     0.035 A 
ATOM      6  C   UNL d   1      23.354 -16.431  -0.895  0.00  0.00     0.030 A 
ATOM      7  C   UNL d   1      22.117 -17.057  -0.622  0.00  0.00     0.016 A 
ATOM      8  C   UNL d   1      22.037 -18.447  -0.465  0.00  0.00    -0.005 A 
ATOM      9  C   UNL d   1      23.214 -19.196  -0.521  0.00  0.00     0.016 A 
ATOM     10  C   UNL d   1      24.438 -18.575  -0.791  0.00  0.00     0.030 A 
BRANCH   8  11
ATOM     11  C   UNL d   1      20.759 -19.126  -0.262  0.00  0.00     0.088 A 
ATOM     12  C   UNL d   1      20.276 -19.697   0.945  0.00  0.00     0.053 A 
ATOM     13  C   UNL d   1      19.061 -20.258   0.631  0.00  0.00     0.111 A 
ATOM     14  N   UNL d   1      18.884 -20.029  -0.700  0.00  0.00    -0.289 N 
ATOM     15  N   UNL d   1      19.882 -19.323  -1.261  0.00  0.00    -0.175 NA
ATOM     16  H   UNL d   1      18.106 -20.317  -1.285  0.00  0.00     0.188 HD
ENDBRANCH   8  11
ENDBRANCH   3   5
BRANCH   1  17
ATOM     17  C   UNL d   1      27.351 -15.286  -2.659  0.00  0.00     0.060 A 
ATOM     18  C   UNL d   1      28.348 -14.974  -1.745  0.00  0.00     0.108 A 
ATOM     19  N   UNL d   1      29.464 -14.557  -2.432  0.00  0.00    -0.359 N 
ATOM     20  C   UNL d   1      30.730 -14.189  -1.832  0.00  0.00     0.156 C 
ATOM     21  C   UNL d   1      29.231 -14.565  -3.790  0.00  0.00     0.045 A 
ATOM     22  C   UNL d   1      30.061 -14.212  -4.872  0.00  0.00     0.030 A 
ATOM     23  C   UNL d   1      27.925 -15.028  -3.967  0.00  0.00     0.008 A 
ATOM     24  C   UNL d   1      29.557 -14.349  -6.167  0.00  0.00     0.002 A 
ATOM     25  C   UNL d   1      28.267 -14.817  -6.379  0.00  0.00     0.001 A 
ATOM     26  C   UNL d   1      27.446 -15.152  -5.294  0.00  0.00     0.015 A 
ENDBRANCH   1  17
TORSDOF 3
ENDMDL
MODEL 2
REMARK VINA RESULT:   -31.344      2.741      3.934
REMARK INTER + INTRA:         -32.778
REMARK INTER:                 -32.238
REMARK INTRA:                  -0.539
REMARK CONF_INDEPENDENT:        0.895
REMARK UNBOUND:                -0.539
REMARK  3 active torsions:
REMARK  status: ('A' for Active; 'I' for Inactive)
REMARK    1  A    between atoms: C_4  and  C_5 
REMARK       I    between atoms: C_5  and  N_7 
REMARK    2  A    between atoms: N_7  and  C_8 
REMARK    3  A    between atoms: C_11  and  C_12 
ROOT
ATOM      1  C   UNL d   1      26.937 -17.050   0.157  0.00  0.00     0.258 C 
ATOM      2  O   UNL d   1      26.908 -18.048   0.886  0.00  0.00    -0.267 OA
ATOM      3  N   UNL d   1      25.849 -16.677  -0.637  0.00  0.00    -0.323 N 
ATOM      4  H   UNL d   1      25.986 -15.990  -1.364  0.00  0.00     0.169 HD
ENDROOT
BRANCH   3   5
ATOM      5  C   UNL d   1      24.598 -17.353  -0.573  0.00  0.00     0.035 A 
ATOM      6  C   UNL d   1      24.517 -18.750  -0.521  0.00  0.00     0.030 A 
ATOM      7  C   UNL d   1      23.258 -19.388  -0.451  0.00  0.00     0.016 A 
ATOM      8  C   UNL d   1      22.076 -18.637  -0.421  0.00  0.00    -0.005 A 
ATOM      9  C   UNL d   1      22.162 -17.248  -0.526  0.00  0.00     0.016 A 
ATOM     10  C   UNL d   1      23.409 -16.618  -0.596  0.00  0.00     0.030 A 
BRANCH   8  11
ATOM     11  C   UNL d   1      20.767 -19.270  -0.268  0.00  0.00     0.088 A 
ATOM     12  C   UNL d   1      20.267 -19.932   0.884  0.00  0.00     0.053 A 
ATOM     13  C   UNL d   1      19.023 -20.400   0.533  0.00  0.00     0.111 A 
ATOM     14  N   UNL d   1      18.846 -20.032  -0.767  0.00  0.00    -0.289 N 
ATOM     15  N   UNL d   1      19.873 -19.325  -1.270  0.00  0.00    -0.175 NA
ATOM     16  H   UNL d   1      18.049 -20.223  -1.366  0.00  0.00     0.188 HD
ENDBRANCH   8  11
ENDBRANCH   3   5
BRANCH   1  17
ATOM     17  C   UNL d   1      28.166 -16.242   0.079  0.00  0.00     0.060 A 
ATOM     18  C   UNL d   1      29.225 -16.349  -0.812  0.00  0.00     0.108 A 
ATOM     19  N   UNL d   1      30.145 -15.367  -0.525  0.00  0.00    -0.359 N 
ATOM     20  C   UNL d   1      31.366 -15.121  -1.265  0.00  0.00     0.156 C 
ATOM     21  C   UNL d   1      29.735 -14.615   0.552  0.00  0.00     0.045 A 
ATOM     22  C   UNL d   1      30.344 -13.525   1.204  0.00  0.00     0.030 A 
ATOM     23  C   UNL d   1      28.496 -15.126   0.946  0.00  0.00     0.008 A 
ATOM     24  C   UNL d   1      29.671 -12.930   2.274  0.00  0.00     0.002 A 
ATOM     25  C   UNL d   1      28.433 -13.406   2.684  0.00  0.00     0.001 A 
ATOM     26  C   UNL d   1      27.842 -14.499   2.036  0.00  0.00     0.015 A 
ENDBRANCH   1  17
TORSDOF 3
ENDMDL
MODEL 3
REMARK VINA RESULT:   -31.206      2.483      3.514
REMARK INTER + INTRA:         -32.577
REMARK INTER:                 -32.101
REMARK INTRA:                  -0.476
REMARK CONF_INDEPENDENT:        0.895
REMARK UNBOUND:                -0.476
REMARK  3 active torsions:
REMARK  status: ('A' for Active; 'I' for Inactive)
REMARK    1  A    between atoms: C_4  and  C_5 
REMARK       I    between atoms: C_5  and  N_7 
REMARK    2  A    between atoms: N_7  and  C_8 
REMARK    3  A    between atoms: C_11  and  C_12 
ROOT
ATOM      1  C   UNL d   1      26.938 -17.224  -0.231  0.00  0.00     0.258 C 
ATOM      2  O   UNL d   1      26.909 -18.219   0.501  0.00  0.00    -0.267 OA
ATOM      3  N   UNL d   1      25.806 -16.769  -0.913  0.00  0.00    -0.323 N 
ATOM      4  H   UNL d   1      25.919 -16.091  -1.653  0.00  0.00     0.169 HD
ENDROOT
BRANCH   3   5
ATOM      5  C   UNL d   1      24.521 -17.351  -0.720  0.00  0.00     0.035 A 
ATOM      6  C   UNL d   1      23.355 -16.577  -0.721  0.00  0.00     0.030 A 
ATOM      7  C   UNL d   1      22.094 -17.188  -0.533  0.00  0.00     0.016 A 
ATOM      8  C   UNL d   1      21.990 -18.574  -0.356  0.00  0.00    -0.005 A 
ATOM      9  C   UNL d   1      23.161 -19.332  -0.304  0.00  0.00     0.016 A 
ATOM     10  C   UNL d   1      24.408 -18.725  -0.489  0.00  0.00     0.030 A 
BRANCH   8  11
ATOM     11  C   UNL d   1      20.694 -19.239  -0.241  0.00  0.00     0.088 A 
ATOM     12  C   UNL d   1      20.175 -19.910   0.898  0.00  0.00     0.053 A 
ATOM     13  C   UNL d   1      18.955 -20.411   0.510  0.00  0.00     0.111 A 
ATOM     14  N   UNL d   1      18.810 -20.053  -0.796  0.00  0.00    -0.289 N 
ATOM     15  N   UNL d   1      19.834 -19.322  -1.270  0.00  0.00    -0.175 NA
ATOM     16  H   UNL d   1      18.037 -20.268  -1.419  0.00  0.00     0.188 HD
ENDBRANCH   8  11
ENDBRANCH   3   5
BRANCH   1  17
ATOM     17  C   UNL d   1      28.209 -16.508  -0.436  0.00  0.00     0.060 A 
ATOM     18  C   UNL d   1      29.153 -16.678  -1.440  0.00  0.00     0.108 A 
ATOM     19  N   UNL d   1      30.171 -15.773  -1.247  0.00  0.00    -0.359 N 
ATOM     20  C   UNL d   1      31.319 -15.606  -2.114  0.00  0.00     0.156 C 
ATOM     21  C   UNL d   1      29.939 -15.012  -0.124  0.00  0.00     0.045 A 
ATOM     22  C   UNL d   1      30.697 -13.983   0.468  0.00  0.00     0.030 A 
ATOM     23  C   UNL d   1      28.715 -15.435   0.399  0.00  0.00     0.008 A 
ATOM     24  C   UNL d   1      30.192 -13.357   1.610  0.00  0.00     0.002 A 
ATOM     25  C   UNL d   1      28.973 -13.748   2.150  0.00  0.00     0.001 A 
ATOM     26  C   UNL d   1      28.234 -14.781   1.560  0.00  0.00     0.015 A 
ENDBRANCH   1  17
TORSDOF 3
ENDMDL
MODEL 4
REMARK VINA RESULT:   -31.176      1.470      2.535
REMARK INTER + INTRA:         -32.677
REMARK INTER:                 -32.071
REMARK INTRA:                  -0.606
REMARK CONF_INDEPENDENT:        0.895
REMARK UNBOUND:                -0.606
REMARK  3 active torsions:
REMARK  status: ('A' for Active; 'I' for Inactive)
REMARK    1  A    between atoms: C_4  and  C_5 
REMARK       I    between atoms: C_5  and  N_7 
REMARK    2  A    between atoms: N_7  and  C_8 
REMARK    3  A    between atoms: C_11  and  C_12 
ROOT
ATOM      1  C   UNL d   1      25.948 -15.838  -2.133  0.00  0.00     0.258 C 
ATOM      2  O   UNL d   1      25.163 -15.742  -3.082  0.00  0.00    -0.267 OA
ATOM      3  N   UNL d   1      25.614 -16.514  -0.956  0.00  0.00    -0.323 N 
ATOM      4  H   UNL d   1      26.194 -16.391  -0.139  0.00  0.00     0.169 HD
ENDROOT
BRANCH   3   5
ATOM      5  C   UNL d   1      24.395 -17.236  -0.818  0.00  0.00     0.035 A 
ATOM      6  C   UNL d   1      24.378 -18.601  -0.507  0.00  0.00     0.030 A 
ATOM      7  C   UNL d   1      23.149 -19.285  -0.369  0.00  0.00     0.016 A 
ATOM      8  C   UNL d   1      21.932 -18.609  -0.530  0.00  0.00    -0.005 A 
ATOM      9  C   UNL d   1      21.958 -17.261  -0.891  0.00  0.00     0.016 A 
ATOM     10  C   UNL d   1      23.175 -16.586  -1.027  0.00  0.00     0.030 A 
BRANCH   8  11
ATOM     11  C   UNL d   1      20.649 -19.275  -0.314  0.00  0.00     0.088 A 
ATOM     12  C   UNL d   1      20.235 -19.978   0.848  0.00  0.00     0.053 A 
ATOM     13  C   UNL d   1      18.982 -20.464   0.561  0.00  0.00     0.111 A 
ATOM     14  N   UNL d   1      18.717 -20.068  -0.715  0.00  0.00    -0.289 N 
ATOM     15  N   UNL d   1      19.697 -19.325  -1.261  0.00  0.00    -0.175 NA
ATOM     16  H   UNL d   1      17.889 -20.261  -1.270  0.00  0.00     0.188 HD
ENDBRANCH   8  11
ENDBRANCH   3   5
BRANCH   1  17
ATOM     17  C   UNL d   1      27.266 -15.185  -2.212  0.00  0.00     0.060 A 
ATOM     18  C   UNL d   1      27.599 -13.955  -2.761  0.00  0.00     0.108 A 
ATOM     19  N   UNL d   1      28.947 -13.741  -2.587  0.00  0.00    -0.359 N 
ATOM     20  C   UNL d   1      29.665 -12.548  -2.983  0.00  0.00     0.156 C 
ATOM     21  C   UNL d   1      29.529 -14.813  -1.947  0.00  0.00     0.045 A 
ATOM     22  C   UNL d   1      30.866 -15.048  -1.571  0.00  0.00     0.030 A 
ATOM     23  C   UNL d   1      28.506 -15.727  -1.687  0.00  0.00     0.008 A 
ATOM     24  C   UNL d   1      31.168 -16.234  -0.898  0.00  0.00     0.002 A 
ATOM     25  C   UNL d   1      30.172 -17.160  -0.613  0.00  0.00     0.001 A 
ATOM     26  C   UNL d   1      28.848 -16.920  -1.004  0.00  0.00     0.015 A 
ENDBRANCH   1  17
TORSDOF 3
ENDMDL
MODEL 5
REMARK VINA RESULT:   -31.131      1.561      1.899
REMARK INTER + INTRA:         -32.543
REMARK INTER:                 -32.026
REMARK INTRA:                  -0.517
REMARK CONF_INDEPENDENT:        0.895
REMARK UNBOUND:                -0.517
REMARK  3 active torsions:
REMARK  status: ('A' for Active; 'I' for Inactive)
REMARK    1  A    between atoms: C_4  and  C_5 
REMARK       I    between atoms: C_5  and  N_7 
REMARK    2  A    between atoms: N_7  and  C_8 
REMARK    3  A    between atoms: C_11  and  C_12 
ROOT
ATOM      1  C   UNL d   1      26.977 -17.179  -0.333  0.00  0.00     0.258 C 
ATOM      2  O   UNL d   1      26.935 -18.065   0.528  0.00  0.00    -0.267 OA
ATOM      3  N   UNL d   1      25.857 -16.824  -1.089  0.00  0.00    -0.323 N 
ATOM      4  H   UNL d   1      25.983 -16.253  -1.913  0.00  0.00     0.169 HD
ENDROOT
BRANCH   3   5
ATOM      5  C   UNL d   1      24.569 -17.375  -0.841  0.00  0.00     0.035 A 
ATOM      6  C   UNL d   1      23.412 -16.587  -0.867  0.00  0.00     0.030 A 
ATOM      7  C   UNL d   1      22.148 -17.169  -0.622  0.00  0.00     0.016 A 
ATOM      8  C   UNL d   1      22.029 -18.540  -0.361  0.00  0.00    -0.005 A 
ATOM      9  C   UNL d   1      23.192 -19.310  -0.284  0.00  0.00     0.016 A 
ATOM     10  C   UNL d   1      24.442 -18.732  -0.527  0.00  0.00     0.030 A 
BRANCH   8  11
ATOM     11  C   UNL d   1      20.727 -19.180  -0.184  0.00  0.00     0.088 A 
ATOM     12  C   UNL d   1      20.214 -19.762   1.005  0.00  0.00     0.053 A 
ATOM     13  C   UNL d   1      18.984 -20.274   0.667  0.00  0.00     0.111 A 
ATOM     14  N   UNL d   1      18.827 -20.009  -0.660  0.00  0.00    -0.289 N 
ATOM     15  N   UNL d   1      19.854 -19.325  -1.196  0.00  0.00    -0.175 NA
ATOM     16  H   UNL d   1      18.045 -20.257  -1.258  0.00  0.00     0.188 HD
ENDBRANCH   8  11
ENDBRANCH   3   5
BRANCH   1  17
ATOM     17  C   UNL d   1      28.252 -16.497  -0.612  0.00  0.00     0.060 A 
ATOM     18  C   UNL d   1      29.339 -16.302   0.228  0.00  0.00     0.108 A 
ATOM     19  N   UNL d   1      30.322 -15.634  -0.466  0.00  0.00    -0.359 N 
ATOM     20  C   UNL d   1      31.629 -15.289   0.054  0.00  0.00     0.156 C 
ATOM     21  C   UNL d   1      29.909 -15.361  -1.751  0.00  0.00     0.045 A 
ATOM     22  C   UNL d   1      30.559 -14.696  -2.808  0.00  0.00     0.030 A 
ATOM     23  C   UNL d   1      28.626 -15.897  -1.880  0.00  0.00     0.008 A 
ATOM     24  C   UNL d   1      29.896 -14.587  -4.033  0.00  0.00     0.002 A 
ATOM     25  C   UNL d   1      28.623 -15.119  -4.198  0.00  0.00     0.001 A 
ATOM     26  C   UNL d   1      27.982 -15.767  -3.135  0.00  0.00     0.015 A 
ENDBRANCH   1  17
TORSDOF 3
ENDMDL
MODEL 6
REMARK VINA RESULT:   -31.085      2.104      2.626
REMARK INTER + INTRA:         -32.538
REMARK INTER:                 -31.980
REMARK INTRA:                  -0.559
REMARK CONF_INDEPENDENT:        0.895
REMARK UNBOUND:                -0.559
REMARK  3 active torsions:
REMARK  status: ('A' for Active; 'I' for Inactive)
REMARK    1  A    between atoms: C_4  and  C_5 
REMARK       I    between atoms: C_5  and  N_7 
REMARK    2  A    between atoms: N_7  and  C_8 
REMARK    3  A    between atoms: C_11  and  C_12 
ROOT
ATOM      1  C   UNL d   1      26.913 -16.872   0.140  0.00  0.00     0.258 C 
ATOM      2  O   UNL d   1      26.889 -17.830   0.919  0.00  0.00    -0.267 OA
ATOM      3  N   UNL d   1      25.833 -16.561  -0.691  0.00  0.00    -0.323 N 
ATOM      4  H   UNL d   1      25.970 -15.910  -1.451  0.00  0.00     0.169 HD
ENDROOT
BRANCH   3   5
ATOM      5  C   UNL d   1      24.593 -17.255  -0.612  0.00  0.00     0.035 A 
ATOM      6  C   UNL d   1      24.534 -18.651  -0.523  0.00  0.00     0.030 A 
ATOM      7  C   UNL d   1      23.285 -19.308  -0.439  0.00  0.00     0.016 A 
ATOM      8  C   UNL d   1      22.091 -18.576  -0.433  0.00  0.00    -0.005 A 
ATOM      9  C   UNL d   1      22.155 -17.188  -0.575  0.00  0.00     0.016 A 
ATOM     10  C   UNL d   1      23.392 -16.540  -0.658  0.00  0.00     0.030 A 
BRANCH   8  11
ATOM     11  C   UNL d   1      20.792 -19.225  -0.266  0.00  0.00     0.088 A 
ATOM     12  C   UNL d   1      20.298 -19.863   0.903  0.00  0.00     0.053 A 
ATOM     13  C   UNL d   1      19.064 -20.360   0.560  0.00  0.00     0.111 A 
ATOM     14  N   UNL d   1      18.886 -20.033  -0.750  0.00  0.00    -0.289 N 
ATOM     15  N   UNL d   1      19.904 -19.324  -1.269  0.00  0.00    -0.175 NA
ATOM     16  H   UNL d   1      18.095 -20.255  -1.347  0.00  0.00     0.188 HD
ENDBRANCH   8  11
ENDBRANCH   3   5
BRANCH   1  17
ATOM     17  C   UNL d   1      28.129 -16.047   0.040  0.00  0.00     0.060 A 
ATOM     18  C   UNL d   1      28.682 -15.191   0.983  0.00  0.00     0.108 A 
ATOM     19  N   UNL d   1      29.835 -14.648   0.465  0.00  0.00    -0.359 N 
ATOM     20  C   UNL d   1      30.724 -13.743   1.165  0.00  0.00     0.156 C 
ATOM     21  C   UNL d   1      30.058 -15.108  -0.813  0.00  0.00     0.045 A 
ATOM     22  C   UNL d   1      31.090 -14.826  -1.730  0.00  0.00     0.030 A 
ATOM     23  C   UNL d   1      29.019 -15.994  -1.105  0.00  0.00     0.008 A 
ATOM     24  C   UNL d   1      31.074 -15.472  -2.968  0.00  0.00     0.002 A 
ATOM     25  C   UNL d   1      30.060 -16.367  -3.286  0.00  0.00     0.001 A 
ATOM     26  C   UNL d   1      29.033 -16.630  -2.371  0.00  0.00     0.015 A 
ENDBRANCH   1  17
TORSDOF 3
ENDMDL
MODEL 7
REMARK VINA RESULT:   -31.068      1.147      2.939
REMARK INTER + INTRA:         -32.545
REMARK INTER:                 -31.963
REMARK INTRA:                  -0.582
REMARK CONF_INDEPENDENT:        0.895
REMARK UNBOUND:                -0.582
REMARK  3 active torsions:
REMARK  status: ('A' for Active; 'I' for Inactive)
REMARK    1  A    between atoms: C_4  and  C_5 
REMARK       I    between atoms: C_5  and  N_7 
REMARK    2  A    between atoms: N_7  and  C_8 
REMARK    3  A    between atoms: C_11  and  C_12 
ROOT
ATOM      1  C   UNL d   1      26.035 -15.900  -2.056  0.00  0.00     0.258 C 
ATOM      2  O   UNL d   1      25.286 -15.842  -3.037  0.00  0.00    -0.267 OA
ATOM      3  N   UNL d   1      25.660 -16.538  -0.870  0.00  0.00    -0.323 N 
ATOM      4  H   UNL d   1      26.207 -16.382  -0.036  0.00  0.00     0.169 HD
ENDROOT
BRANCH   3   5
ATOM      5  C   UNL d   1      24.440 -17.261  -0.753  0.00  0.00     0.035 A 
ATOM      6  C   UNL d   1      24.421 -18.637  -0.495  0.00  0.00     0.030 A 
ATOM      7  C   UNL d   1      23.191 -19.323  -0.377  0.00  0.00     0.016 A 
ATOM      8  C   UNL d   1      21.975 -18.639  -0.505  0.00  0.00    -0.005 A 
ATOM      9  C   UNL d   1      22.002 -17.277  -0.814  0.00  0.00     0.016 A 
ATOM     10  C   UNL d   1      23.220 -16.601  -0.930  0.00  0.00     0.030 A 
BRANCH   8  11
ATOM     11  C   UNL d   1      20.691 -19.309  -0.308  0.00  0.00     0.088 A 
ATOM     12  C   UNL d   1      20.280 -20.052   0.830  0.00  0.00     0.053 A 
ATOM     13  C   UNL d   1      19.025 -20.525   0.531  0.00  0.00     0.111 A 
ATOM     14  N   UNL d   1      18.756 -20.083  -0.729  0.00  0.00    -0.289 N 
ATOM     15  N   UNL d   1      19.735 -19.323  -1.252  0.00  0.00    -0.175 NA
ATOM     16  H   UNL d   1      17.926 -20.255  -1.287  0.00  0.00     0.188 HD
ENDBRANCH   8  11
ENDBRANCH   3   5
BRANCH   1  17
ATOM     17  C   UNL d   1      27.353 -15.243  -2.108  0.00  0.00     0.060 A 
ATOM     18  C   UNL d   1      28.119 -14.913  -3.217  0.00  0.00     0.108 A 
ATOM     19  N   UNL d   1      29.268 -14.288  -2.790  0.00  0.00    -0.359 N 
ATOM     20  C   UNL d   1      30.300 -13.750  -3.653  0.00  0.00     0.156 C 
ATOM     21  C   UNL d   1      29.297 -14.209  -1.415  0.00  0.00     0.045 A 
ATOM     22  C   UNL d   1      30.262 -13.672  -0.541  0.00  0.00     0.030 A 
ATOM     23  C   UNL d   1      28.110 -14.784  -0.958  0.00  0.00     0.008 A 
ATOM     24  C   UNL d   1      30.008 -13.707   0.832  0.00  0.00     0.002 A 
ATOM     25  C   UNL d   1      28.831 -14.262   1.320  0.00  0.00     0.001 A 
ATOM     26  C   UNL d   1      27.885 -14.804   0.441  0.00  0.00     0.015 A 
ENDBRANCH   1  17
TORSDOF 3
ENDMDL
MODEL 8
REMARK VINA RESULT:   -30.928      1.446      1.883
REMARK INTER + INTRA:         -32.377
REMARK INTER:                 -31.822
REMARK INTRA:                  -0.555
REMARK CONF_INDEPENDENT:        0.895
REMARK UNBOUND:                -0.555
REMARK  3 active torsions:
REMARK  status: ('A' for Active; 'I' for Inactive)
REMARK    1  A    between atoms: C_4  and  C_5 
REMARK       I    between atoms: C_5  and  N_7 
REMARK    2  A    between atoms: N_7  and  C_8 
REMARK    3  A    between atoms: C_11  and  C_12 
ROOT
ATOM      1  C   UNL d   1      25.964 -15.849  -2.277  0.00  0.00     0.258 C 
ATOM      2  O   UNL d   1      25.088 -15.613  -3.116  0.00  0.00    -0.267 OA
ATOM      3  N   UNL d   1      25.704 -16.585  -1.118  0.00  0.00    -0.323 N 
ATOM      4  H   UNL d   1      26.382 -16.575  -0.369  0.00  0.00     0.169 HD
ENDROOT
BRANCH   3   5
ATOM      5  C   UNL d   1      24.447 -17.209  -0.883  0.00  0.00     0.035 A 
ATOM      6  C   UNL d   1      23.244 -16.498  -0.970  0.00  0.00     0.030 A 
ATOM      7  C   UNL d   1      22.012 -17.151  -0.737  0.00  0.00     0.016 A 
ATOM      8  C   UNL d   1      21.973 -18.517  -0.427  0.00  0.00    -0.005 A 
ATOM      9  C   UNL d   1      23.179 -19.206  -0.290  0.00  0.00     0.016 A 
ATOM     10  C   UNL d   1      24.397 -18.559  -0.521  0.00  0.00     0.030 A 
BRANCH   8  11
ATOM     11  C   UNL d   1      20.709 -19.232  -0.261  0.00  0.00     0.088 A 
ATOM     12  C   UNL d   1      20.275 -19.947   0.886  0.00  0.00     0.053 A 
ATOM     13  C   UNL d   1      19.056 -20.483   0.550  0.00  0.00     0.111 A 
ATOM     14  N   UNL d   1      18.829 -20.102  -0.738  0.00  0.00    -0.289 N 
ATOM     15  N   UNL d   1      19.800 -19.323  -1.246  0.00  0.00    -0.175 NA
ATOM     16  H   UNL d   1      18.033 -20.331  -1.325  0.00  0.00     0.188 HD
ENDBRANCH   8  11
ENDBRANCH   3   5
BRANCH   1  17
ATOM     17  C   UNL d   1      27.319 -15.306  -2.470  0.00  0.00     0.060 A 
ATOM     18  C   UNL d   1      28.504 -15.987  -2.716  0.00  0.00     0.108 A 
ATOM     19  N   UNL d   1      29.521 -15.070  -2.852  0.00  0.00    -0.359 N 
ATOM     20  C   UNL d   1      30.899 -15.387  -3.164  0.00  0.00     0.156 C 
ATOM     21  C   UNL d   1      29.046 -13.789  -2.683  0.00  0.00     0.045 A 
ATOM     22  C   UNL d   1      29.708 -12.546  -2.721  0.00  0.00     0.030 A 
ATOM     23  C   UNL d   1      27.672 -13.899  -2.456  0.00  0.00     0.008 A 
ATOM     24  C   UNL d   1      28.953 -11.385  -2.539  0.00  0.00     0.002 A 
ATOM     25  C   UNL d   1      27.583 -11.459  -2.321  0.00  0.00     0.001 A 
ATOM     26  C   UNL d   1      26.938 -12.701  -2.274  0.00  0.00     0.015 A 
ENDBRANCH   1  17
TORSDOF 3
ENDMDL
MODEL 9
REMARK VINA RESULT:   -30.335      1.865      2.116
REMARK INTER + INTRA:         -31.770
REMARK INTER:                 -31.229
REMARK INTRA:                  -0.540
REMARK CONF_INDEPENDENT:        0.895
REMARK UNBOUND:                -0.540
REMARK  3 active torsions:
REMARK  status: ('A' for Active; 'I' for Inactive)
REMARK    1  A    between atoms: C_4  and  C_5 
REMARK       I    between atoms: C_5  and  N_7 
REMARK    2  A    between atoms: N_7  and  C_8 
REMARK    3  A    between atoms: C_11  and  C_12 
ROOT
ATOM      1  C   UNL d   1      25.352 -14.926  -2.787  0.00  0.00     0.258 C 
ATOM      2  O   UNL d   1      24.282 -14.497  -3.232  0.00  0.00    -0.267 OA
ATOM      3  N   UNL d   1      25.410 -16.009  -1.906  0.00  0.00    -0.323 N 
ATOM      4  H   UNL d   1      26.270 -16.191  -1.410  0.00  0.00     0.169 HD
ENDROOT
BRANCH   3   5
ATOM      5  C   UNL d   1      24.255 -16.762  -1.554  0.00  0.00     0.035 A 
ATOM      6  C   UNL d   1      24.132 -18.118  -1.880  0.00  0.00     0.030 A 
ATOM      7  C   UNL d   1      22.974 -18.838  -1.509  0.00  0.00     0.016 A 
ATOM      8  C   UNL d   1      21.938 -18.212  -0.802  0.00  0.00    -0.005 A 
ATOM      9  C   UNL d   1      22.045 -16.848  -0.527  0.00  0.00     0.016 A 
ATOM     10  C   UNL d   1      23.192 -16.137  -0.895  0.00  0.00     0.030 A 
BRANCH   8  11
ATOM     11  C   UNL d   1      20.767 -18.953  -0.336  0.00  0.00     0.088 A 
ATOM     12  C   UNL d   1      20.725 -19.921   0.702  0.00  0.00     0.053 A 
ATOM     13  C   UNL d   1      19.426 -20.370   0.738  0.00  0.00     0.111 A 
ATOM     14  N   UNL d   1      18.777 -19.696  -0.253  0.00  0.00    -0.289 N 
ATOM     15  N   UNL d   1      19.557 -18.814  -0.902  0.00  0.00    -0.175 NA
ATOM     16  H   UNL d   1      17.806 -19.784  -0.534  0.00  0.00     0.188 HD
ENDBRANCH   8  11
ENDBRANCH   3   5
BRANCH   1  17
ATOM     17  C   UNL d   1      26.612 -14.257  -3.154  0.00  0.00     0.060 A 
ATOM     18  C   UNL d   1      27.916 -14.642  -2.877  0.00  0.00     0.108 A 
ATOM     19  N   UNL d   1      28.777 -13.726  -3.438  0.00  0.00    -0.359 N 
ATOM     20  C   UNL d   1      30.222 -13.807  -3.408  0.00  0.00     0.156 C 
ATOM     21  C   UNL d   1      28.075 -12.723  -4.069  0.00  0.00     0.045 A 
ATOM     22  C   UNL d   1      28.520 -11.580  -4.761  0.00  0.00     0.030 A 
ATOM     23  C   UNL d   1      26.721 -13.030  -3.922  0.00  0.00     0.008 A 
ATOM     24  C   UNL d   1      27.565 -10.736  -5.333  0.00  0.00     0.002 A 
ATOM     25  C   UNL d   1      26.210 -11.019  -5.215  0.00  0.00     0.001 A 
ATOM     26  C   UNL d   1      25.780 -12.152  -4.513  0.00  0.00     0.015 A 
ENDBRANCH   1  17
TORSDOF 3
ENDMDL
