MODEL 1
REMARK VINA RESULT:    -7.716      0.000      0.000
REMARK INTER + INTRA:         -12.350
REMARK INTER:                  -9.506
REMARK INTRA:                  -2.845
REMARK CONF_INDEPENDENT:        1.790
REMARK UNBOUND:                -2.845
REMARK  6 active torsions:
REMARK  status: ('A' for Active; 'I' for Inactive)
REMARK    1  A    between atoms: C_9  and  O_10 
REMARK    2  A    between atoms: C_12  and  O_13 
REMARK    3  A    between atoms: C_16  and  C_17 
REMARK    4  A    between atoms: N_18  and  N_19 
REMARK       I    between atoms: N_19  and  C_20 
REMARK       I    between atoms: C_20  and  N_21 
REMARK    5  A    between atoms: C_23  and  O_24 
REMARK    6  A    between atoms: C_27  and  C_28 
ROOT
ATOM      1  C   UNL d   1      25.873 -14.917   0.179  0.00  0.00     0.019 C 
ATOM      2  C   UNL d   1      26.137 -15.906  -1.070  0.00  0.00    -0.005 C 
ATOM      3  C   UNL d   1      25.367 -15.300  -2.249  0.00  0.00     0.013 C 
ATOM      4  C   UNL d   1      25.747 -13.874  -2.484  0.00  0.00     0.007 C 
ATOM      5  C   UNL d   1      27.230 -13.871  -2.748  0.00  0.00     0.009 C 
ATOM      6  C   UNL d   1      28.173 -14.503  -1.492  0.00  0.00     0.026 C 
ATOM      7  C   UNL d   1      29.641 -14.299  -1.980  0.00  0.00     0.011 C 
ATOM      8  C   UNL d   1      30.008 -15.016  -3.217  0.00  0.00     0.039 C 
ATOM      9  C   UNL d   1      28.949 -14.798  -4.229  0.00  0.00     0.073 C 
ATOM     10  C   UNL d   1      29.632 -13.957  -5.226  0.00  0.00     0.070 C 
ATOM     11  C   UNL d   1      30.181 -14.903  -6.240  0.00  0.00     0.121 C 
ATOM     12  C   UNL d   1      28.931 -14.584  -7.036  0.00  0.00     0.033 C 
ATOM     13  C   UNL d   1      27.404 -14.825  -5.883  0.00  0.00     0.021 C 
ATOM     14  C   UNL d   1      27.616 -14.067  -4.297  0.00  0.00     0.031 C 
ATOM     15  C   UNL d   1      27.658 -15.975  -0.980  0.00  0.00     0.070 C 
ATOM     16  C   UNL d   1      27.438 -16.962   0.492  0.00  0.00     0.040 C 
ATOM     17  C   UNL d   1      26.896 -18.196  -0.193  0.00  0.00     0.013 C 
ATOM     18  C   UNL d   1      25.797 -17.476  -1.036  0.00  0.00     0.028 C 
ENDROOT
BRANCH  14  19
ATOM     19  C   UNL d   1      27.196 -12.664  -4.908  0.00  0.00     0.124 C 
ATOM     20  N   UNL d   1      26.019 -12.418  -5.395  0.00  0.00    -0.186 NA
BRANCH  20  21
ATOM     21  N   UNL d   1      25.776 -11.090  -5.590  0.00  0.00    -0.230 N 
ATOM     22  C   UNL d   1      26.215 -10.490  -6.725  0.00  0.00     0.334 C 
ATOM     23  N   UNL d   1      27.037 -11.226  -7.485  0.00  0.00    -0.351 N 
ATOM     24  O   UNL d   1      25.886  -9.308  -7.028  0.00  0.00    -0.246 OA
ATOM     25  H   UNL d   1      27.239 -12.170  -7.169  0.00  0.00     0.160 HD
ATOM     26  H   UNL d   1      27.443 -10.850  -8.325  0.00  0.00     0.160 HD
ATOM     27  H   UNL d   1      25.118 -10.582  -5.008  0.00  0.00     0.194 HD
ENDBRANCH  20  21
ENDBRANCH  14  19
BRANCH   9  28
ATOM     28  O   UNL d   1      28.642 -16.235  -4.430  0.00  0.00    -0.389 OA
ATOM     29  H   UNL d   1      29.438 -16.809  -4.297  0.00  0.00     0.210 HD
ENDBRANCH   9  28
BRANCH  11  30
ATOM     30  O   UNL d   1      30.127 -16.326  -6.312  0.00  0.00    -0.395 OA
ATOM     31  H   UNL d   1      29.177 -16.572  -6.199  0.00  0.00     0.210 HD
ENDBRANCH  11  30
BRANCH  15  32
ATOM     32  O   UNL d   1      28.215 -16.860  -1.945  0.00  0.00    -0.389 OA
ATOM     33  H   UNL d   1      27.823 -16.671  -2.820  0.00  0.00     0.210 HD
ENDBRANCH  15  32
BRANCH  18  34
ATOM     34  C   UNL d   1      24.394 -17.620  -0.554  0.00  0.00    -0.045 A 
ATOM     35  C   UNL d   1      23.280 -17.239  -1.179  0.00  0.00     0.087 A 
ATOM     36  C   UNL d   1      22.190 -17.878  -0.500  0.00  0.00     0.283 A 
ATOM     37  O   UNL d   1      20.999 -17.810  -0.900  0.00  0.00    -0.260 OA
ATOM     38  O   UNL d   1      22.636 -18.571   0.561  0.00  0.00    -0.314 OA
ATOM     39  C   UNL d   1      24.063 -18.467   0.605  0.00  0.00     0.213 A 
ENDBRANCH  18  34
TORSDOF 6
ENDMDL
MODEL 2
REMARK VINA RESULT:    -7.619      0.898      1.112
REMARK INTER + INTRA:         -12.448
REMARK INTER:                  -9.409
REMARK INTRA:                  -3.039
REMARK CONF_INDEPENDENT:        1.790
REMARK UNBOUND:                -3.039
REMARK  6 active torsions:
REMARK  status: ('A' for Active; 'I' for Inactive)
REMARK    1  A    between atoms: C_9  and  O_10 
REMARK    2  A    between atoms: C_12  and  O_13 
REMARK    3  A    between atoms: C_16  and  C_17 
REMARK    4  A    between atoms: N_18  and  N_19 
REMARK       I    between atoms: N_19  and  C_20 
REMARK       I    between atoms: C_20  and  N_21 
REMARK    5  A    between atoms: C_23  and  O_24 
REMARK    6  A    between atoms: C_27  and  C_28 
ROOT
ATOM      1  C   UNL d   1      25.905 -14.825   0.142  0.00  0.00     0.019 C 
ATOM      2  C   UNL d   1      26.144 -15.790  -1.130  0.00  0.00    -0.005 C 
ATOM      3  C   UNL d   1      25.360 -15.156  -2.285  0.00  0.00     0.013 C 
ATOM      4  C   UNL d   1      25.745 -13.727  -2.497  0.00  0.00     0.007 C 
ATOM      5  C   UNL d   1      27.223 -13.728  -2.784  0.00  0.00     0.009 C 
ATOM      6  C   UNL d   1      28.181 -14.390  -1.555  0.00  0.00     0.026 C 
ATOM      7  C   UNL d   1      29.643 -14.185  -2.062  0.00  0.00     0.011 C 
ATOM      8  C   UNL d   1      29.987 -14.878  -3.319  0.00  0.00     0.039 C 
ATOM      9  C   UNL d   1      28.913 -14.634  -4.309  0.00  0.00     0.073 C 
ATOM     10  C   UNL d   1      29.586 -13.777  -5.300  0.00  0.00     0.070 C 
ATOM     11  C   UNL d   1      30.114 -14.705  -6.341  0.00  0.00     0.121 C 
ATOM     12  C   UNL d   1      28.854 -14.363  -7.111  0.00  0.00     0.033 C 
ATOM     13  C   UNL d   1      27.344 -14.619  -5.939  0.00  0.00     0.021 C 
ATOM     14  C   UNL d   1      27.584 -13.894  -4.343  0.00  0.00     0.031 C 
ATOM     15  C   UNL d   1      27.666 -15.869  -1.065  0.00  0.00     0.070 C 
ATOM     16  C   UNL d   1      27.462 -16.884   0.390  0.00  0.00     0.040 C 
ATOM     17  C   UNL d   1      26.903 -18.102  -0.311  0.00  0.00     0.013 C 
ATOM     18  C   UNL d   1      25.795 -17.358  -1.122  0.00  0.00     0.028 C 
ENDROOT
BRANCH  14  19
ATOM     19  C   UNL d   1      27.162 -12.477  -4.918  0.00  0.00     0.124 C 
ATOM     20  N   UNL d   1      26.910 -11.447  -4.171  0.00  0.00    -0.186 NA
BRANCH  20  21
ATOM     21  N   UNL d   1      26.859 -10.272  -4.863  0.00  0.00    -0.230 N 
ATOM     22  C   UNL d   1      26.021  -9.288  -4.448  0.00  0.00     0.334 C 
ATOM     23  N   UNL d   1      25.155  -9.636  -3.487  0.00  0.00    -0.351 N 
ATOM     24  O   UNL d   1      26.045  -8.131  -4.954  0.00  0.00    -0.246 OA
ATOM     25  H   UNL d   1      25.214 -10.586  -3.132  0.00  0.00     0.160 HD
ATOM     26  H   UNL d   1      24.471  -8.984  -3.144  0.00  0.00     0.160 HD
ATOM     27  H   UNL d   1      27.558 -10.038  -5.560  0.00  0.00     0.194 HD
ENDBRANCH  20  21
ENDBRANCH  14  19
BRANCH   9  28
ATOM     28  O   UNL d   1      28.595 -16.065  -4.535  0.00  0.00    -0.389 OA
ATOM     29  H   UNL d   1      29.183 -16.665  -4.011  0.00  0.00     0.210 HD
ENDBRANCH   9  28
BRANCH  11  30
ATOM     30  O   UNL d   1      30.050 -16.126  -6.440  0.00  0.00    -0.395 OA
ATOM     31  H   UNL d   1      29.196 -16.394  -6.024  0.00  0.00     0.210 HD
ENDBRANCH  11  30
BRANCH  15  32
ATOM     32  O   UNL d   1      28.203 -16.738  -2.056  0.00  0.00    -0.389 OA
ATOM     33  H   UNL d   1      27.969 -16.399  -2.943  0.00  0.00     0.210 HD
ENDBRANCH  15  32
BRANCH  18  34
ATOM     34  C   UNL d   1      24.399 -17.504  -0.622  0.00  0.00    -0.045 A 
ATOM     35  C   UNL d   1      23.271 -17.210  -1.270  0.00  0.00     0.087 A 
ATOM     36  C   UNL d   1      22.204 -17.824  -0.534  0.00  0.00     0.283 A 
ATOM     37  O   UNL d   1      21.010 -17.824  -0.931  0.00  0.00    -0.260 OA
ATOM     38  O   UNL d   1      22.675 -18.413   0.578  0.00  0.00    -0.314 OA
ATOM     39  C   UNL d   1      24.098 -18.262   0.605  0.00  0.00     0.213 A 
ENDBRANCH  18  34
TORSDOF 6
ENDMDL
MODEL 3
REMARK VINA RESULT:    -7.142      3.041      7.376
REMARK INTER + INTRA:         -10.721
REMARK INTER:                  -8.932
REMARK INTRA:                  -1.789
REMARK CONF_INDEPENDENT:        1.790
REMARK UNBOUND:                -1.789
REMARK  6 active torsions:
REMARK  status: ('A' for Active; 'I' for Inactive)
REMARK    1  A    between atoms: C_9  and  O_10 
REMARK    2  A    between atoms: C_12  and  O_13 
REMARK    3  A    between atoms: C_16  and  C_17 
REMARK    4  A    between atoms: N_18  and  N_19 
REMARK       I    between atoms: N_19  and  C_20 
REMARK       I    between atoms: C_20  and  N_21 
REMARK    5  A    between atoms: C_23  and  O_24 
REMARK    6  A    between atoms: C_27  and  C_28 
ROOT
ATOM      1  C   UNL d   1      25.909 -12.179  -5.539  0.00  0.00     0.019 C 
ATOM      2  C   UNL d   1      26.569 -12.085  -4.068  0.00  0.00    -0.005 C 
ATOM      3  C   UNL d   1      25.446 -12.440  -3.086  0.00  0.00     0.013 C 
ATOM      4  C   UNL d   1      24.820 -13.757  -3.413  0.00  0.00     0.007 C 
ATOM      5  C   UNL d   1      25.929 -14.776  -3.357  0.00  0.00     0.009 C 
ATOM      6  C   UNL d   1      27.211 -14.483  -4.423  0.00  0.00     0.026 C 
ATOM      7  C   UNL d   1      28.154 -15.712  -4.228  0.00  0.00     0.011 C 
ATOM      8  C   UNL d   1      28.725 -15.869  -2.876  0.00  0.00     0.039 C 
ATOM      9  C   UNL d   1      27.642 -15.713  -1.878  0.00  0.00     0.073 C 
ATOM     10  C   UNL d   1      27.517 -17.075  -1.332  0.00  0.00     0.070 C 
ATOM     11  C   UNL d   1      28.400 -17.108  -0.130  0.00  0.00     0.121 C 
ATOM     12  C   UNL d   1      27.135 -16.829   0.657  0.00  0.00     0.033 C 
ATOM     13  C   UNL d   1      26.256 -15.307  -0.136  0.00  0.00     0.021 C 
ATOM     14  C   UNL d   1      26.150 -15.418  -1.899  0.00  0.00     0.031 C 
ATOM     15  C   UNL d   1      27.797 -12.954  -4.321  0.00  0.00     0.070 C 
ATOM     16  C   UNL d   1      28.430 -11.613  -5.315  0.00  0.00     0.040 C 
ATOM     17  C   UNL d   1      28.694 -10.650  -4.181  0.00  0.00     0.013 C 
ATOM     18  C   UNL d   1      27.289 -10.762  -3.509  0.00  0.00     0.028 C 
ENDROOT
BRANCH  14  19
ATOM     19  C   UNL d   1      24.873 -16.351  -1.768  0.00  0.00     0.124 C 
ATOM     20  N   UNL d   1      23.923 -16.149  -0.908  0.00  0.00    -0.186 NA
BRANCH  20  21
ATOM     21  N   UNL d   1      22.797 -16.877  -1.157  0.00  0.00    -0.230 N 
ATOM     22  C   UNL d   1      22.620 -18.069  -0.534  0.00  0.00     0.334 C 
ATOM     23  N   UNL d   1      23.682 -18.529   0.142  0.00  0.00    -0.351 N 
ATOM     24  O   UNL d   1      21.533 -18.708  -0.607  0.00  0.00    -0.246 OA
ATOM     25  H   UNL d   1      24.512 -17.944   0.155  0.00  0.00     0.160 HD
ATOM     26  H   UNL d   1      23.656 -19.423   0.604  0.00  0.00     0.160 HD
ATOM     27  H   UNL d   1      22.004 -16.473  -1.644  0.00  0.00     0.194 HD
ENDBRANCH  20  21
ENDBRANCH  14  19
BRANCH   9  28
ATOM     28  O   UNL d   1      28.275 -14.586  -1.151  0.00  0.00    -0.389 OA
ATOM     29  H   UNL d   1      29.183 -14.813  -0.828  0.00  0.00     0.210 HD
ENDBRANCH   9  28
BRANCH  11  30
ATOM     30  O   UNL d   1      29.236 -16.103   0.439  0.00  0.00    -0.395 OA
ATOM     31  H   UNL d   1      29.678 -16.520   1.217  0.00  0.00     0.210 HD
ENDBRANCH  11  30
BRANCH  15  32
ATOM     32  O   UNL d   1      28.654 -13.017  -3.187  0.00  0.00    -0.389 OA
ATOM     33  H   UNL d   1      28.124 -12.896  -2.375  0.00  0.00     0.210 HD
ENDBRANCH  15  32
BRANCH  18  34
ATOM     34  C   UNL d   1      26.358  -9.619  -3.728  0.00  0.00    -0.045 A 
ATOM     35  C   UNL d   1      25.967  -8.710  -2.834  0.00  0.00     0.087 A 
ATOM     36  C   UNL d   1      25.360  -7.642  -3.574  0.00  0.00     0.283 A 
ATOM     37  O   UNL d   1      24.971  -6.573  -3.039  0.00  0.00    -0.260 OA
ATOM     38  O   UNL d   1      25.318  -7.940  -4.884  0.00  0.00    -0.314 OA
ATOM     39  C   UNL d   1      25.951  -9.208  -5.082  0.00  0.00     0.213 A 
ENDBRANCH  18  34
TORSDOF 6
ENDMDL
MODEL 4
REMARK VINA RESULT:    -6.641      4.491      6.699
REMARK INTER + INTRA:         -10.976
REMARK INTER:                  -8.431
REMARK INTRA:                  -2.545
REMARK CONF_INDEPENDENT:        1.790
REMARK UNBOUND:                -2.545
REMARK  6 active torsions:
REMARK  status: ('A' for Active; 'I' for Inactive)
REMARK    1  A    between atoms: C_9  and  O_10 
REMARK    2  A    between atoms: C_12  and  O_13 
REMARK    3  A    between atoms: C_16  and  C_17 
REMARK    4  A    between atoms: N_18  and  N_19 
REMARK       I    between atoms: N_19  and  C_20 
REMARK       I    between atoms: C_20  and  N_21 
REMARK    5  A    between atoms: C_23  and  O_24 
REMARK    6  A    between atoms: C_27  and  C_28 
ROOT
ATOM      1  C   UNL d   1      29.359 -10.947   0.938  0.00  0.00     0.019 C 
ATOM      2  C   UNL d   1      28.421 -12.015   1.703  0.00  0.00    -0.005 C 
ATOM      3  C   UNL d   1      27.097 -12.034   0.929  0.00  0.00     0.013 C 
ATOM      4  C   UNL d   1      27.310 -12.309  -0.525  0.00  0.00     0.007 C 
ATOM      5  C   UNL d   1      28.000 -13.645  -0.604  0.00  0.00     0.009 C 
ATOM      6  C   UNL d   1      29.486 -13.721   0.205  0.00  0.00     0.026 C 
ATOM      7  C   UNL d   1      30.015 -15.156  -0.109  0.00  0.00     0.011 C 
ATOM      8  C   UNL d   1      29.180 -16.267   0.387  0.00  0.00     0.039 C 
ATOM      9  C   UNL d   1      27.768 -16.001   0.030  0.00  0.00     0.073 C 
ATOM     10  C   UNL d   1      27.496 -17.039  -0.979  0.00  0.00     0.070 C 
ATOM     11  C   UNL d   1      26.920 -18.189  -0.225  0.00  0.00     0.121 C 
ATOM     12  C   UNL d   1      25.573 -17.632  -0.642  0.00  0.00     0.033 C 
ATOM     13  C   UNL d   1      25.528 -15.760  -0.181  0.00  0.00     0.021 C 
ATOM     14  C   UNL d   1      26.992 -14.896  -0.673  0.00  0.00     0.031 C 
ATOM     15  C   UNL d   1      29.405 -13.179   1.752  0.00  0.00     0.070 C 
ATOM     16  C   UNL d   1      30.313 -12.244   2.972  0.00  0.00     0.040 C 
ATOM     17  C   UNL d   1      29.302 -12.365   4.089  0.00  0.00     0.013 C 
ATOM     18  C   UNL d   1      28.057 -11.908   3.265  0.00  0.00     0.028 C 
ENDROOT
BRANCH  14  19
ATOM     19  C   UNL d   1      26.422 -14.761  -2.148  0.00  0.00     0.124 C 
ATOM     20  N   UNL d   1      26.799 -13.840  -2.980  0.00  0.00    -0.186 NA
BRANCH  20  21
ATOM     21  N   UNL d   1      26.414 -14.078  -4.267  0.00  0.00    -0.230 N 
ATOM     22  C   UNL d   1      27.084 -14.997  -5.006  0.00  0.00     0.334 C 
ATOM     23  N   UNL d   1      28.215 -15.463  -4.459  0.00  0.00    -0.351 N 
ATOM     24  O   UNL d   1      26.678 -15.368  -6.143  0.00  0.00    -0.246 OA
ATOM     25  H   UNL d   1      28.460 -15.117  -3.536  0.00  0.00     0.160 HD
ATOM     26  H   UNL d   1      28.798 -16.120  -4.950  0.00  0.00     0.160 HD
ATOM     27  H   UNL d   1      25.531 -13.731  -4.627  0.00  0.00     0.194 HD
ENDBRANCH  20  21
ENDBRANCH  14  19
BRANCH   9  28
ATOM     28  O   UNL d   1      27.255 -16.045   1.420  0.00  0.00    -0.389 OA
ATOM     29  H   UNL d   1      27.970 -16.243   2.076  0.00  0.00     0.210 HD
ENDBRANCH   9  28
BRANCH  11  30
ATOM     30  O   UNL d   1      26.664 -18.355   1.168  0.00  0.00    -0.395 OA
ATOM     31  H   UNL d   1      27.383 -17.871   1.640  0.00  0.00     0.210 HD
ENDBRANCH  11  30
BRANCH  15  32
ATOM     32  O   UNL d   1      28.879 -14.300   2.454  0.00  0.00    -0.389 OA
ATOM     33  H   UNL d   1      29.272 -15.119   2.094  0.00  0.00     0.210 HD
ENDBRANCH  15  32
BRANCH  18  34
ATOM     34  C   UNL d   1      27.569 -10.522   3.517  0.00  0.00    -0.045 A 
ATOM     35  C   UNL d   1      28.245  -9.512   4.065  0.00  0.00     0.087 A 
ATOM     36  C   UNL d   1      27.494  -8.321   3.792  0.00  0.00     0.283 A 
ATOM     37  O   UNL d   1      27.906  -7.170   4.085  0.00  0.00    -0.260 OA
ATOM     38  O   UNL d   1      26.348  -8.620   3.158  0.00  0.00    -0.314 OA
ATOM     39  C   UNL d   1      26.310 -10.033   2.930  0.00  0.00     0.213 A 
ENDBRANCH  18  34
TORSDOF 6
ENDMDL
MODEL 5
REMARK VINA RESULT:    -6.558      3.132      7.654
REMARK INTER + INTRA:         -11.459
REMARK INTER:                  -8.348
REMARK INTRA:                  -3.111
REMARK CONF_INDEPENDENT:        1.790
REMARK UNBOUND:                -3.111
REMARK  6 active torsions:
REMARK  status: ('A' for Active; 'I' for Inactive)
REMARK    1  A    between atoms: C_9  and  O_10 
REMARK    2  A    between atoms: C_12  and  O_13 
REMARK    3  A    between atoms: C_16  and  C_17 
REMARK    4  A    between atoms: N_18  and  N_19 
REMARK       I    between atoms: N_19  and  C_20 
REMARK       I    between atoms: C_20  and  N_21 
REMARK    5  A    between atoms: C_23  and  O_24 
REMARK    6  A    between atoms: C_27  and  C_28 
ROOT
ATOM      1  C   UNL d   1      29.647 -13.483  -3.920  0.00  0.00     0.019 C 
ATOM      2  C   UNL d   1      28.915 -14.913  -4.086  0.00  0.00    -0.005 C 
ATOM      3  C   UNL d   1      29.389 -15.762  -2.900  0.00  0.00     0.013 C 
ATOM      4  C   UNL d   1      29.143 -15.075  -1.595  0.00  0.00     0.007 C 
ATOM      5  C   UNL d   1      27.659 -14.827  -1.523  0.00  0.00     0.009 C 
ATOM      6  C   UNL d   1      27.039 -13.879  -2.782  0.00  0.00     0.026 C 
ATOM      7  C   UNL d   1      25.531 -13.706  -2.420  0.00  0.00     0.011 C 
ATOM      8  C   UNL d   1      24.740 -14.951  -2.368  0.00  0.00     0.039 C 
ATOM      9  C   UNL d   1      25.487 -15.960  -1.584  0.00  0.00     0.073 C 
ATOM     10  C   UNL d   1      24.661 -16.093  -0.371  0.00  0.00     0.070 C 
ATOM     11  C   UNL d   1      23.732 -17.227  -0.642  0.00  0.00     0.121 C 
ATOM     12  C   UNL d   1      24.734 -18.072   0.120  0.00  0.00     0.033 C 
ATOM     13  C   UNL d   1      26.481 -17.757  -0.632  0.00  0.00     0.021 C 
ATOM     14  C   UNL d   1      26.827 -16.037  -0.867  0.00  0.00     0.031 C 
ATOM     15  C   UNL d   1      27.487 -14.412  -4.269  0.00  0.00     0.070 C 
ATOM     16  C   UNL d   1      27.989 -13.839  -5.883  0.00  0.00     0.040 C 
ATOM     17  C   UNL d   1      28.152 -15.200  -6.520  0.00  0.00     0.013 C 
ATOM     18  C   UNL d   1      29.049 -15.823  -5.404  0.00  0.00     0.028 C 
ENDROOT
BRANCH  14  19
ATOM     19  C   UNL d   1      27.232 -15.905   0.662  0.00  0.00     0.124 C 
ATOM     20  N   UNL d   1      28.139 -15.085   1.095  0.00  0.00    -0.186 NA
BRANCH  20  21
ATOM     21  N   UNL d   1      28.123 -14.920   2.449  0.00  0.00    -0.230 N 
ATOM     22  C   UNL d   1      27.404 -13.904   2.990  0.00  0.00     0.334 C 
ATOM     23  N   UNL d   1      26.919 -13.013   2.115  0.00  0.00    -0.351 N 
ATOM     24  O   UNL d   1      27.229 -13.797   4.236  0.00  0.00    -0.246 OA
ATOM     25  H   UNL d   1      27.100 -13.183   1.131  0.00  0.00     0.160 HD
ATOM     26  H   UNL d   1      26.406 -12.205   2.427  0.00  0.00     0.160 HD
ATOM     27  H   UNL d   1      28.472 -15.639   3.074  0.00  0.00     0.194 HD
ENDBRANCH  20  21
ENDBRANCH  14  19
BRANCH   9  28
ATOM     28  O   UNL d   1      25.538 -16.975  -2.664  0.00  0.00    -0.389 OA
ATOM     29  H   UNL d   1      25.084 -16.666  -3.488  0.00  0.00     0.210 HD
ENDBRANCH   9  28
BRANCH  11  30
ATOM     30  O   UNL d   1      23.581 -18.054  -1.794  0.00  0.00    -0.395 OA
ATOM     31  H   UNL d   1      24.483 -18.144  -2.188  0.00  0.00     0.210 HD
ENDBRANCH  11  30
BRANCH  15  32
ATOM     32  O   UNL d   1      26.571 -15.472  -4.515  0.00  0.00    -0.389 OA
ATOM     33  H   UNL d   1      26.669 -16.151  -3.819  0.00  0.00     0.210 HD
ENDBRANCH  15  32
BRANCH  18  34
ATOM     34  C   UNL d   1      30.501 -15.950  -5.716  0.00  0.00    -0.045 A 
ATOM     35  C   UNL d   1      31.358 -16.848  -5.232  0.00  0.00     0.087 A 
ATOM     36  C   UNL d   1      32.527 -16.788  -6.061  0.00  0.00     0.283 A 
ATOM     37  O   UNL d   1      33.495 -17.581  -5.938  0.00  0.00    -0.260 OA
ATOM     38  O   UNL d   1      32.403 -15.817  -6.981  0.00  0.00    -0.314 OA
ATOM     39  C   UNL d   1      31.112 -15.216  -6.838  0.00  0.00     0.213 A 
ENDBRANCH  18  34
TORSDOF 6
ENDMDL
MODEL 6
REMARK VINA RESULT:    -6.487      4.959      8.047
REMARK INTER + INTRA:         -10.770
REMARK INTER:                  -8.277
REMARK INTRA:                  -2.493
REMARK CONF_INDEPENDENT:        1.790
REMARK UNBOUND:                -2.493
REMARK  6 active torsions:
REMARK  status: ('A' for Active; 'I' for Inactive)
REMARK    1  A    between atoms: C_9  and  O_10 
REMARK    2  A    between atoms: C_12  and  O_13 
REMARK    3  A    between atoms: C_16  and  C_17 
REMARK    4  A    between atoms: N_18  and  N_19 
REMARK       I    between atoms: N_19  and  C_20 
REMARK       I    between atoms: C_20  and  N_21 
REMARK    5  A    between atoms: C_23  and  O_24 
REMARK    6  A    between atoms: C_27  and  C_28 
ROOT
ATOM      1  C   UNL d   1      27.796 -12.409  -2.432  0.00  0.00     0.019 C 
ATOM      2  C   UNL d   1      27.926 -13.756  -1.550  0.00  0.00    -0.005 C 
ATOM      3  C   UNL d   1      29.387 -13.812  -1.091  0.00  0.00     0.013 C 
ATOM      4  C   UNL d   1      29.795 -12.557  -0.388  0.00  0.00     0.007 C 
ATOM      5  C   UNL d   1      28.864 -12.411   0.788  0.00  0.00     0.009 C 
ATOM      6  C   UNL d   1      27.223 -12.320   0.382  0.00  0.00     0.026 C 
ATOM      7  C   UNL d   1      26.507 -12.085   1.749  0.00  0.00     0.011 C 
ATOM      8  C   UNL d   1      26.661 -13.165   2.743  0.00  0.00     0.039 C 
ATOM      9  C   UNL d   1      28.089 -13.551   2.813  0.00  0.00     0.073 C 
ATOM     10  C   UNL d   1      28.479 -13.078   4.152  0.00  0.00     0.070 C 
ATOM     11  C   UNL d   1      28.286 -14.244   5.062  0.00  0.00     0.121 C 
ATOM     12  C   UNL d   1      29.771 -14.485   4.870  0.00  0.00     0.033 C 
ATOM     13  C   UNL d   1      30.138 -14.497   2.977  0.00  0.00     0.021 C 
ATOM     14  C   UNL d   1      29.382 -13.143   2.123  0.00  0.00     0.031 C 
ATOM     15  C   UNL d   1      26.739 -13.527  -0.620  0.00  0.00     0.070 C 
ATOM     16  C   UNL d   1      25.687 -13.864  -2.022  0.00  0.00     0.040 C 
ATOM     17  C   UNL d   1      25.991 -15.341  -2.131  0.00  0.00     0.013 C 
ATOM     18  C   UNL d   1      27.547 -15.214  -2.110  0.00  0.00     0.028 C 
ENDROOT
BRANCH  14  19
ATOM     19  C   UNL d   1      30.576 -12.194   2.560  0.00  0.00     0.124 C 
ATOM     20  N   UNL d   1      31.778 -12.289   2.083  0.00  0.00    -0.186 NA
BRANCH  20  21
ATOM     21  N   UNL d   1      32.563 -11.209   2.364  0.00  0.00    -0.230 N 
ATOM     22  C   UNL d   1      33.313 -11.204   3.494  0.00  0.00     0.334 C 
ATOM     23  N   UNL d   1      33.065 -12.200   4.355  0.00  0.00    -0.351 N 
ATOM     24  O   UNL d   1      34.170 -10.304   3.725  0.00  0.00    -0.246 OA
ATOM     25  H   UNL d   1      32.366 -12.884   4.083  0.00  0.00     0.160 HD
ATOM     26  H   UNL d   1      33.546 -12.256   5.237  0.00  0.00     0.160 HD
ATOM     27  H   UNL d   1      32.749 -10.495   1.667  0.00  0.00     0.194 HD
ENDBRANCH  20  21
ENDBRANCH  14  19
BRANCH   9  28
ATOM     28  O   UNL d   1      27.871 -14.977   2.472  0.00  0.00    -0.389 OA
ATOM     29  H   UNL d   1      28.371 -15.586   3.072  0.00  0.00     0.210 HD
ENDBRANCH   9  28
BRANCH  11  30
ATOM     30  O   UNL d   1      27.816 -15.563   4.797  0.00  0.00    -0.395 OA
ATOM     31  H   UNL d   1      28.530 -16.013   4.284  0.00  0.00     0.210 HD
ENDBRANCH  11  30
BRANCH  15  32
ATOM     32  O   UNL d   1      26.536 -14.617   0.272  0.00  0.00    -0.389 OA
ATOM     33  H   UNL d   1      27.323 -14.717   0.844  0.00  0.00     0.210 HD
ENDBRANCH  15  32
BRANCH  18  34
ATOM     34  C   UNL d   1      28.242 -15.386  -3.417  0.00  0.00    -0.045 A 
ATOM     35  C   UNL d   1      29.354 -16.082  -3.658  0.00  0.00     0.087 A 
ATOM     36  C   UNL d   1      29.442 -16.233  -5.082  0.00  0.00     0.283 A 
ATOM     37  O   UNL d   1      30.326 -16.930  -5.643  0.00  0.00    -0.260 OA
ATOM     38  O   UNL d   1      28.441 -15.575  -5.689  0.00  0.00    -0.314 OA
ATOM     39  C   UNL d   1      27.603 -14.994  -4.685  0.00  0.00     0.213 A 
ENDBRANCH  18  34
TORSDOF 6
ENDMDL
MODEL 7
REMARK VINA RESULT:    -6.373      1.810      2.325
REMARK INTER + INTRA:         -11.176
REMARK INTER:                  -8.162
REMARK INTRA:                  -3.014
REMARK CONF_INDEPENDENT:        1.790
REMARK UNBOUND:                -3.014
REMARK  6 active torsions:
REMARK  status: ('A' for Active; 'I' for Inactive)
REMARK    1  A    between atoms: C_9  and  O_10 
REMARK    2  A    between atoms: C_12  and  O_13 
REMARK    3  A    between atoms: C_16  and  C_17 
REMARK    4  A    between atoms: N_18  and  N_19 
REMARK       I    between atoms: N_19  and  C_20 
REMARK       I    between atoms: C_20  and  N_21 
REMARK    5  A    between atoms: C_23  and  O_24 
REMARK    6  A    between atoms: C_27  and  C_28 
ROOT
ATOM      1  C   UNL d   1      25.311 -14.117  -2.073  0.00  0.00     0.019 C 
ATOM      2  C   UNL d   1      26.224 -15.447  -2.146  0.00  0.00    -0.005 C 
ATOM      3  C   UNL d   1      26.110 -15.950  -3.590  0.00  0.00     0.013 C 
ATOM      4  C   UNL d   1      26.468 -14.886  -4.576  0.00  0.00     0.007 C 
ATOM      5  C   UNL d   1      27.881 -14.474  -4.257  0.00  0.00     0.009 C 
ATOM      6  C   UNL d   1      28.107 -13.882  -2.687  0.00  0.00     0.026 C 
ATOM      7  C   UNL d   1      29.607 -13.453  -2.655  0.00  0.00     0.011 C 
ATOM      8  C   UNL d   1      30.586 -14.536  -2.869  0.00  0.00     0.039 C 
ATOM      9  C   UNL d   1      30.163 -15.340  -4.039  0.00  0.00     0.073 C 
ATOM     10  C   UNL d   1      31.200 -15.021  -5.035  0.00  0.00     0.070 C 
ATOM     11  C   UNL d   1      32.238 -16.080  -4.886  0.00  0.00     0.121 C 
ATOM     12  C   UNL d   1      31.536 -16.761  -6.045  0.00  0.00     0.033 C 
ATOM     13  C   UNL d   1      29.656 -16.867  -5.630  0.00  0.00     0.021 C 
ATOM     14  C   UNL d   1      29.001 -15.340  -5.021  0.00  0.00     0.031 C 
ATOM     15  C   UNL d   1      27.497 -14.876  -1.531  0.00  0.00     0.070 C 
ATOM     16  C   UNL d   1      26.632 -14.863   0.030  0.00  0.00     0.040 C 
ATOM     17  C   UNL d   1      26.582 -16.362   0.226  0.00  0.00     0.013 C 
ATOM     18  C   UNL d   1      26.009 -16.715  -1.183  0.00  0.00     0.028 C 
ENDROOT
BRANCH  14  19
ATOM     19  C   UNL d   1      28.855 -14.804  -6.507  0.00  0.00     0.124 C 
ATOM     20  N   UNL d   1      28.487 -13.596  -6.800  0.00  0.00    -0.186 NA
BRANCH  20  21
ATOM     21  N   UNL d   1      28.711 -13.258  -8.103  0.00  0.00    -0.230 N 
ATOM     22  C   UNL d   1      28.704 -11.952  -8.466  0.00  0.00     0.334 C 
ATOM     23  N   UNL d   1      28.277 -11.095  -7.529  0.00  0.00    -0.351 N 
ATOM     24  O   UNL d   1      29.057 -11.575  -9.620  0.00  0.00    -0.246 OA
ATOM     25  H   UNL d   1      28.023 -11.485  -6.626  0.00  0.00     0.160 HD
ATOM     26  H   UNL d   1      28.202 -10.110  -7.720  0.00  0.00     0.160 HD
ATOM     27  H   UNL d   1      29.068 -13.935  -8.770  0.00  0.00     0.194 HD
ENDBRANCH  20  21
ENDBRANCH  14  19
BRANCH   9  28
ATOM     28  O   UNL d   1      30.087 -16.629  -3.309  0.00  0.00    -0.389 OA
ATOM     29  H   UNL d   1      30.361 -16.539  -2.362  0.00  0.00     0.210 HD
ENDBRANCH   9  28
BRANCH  11  30
ATOM     30  O   UNL d   1      32.315 -17.191  -3.996  0.00  0.00    -0.395 OA
ATOM     31  H   UNL d   1      31.558 -17.782  -4.226  0.00  0.00     0.210 HD
ENDBRANCH  11  30
BRANCH  15  32
ATOM     32  O   UNL d   1      28.515 -15.860  -1.389  0.00  0.00    -0.389 OA
ATOM     33  H   UNL d   1      28.408 -16.538  -2.085  0.00  0.00     0.210 HD
ENDBRANCH  15  32
BRANCH  18  34
ATOM     34  C   UNL d   1      24.565 -17.080  -1.236  0.00  0.00    -0.045 A 
ATOM     35  C   UNL d   1      24.029 -18.192  -1.739  0.00  0.00     0.087 A 
ATOM     36  C   UNL d   1      22.675 -18.244  -1.268  0.00  0.00     0.283 A 
ATOM     37  O   UNL d   1      21.913 -19.222  -1.478  0.00  0.00    -0.260 OA
ATOM     38  O   UNL d   1      22.381 -17.142  -0.556  0.00  0.00    -0.314 OA
ATOM     39  C   UNL d   1      23.553 -16.326  -0.477  0.00  0.00     0.213 A 
ENDBRANCH  18  34
TORSDOF 6
ENDMDL
MODEL 8
REMARK VINA RESULT:    -6.335      3.806      7.148
REMARK INTER + INTRA:         -11.210
REMARK INTER:                  -8.124
REMARK INTRA:                  -3.086
REMARK CONF_INDEPENDENT:        1.790
REMARK UNBOUND:                -3.086
REMARK  6 active torsions:
REMARK  status: ('A' for Active; 'I' for Inactive)
REMARK    1  A    between atoms: C_9  and  O_10 
REMARK    2  A    between atoms: C_12  and  O_13 
REMARK    3  A    between atoms: C_16  and  C_17 
REMARK    4  A    between atoms: N_18  and  N_19 
REMARK       I    between atoms: N_19  and  C_20 
REMARK       I    between atoms: C_20  and  N_21 
REMARK    5  A    between atoms: C_23  and  O_24 
REMARK    6  A    between atoms: C_27  and  C_28 
ROOT
ATOM      1  C   UNL d   1      32.255 -16.868  -4.282  0.00  0.00     0.019 C 
ATOM      2  C   UNL d   1      30.764 -17.234  -4.784  0.00  0.00    -0.005 C 
ATOM      3  C   UNL d   1      30.013 -17.716  -3.538  0.00  0.00     0.013 C 
ATOM      4  C   UNL d   1      30.077 -16.713  -2.431  0.00  0.00     0.007 C 
ATOM      5  C   UNL d   1      29.467 -15.448  -2.974  0.00  0.00     0.009 C 
ATOM      6  C   UNL d   1      30.240 -14.822  -4.344  0.00  0.00     0.026 C 
ATOM      7  C   UNL d   1      29.478 -13.491  -4.634  0.00  0.00     0.011 C 
ATOM      8  C   UNL d   1      28.045 -13.634  -4.957  0.00  0.00     0.039 C 
ATOM      9  C   UNL d   1      27.419 -14.541  -3.968  0.00  0.00     0.073 C 
ATOM     10  C   UNL d   1      26.543 -13.628  -3.213  0.00  0.00     0.070 C 
ATOM     11  C   UNL d   1      25.213 -13.704  -3.883  0.00  0.00     0.121 C 
ATOM     12  C   UNL d   1      24.862 -14.708  -2.802  0.00  0.00     0.033 C 
ATOM     13  C   UNL d   1      26.249 -16.046  -2.750  0.00  0.00     0.021 C 
ATOM     14  C   UNL d   1      27.875 -15.349  -2.762  0.00  0.00     0.031 C 
ATOM     15  C   UNL d   1      30.456 -15.938  -5.527  0.00  0.00     0.070 C 
ATOM     16  C   UNL d   1      31.622 -16.476  -6.767  0.00  0.00     0.040 C 
ATOM     17  C   UNL d   1      30.791 -17.609  -7.324  0.00  0.00     0.013 C 
ATOM     18  C   UNL d   1      30.465 -18.291  -5.957  0.00  0.00     0.028 C 
ENDROOT
BRANCH  14  19
ATOM     19  C   UNL d   1      27.780 -15.088  -1.200  0.00  0.00     0.124 C 
ATOM     20  N   UNL d   1      28.109 -13.965  -0.640  0.00  0.00    -0.186 NA
BRANCH  20  21
ATOM     21  N   UNL d   1      27.677 -13.852   0.649  0.00  0.00    -0.230 N 
ATOM     22  C   UNL d   1      28.422 -14.381   1.652  0.00  0.00     0.334 C 
ATOM     23  N   UNL d   1      29.443 -15.156   1.264  0.00  0.00    -0.351 N 
ATOM     24  O   UNL d   1      28.152 -14.173   2.869  0.00  0.00    -0.246 OA
ATOM     25  H   UNL d   1      29.592 -15.260   0.265  0.00  0.00     0.160 HD
ATOM     26  H   UNL d   1      30.027 -15.622   1.938  0.00  0.00     0.160 HD
ATOM     27  H   UNL d   1      26.920 -13.225   0.900  0.00  0.00     0.194 HD
ENDBRANCH  20  21
ENDBRANCH  14  19
BRANCH   9  28
ATOM     28  O   UNL d   1      26.927 -15.524  -4.962  0.00  0.00    -0.389 OA
ATOM     29  H   UNL d   1      27.135 -15.252  -5.891  0.00  0.00     0.210 HD
ENDBRANCH   9  28
BRANCH  11  30
ATOM     30  O   UNL d   1      24.784 -14.450  -5.020  0.00  0.00    -0.395 OA
ATOM     31  H   UNL d   1      25.310 -15.286  -5.016  0.00  0.00     0.210 HD
ENDBRANCH  11  30
BRANCH  15  32
ATOM     32  O   UNL d   1      29.185 -15.973  -6.166  0.00  0.00    -0.389 OA
ATOM     33  H   UNL d   1      28.486 -16.063  -5.490  0.00  0.00     0.210 HD
ENDBRANCH  15  32
BRANCH  18  34
ATOM     34  C   UNL d   1      31.221 -19.536  -5.643  0.00  0.00    -0.045 A 
ATOM     35  C   UNL d   1      30.782 -20.603  -4.974  0.00  0.00     0.087 A 
ATOM     36  C   UNL d   1      31.727 -21.655  -5.215  0.00  0.00     0.283 A 
ATOM     37  O   UNL d   1      31.558 -22.833  -4.809  0.00  0.00    -0.260 OA
ATOM     38  O   UNL d   1      32.755 -21.205  -5.954  0.00  0.00    -0.314 OA
ATOM     39  C   UNL d   1      32.512 -19.835  -6.286  0.00  0.00     0.213 A 
ENDBRANCH  18  34
TORSDOF 6
ENDMDL
MODEL 9
REMARK VINA RESULT:    -5.988      4.716      6.851
REMARK INTER + INTRA:         -10.710
REMARK INTER:                  -7.778
REMARK INTRA:                  -2.933
REMARK CONF_INDEPENDENT:        1.790
REMARK UNBOUND:                -2.933
REMARK  6 active torsions:
REMARK  status: ('A' for Active; 'I' for Inactive)
REMARK    1  A    between atoms: C_9  and  O_10 
REMARK    2  A    between atoms: C_12  and  O_13 
REMARK    3  A    between atoms: C_16  and  C_17 
REMARK    4  A    between atoms: N_18  and  N_19 
REMARK       I    between atoms: N_19  and  C_20 
REMARK       I    between atoms: C_20  and  N_21 
REMARK    5  A    between atoms: C_23  and  O_24 
REMARK    6  A    between atoms: C_27  and  C_28 
ROOT
ATOM      1  C   UNL d   1      27.142 -16.961  -1.532  0.00  0.00     0.019 C 
ATOM      2  C   UNL d   1      26.355 -15.581  -1.246  0.00  0.00    -0.005 C 
ATOM      3  C   UNL d   1      26.191 -15.505   0.277  0.00  0.00     0.013 C 
ATOM      4  C   UNL d   1      27.502 -15.641   0.982  0.00  0.00     0.007 C 
ATOM      5  C   UNL d   1      28.371 -14.520   0.476  0.00  0.00     0.009 C 
ATOM      6  C   UNL d   1      28.630 -14.528  -1.198  0.00  0.00     0.026 C 
ATOM      7  C   UNL d   1      29.615 -13.341  -1.434  0.00  0.00     0.011 C 
ATOM      8  C   UNL d   1      29.105 -12.005  -1.068  0.00  0.00     0.039 C 
ATOM      9  C   UNL d   1      28.486 -12.081   0.276  0.00  0.00     0.073 C 
ATOM     10  C   UNL d   1      29.418 -11.291   1.098  0.00  0.00     0.070 C 
ATOM     11  C   UNL d   1      28.872  -9.903   1.102  0.00  0.00     0.121 C 
ATOM     12  C   UNL d   1      28.246 -10.283   2.429  0.00  0.00     0.033 C 
ATOM     13  C   UNL d   1      27.290 -11.941   2.191  0.00  0.00     0.021 C 
ATOM     14  C   UNL d   1      28.234 -13.158   1.320  0.00  0.00     0.031 C 
ATOM     15  C   UNL d   1      27.241 -14.647  -2.063  0.00  0.00     0.070 C 
ATOM     16  C   UNL d   1      26.545 -15.407  -3.521  0.00  0.00     0.040 C 
ATOM     17  C   UNL d   1      25.155 -14.827  -3.386  0.00  0.00     0.013 C 
ATOM     18  C   UNL d   1      24.927 -15.230  -1.895  0.00  0.00     0.028 C 
ENDROOT
BRANCH  14  19
ATOM     19  C   UNL d   1      28.986 -13.543   2.664  0.00  0.00     0.124 C 
ATOM     20  N   UNL d   1      28.459 -14.277   3.594  0.00  0.00    -0.186 NA
BRANCH  20  21
ATOM     21  N   UNL d   1      29.364 -14.727   4.511  0.00  0.00    -0.230 N 
ATOM     22  C   UNL d   1      29.376 -14.189   5.757  0.00  0.00     0.334 C 
ATOM     23  N   UNL d   1      28.609 -13.103   5.923  0.00  0.00    -0.351 N 
ATOM     24  O   UNL d   1      30.082 -14.670   6.687  0.00  0.00    -0.246 OA
ATOM     25  H   UNL d   1      28.067 -12.792   5.123  0.00  0.00     0.160 HD
ATOM     26  H   UNL d   1      28.584 -12.615   6.802  0.00  0.00     0.160 HD
ATOM     27  H   UNL d   1      29.898 -15.575   4.355  0.00  0.00     0.194 HD
ENDBRANCH  20  21
ENDBRANCH  14  19
BRANCH   9  28
ATOM     28  O   UNL d   1      27.150 -11.600  -0.152  0.00  0.00    -0.389 OA
ATOM     29  H   UNL d   1      27.207 -10.966  -0.910  0.00  0.00     0.210 HD
ENDBRANCH   9  28
BRANCH  11  30
ATOM     30  O   UNL d   1      27.719  -9.354   0.467  0.00  0.00    -0.395 OA
ATOM     31  H   UNL d   1      26.957  -9.920   0.741  0.00  0.00     0.210 HD
ENDBRANCH  11  30
BRANCH  15  32
ATOM     32  O   UNL d   1      26.754 -13.310  -2.068  0.00  0.00    -0.389 OA
ATOM     33  H   UNL d   1      26.640 -13.004  -1.146  0.00  0.00     0.210 HD
ENDBRANCH  15  32
BRANCH  18  34
ATOM     34  C   UNL d   1      24.027 -16.394  -1.655  0.00  0.00    -0.045 A 
ATOM     35  C   UNL d   1      24.260 -17.673  -1.950  0.00  0.00     0.087 A 
ATOM     36  C   UNL d   1      23.280 -18.443  -1.240  0.00  0.00     0.283 A 
ATOM     37  O   UNL d   1      23.280 -19.700  -1.220  0.00  0.00    -0.260 OA
ATOM     38  O   UNL d   1      22.426 -17.634  -0.590  0.00  0.00    -0.314 OA
ATOM     39  C   UNL d   1      22.835 -16.279  -0.797  0.00  0.00     0.213 A 
ENDBRANCH  18  34
TORSDOF 6
ENDMDL
