MODEL 1
REMARK VINA RESULT:    -7.557      0.000      0.000
REMARK INTER + INTRA:          -9.726
REMARK INTER:                  -8.750
REMARK INTRA:                  -0.976
REMARK CONF_INDEPENDENT:        1.193
REMARK UNBOUND:                -0.976
REMARK  4 active torsions:
REMARK  status: ('A' for Active; 'I' for Inactive)
REMARK    1  A    between atoms: C_7  and  N_8 
REMARK       I    between atoms: N_8  and  C_9 
REMARK    2  A    between atoms: C_9  and  C_11 
REMARK    3  A    between atoms: C_14  and  C_15 
REMARK    4  A    between atoms: C_15  and  N_16 
ROOT
ATOM      1  N   UNL d   1      26.450 -15.031  -1.594  0.00  0.00    -0.322 N 
ATOM      2  C   UNL d   1      26.727 -13.834  -0.954  0.00  0.00     0.256 C 
ATOM      3  O   UNL d   1      26.578 -12.767  -1.557  0.00  0.00    -0.267 OA
ATOM      4  H   UNL d   1      26.568 -14.994  -2.599  0.00  0.00     0.169 HD
ENDROOT
BRANCH   2   5
ATOM      5  C   UNL d   1      27.296 -13.827   0.436  0.00  0.00     0.032 C 
ATOM      6  C   UNL d   1      26.530 -13.345   1.501  0.00  0.00     0.018 C 
ATOM      7  C   UNL d   1      27.030 -13.394   2.815  0.00  0.00     0.015 C 
ATOM      8  C   UNL d   1      28.281 -13.972   3.098  0.00  0.00     0.001 C 
ATOM      9  C   UNL d   1      29.034 -14.450   2.024  0.00  0.00     0.015 C 
ATOM     10  C   UNL d   1      28.583 -14.302   0.715  0.00  0.00     0.018 C 
BRANCH   8  11
ATOM     11  C   UNL d   1      28.837 -14.055   4.489  0.00  0.00     0.104 C 
ATOM     12  S   UNL d   1      28.179 -13.346   5.860  0.00  0.00    -0.060 SA
BRANCH  11  13
ATOM     13  N   UNL d   1      29.979 -14.788   4.683  0.00  0.00    -0.390 N 
ATOM     14  H   UNL d   1      30.829 -14.449   5.108  0.00  0.00     0.157 HD
ATOM     15  H   UNL d   1      29.989 -15.742   4.342  0.00  0.00     0.157 HD
ENDBRANCH  11  13
ENDBRANCH   8  11
ENDBRANCH   2   5
BRANCH   1  16
ATOM     16  C   UNL d   1      25.785 -16.164  -1.059  0.00  0.00     0.041 C 
ATOM     17  C   UNL d   1      26.499 -17.166  -0.384  0.00  0.00    -0.035 C 
ATOM     18  C   UNL d   1      25.778 -18.210   0.227  0.00  0.00     0.009 C 
ATOM     19  C   UNL d   1      28.000 -17.167  -0.285  0.00  0.00     0.050 C 
ATOM     20  C   UNL d   1      24.380 -18.248   0.192  0.00  0.00     0.007 C 
ATOM     21  C   UNL d   1      23.676 -17.277  -0.506  0.00  0.00    -0.060 C 
ATOM     22  C   UNL d   1      22.178 -17.215  -0.520  0.00  0.00     0.048 C 
ATOM     23  C   UNL d   1      24.395 -16.297  -1.186  0.00  0.00     0.037 C 
ENDBRANCH   1  16
TORSDOF 4
ENDMDL
MODEL 2
REMARK VINA RESULT:    -6.862      1.066      2.080
REMARK INTER + INTRA:          -9.018
REMARK INTER:                  -8.055
REMARK INTRA:                  -0.963
REMARK CONF_INDEPENDENT:        1.193
REMARK UNBOUND:                -0.963
REMARK  4 active torsions:
REMARK  status: ('A' for Active; 'I' for Inactive)
REMARK    1  A    between atoms: C_7  and  N_8 
REMARK       I    between atoms: N_8  and  C_9 
REMARK    2  A    between atoms: C_9  and  C_11 
REMARK    3  A    between atoms: C_14  and  C_15 
REMARK    4  A    between atoms: C_15  and  N_16 
ROOT
ATOM      1  N   UNL d   1      27.036 -14.208  -1.409  0.00  0.00    -0.322 N 
ATOM      2  C   UNL d   1      27.259 -13.124  -0.578  0.00  0.00     0.256 C 
ATOM      3  O   UNL d   1      27.262 -11.981  -1.046  0.00  0.00    -0.267 OA
ATOM      4  H   UNL d   1      27.319 -14.053  -2.368  0.00  0.00     0.169 HD
ENDROOT
BRANCH   2   5
ATOM      5  C   UNL d   1      27.591 -13.331   0.873  0.00  0.00     0.032 C 
ATOM      6  C   UNL d   1      26.692 -12.918   1.860  0.00  0.00     0.018 C 
ATOM      7  C   UNL d   1      26.965 -13.166   3.218  0.00  0.00     0.015 C 
ATOM      8  C   UNL d   1      28.114 -13.874   3.613  0.00  0.00     0.001 C 
ATOM      9  C   UNL d   1      29.002 -14.281   2.616  0.00  0.00     0.015 C 
ATOM     10  C   UNL d   1      28.782 -13.940   1.283  0.00  0.00     0.018 C 
BRANCH   8  11
ATOM     11  C   UNL d   1      28.426 -14.170   5.050  0.00  0.00     0.104 C 
ATOM     12  S   UNL d   1      28.372 -13.073   6.319  0.00  0.00    -0.060 SA
BRANCH  11  13
ATOM     13  N   UNL d   1      28.775 -15.453   5.383  0.00  0.00    -0.390 N 
ATOM     14  H   UNL d   1      28.528 -15.926   6.238  0.00  0.00     0.157 HD
ATOM     15  H   UNL d   1      29.361 -15.964   4.732  0.00  0.00     0.157 HD
ENDBRANCH  11  13
ENDBRANCH   8  11
ENDBRANCH   2   5
BRANCH   1  16
ATOM     16  C   UNL d   1      26.240 -15.352  -1.143  0.00  0.00     0.041 C 
ATOM     17  C   UNL d   1      25.031 -15.562  -1.823  0.00  0.00    -0.035 C 
ATOM     18  C   UNL d   1      24.339 -16.770  -1.605  0.00  0.00     0.009 C 
ATOM     19  C   UNL d   1      24.449 -14.555  -2.775  0.00  0.00     0.050 C 
ATOM     20  C   UNL d   1      24.845 -17.757  -0.753  0.00  0.00     0.007 C 
ATOM     21  C   UNL d   1      26.021 -17.533  -0.053  0.00  0.00    -0.060 C 
ATOM     22  C   UNL d   1      26.658 -18.575   0.817  0.00  0.00     0.048 C 
ATOM     23  C   UNL d   1      26.657 -16.302  -0.199  0.00  0.00     0.037 C 
ENDBRANCH   1  16
TORSDOF 4
ENDMDL
MODEL 3
REMARK VINA RESULT:    -6.817      4.347      6.057
REMARK INTER + INTRA:          -8.641
REMARK INTER:                  -8.010
REMARK INTRA:                  -0.630
REMARK CONF_INDEPENDENT:        1.193
REMARK UNBOUND:                -0.630
REMARK  4 active torsions:
REMARK  status: ('A' for Active; 'I' for Inactive)
REMARK    1  A    between atoms: C_7  and  N_8 
REMARK       I    between atoms: N_8  and  C_9 
REMARK    2  A    between atoms: C_9  and  C_11 
REMARK    3  A    between atoms: C_14  and  C_15 
REMARK    4  A    between atoms: C_15  and  N_16 
ROOT
ATOM      1  N   UNL d   1      24.684 -14.791  -2.250  0.00  0.00    -0.322 N 
ATOM      2  C   UNL d   1      25.586 -13.987  -2.927  0.00  0.00     0.256 C 
ATOM      3  O   UNL d   1      25.464 -12.759  -2.889  0.00  0.00    -0.267 OA
ATOM      4  H   UNL d   1      23.768 -14.374  -2.142  0.00  0.00     0.169 HD
ENDROOT
BRANCH   2   5
ATOM      5  C   UNL d   1      26.659 -14.598  -3.783  0.00  0.00     0.032 C 
ATOM      6  C   UNL d   1      26.712 -14.307  -5.149  0.00  0.00     0.018 C 
ATOM      7  C   UNL d   1      27.750 -14.823  -5.946  0.00  0.00     0.015 C 
ATOM      8  C   UNL d   1      28.782 -15.597  -5.386  0.00  0.00     0.001 C 
ATOM      9  C   UNL d   1      28.716 -15.880  -4.020  0.00  0.00     0.015 C 
ATOM     10  C   UNL d   1      27.631 -15.457  -3.257  0.00  0.00     0.018 C 
BRANCH   8  11
ATOM     11  C   UNL d   1      29.912 -16.150  -6.204  0.00  0.00     0.104 C 
ATOM     12  S   UNL d   1      30.634 -17.651  -6.005  0.00  0.00    -0.060 SA
BRANCH  11  13
ATOM     13  N   UNL d   1      30.406 -15.379  -7.224  0.00  0.00    -0.390 N 
ATOM     14  H   UNL d   1      31.310 -14.933  -7.239  0.00  0.00     0.157 HD
ATOM     15  H   UNL d   1      29.801 -15.210  -8.020  0.00  0.00     0.157 HD
ENDBRANCH  11  13
ENDBRANCH   8  11
ENDBRANCH   2   5
BRANCH   1  16
ATOM     16  C   UNL d   1      24.964 -15.953  -1.488  0.00  0.00     0.041 C 
ATOM     17  C   UNL d   1      26.009 -15.966  -0.551  0.00  0.00    -0.035 C 
ATOM     18  C   UNL d   1      26.169 -17.107   0.260  0.00  0.00     0.009 C 
ATOM     19  C   UNL d   1      26.958 -14.813  -0.376  0.00  0.00     0.050 C 
ATOM     20  C   UNL d   1      25.301 -18.199   0.163  0.00  0.00     0.007 C 
ATOM     21  C   UNL d   1      24.291 -18.201  -0.788  0.00  0.00    -0.060 C 
ATOM     22  C   UNL d   1      23.280 -19.303  -0.895  0.00  0.00     0.048 C 
ATOM     23  C   UNL d   1      24.190 -17.112  -1.650  0.00  0.00     0.037 C 
ENDBRANCH   1  16
TORSDOF 4
ENDMDL
MODEL 4
REMARK VINA RESULT:    -6.784      4.312      6.329
REMARK INTER + INTRA:          -8.726
REMARK INTER:                  -7.977
REMARK INTRA:                  -0.750
REMARK CONF_INDEPENDENT:        1.193
REMARK UNBOUND:                -0.750
REMARK  4 active torsions:
REMARK  status: ('A' for Active; 'I' for Inactive)
REMARK    1  A    between atoms: C_7  and  N_8 
REMARK       I    between atoms: N_8  and  C_9 
REMARK    2  A    between atoms: C_9  and  C_11 
REMARK    3  A    between atoms: C_14  and  C_15 
REMARK    4  A    between atoms: C_15  and  N_16 
ROOT
ATOM      1  N   UNL d   1      24.443 -15.518  -2.206  0.00  0.00    -0.322 N 
ATOM      2  C   UNL d   1      24.934 -14.627  -3.145  0.00  0.00     0.256 C 
ATOM      3  O   UNL d   1      24.299 -13.601  -3.409  0.00  0.00    -0.267 OA
ATOM      4  H   UNL d   1      23.434 -15.509  -2.123  0.00  0.00     0.169 HD
ENDROOT
BRANCH   2   5
ATOM      5  C   UNL d   1      26.186 -14.942  -3.913  0.00  0.00     0.032 C 
ATOM      6  C   UNL d   1      26.283 -14.592  -5.263  0.00  0.00     0.018 C 
ATOM      7  C   UNL d   1      27.475 -14.825  -5.973  0.00  0.00     0.015 C 
ATOM      8  C   UNL d   1      28.609 -15.364  -5.338  0.00  0.00     0.001 C 
ATOM      9  C   UNL d   1      28.497 -15.708  -3.989  0.00  0.00     0.015 C 
ATOM     10  C   UNL d   1      27.283 -15.575  -3.318  0.00  0.00     0.018 C 
BRANCH   8  11
ATOM     11  C   UNL d   1      29.900 -15.610  -6.061  0.00  0.00     0.104 C 
ATOM     12  S   UNL d   1      31.041 -16.778  -5.675  0.00  0.00    -0.060 SA
BRANCH  11  13
ATOM     13  N   UNL d   1      30.186 -14.830  -7.151  0.00  0.00    -0.390 N 
ATOM     14  H   UNL d   1      29.675 -14.824  -8.020  0.00  0.00     0.157 HD
ATOM     15  H   UNL d   1      31.002 -14.230  -7.098  0.00  0.00     0.157 HD
ENDBRANCH  11  13
ENDBRANCH   8  11
ENDBRANCH   2   5
BRANCH   1  16
ATOM     16  C   UNL d   1      25.171 -16.206  -1.202  0.00  0.00     0.041 C 
ATOM     17  C   UNL d   1      24.846 -17.525  -0.851  0.00  0.00    -0.035 C 
ATOM     18  C   UNL d   1      25.673 -18.199   0.068  0.00  0.00     0.009 C 
ATOM     19  C   UNL d   1      23.655 -18.246  -1.419  0.00  0.00     0.050 C 
ATOM     20  C   UNL d   1      26.810 -17.591   0.609  0.00  0.00     0.007 C 
ATOM     21  C   UNL d   1      27.112 -16.274   0.290  0.00  0.00    -0.060 C 
ATOM     22  C   UNL d   1      28.353 -15.587   0.772  0.00  0.00     0.048 C 
ATOM     23  C   UNL d   1      26.242 -15.579  -0.548  0.00  0.00     0.037 C 
ENDBRANCH   1  16
TORSDOF 4
ENDMDL
MODEL 5
REMARK VINA RESULT:    -6.768      3.024      6.130
REMARK INTER + INTRA:          -9.029
REMARK INTER:                  -7.962
REMARK INTRA:                  -1.067
REMARK CONF_INDEPENDENT:        1.193
REMARK UNBOUND:                -1.067
REMARK  4 active torsions:
REMARK  status: ('A' for Active; 'I' for Inactive)
REMARK    1  A    between atoms: C_7  and  N_8 
REMARK       I    between atoms: N_8  and  C_9 
REMARK    2  A    between atoms: C_9  and  C_11 
REMARK    3  A    between atoms: C_14  and  C_15 
REMARK    4  A    between atoms: C_15  and  N_16 
ROOT
ATOM      1  N   UNL d   1      28.816 -14.981  -0.352  0.00  0.00    -0.322 N 
ATOM      2  C   UNL d   1      28.613 -16.308  -0.690  0.00  0.00     0.256 C 
ATOM      3  O   UNL d   1      29.563 -16.996  -1.077  0.00  0.00    -0.267 OA
ATOM      4  H   UNL d   1      29.590 -14.549  -0.841  0.00  0.00     0.169 HD
ENDROOT
BRANCH   2   5
ATOM      5  C   UNL d   1      27.230 -16.895  -0.679  0.00  0.00     0.032 C 
ATOM      6  C   UNL d   1      26.833 -17.724   0.374  0.00  0.00     0.018 C 
ATOM      7  C   UNL d   1      25.519 -18.225   0.426  0.00  0.00     0.015 C 
ATOM      8  C   UNL d   1      24.563 -17.868  -0.543  0.00  0.00     0.001 C 
ATOM      9  C   UNL d   1      24.975 -17.038  -1.587  0.00  0.00     0.015 C 
ATOM     10  C   UNL d   1      26.303 -16.632  -1.693  0.00  0.00     0.018 C 
BRANCH   8  11
ATOM     11  C   UNL d   1      23.151 -18.371  -0.508  0.00  0.00     0.104 C 
ATOM     12  S   UNL d   1      21.777 -17.488  -0.895  0.00  0.00    -0.060 SA
BRANCH  11  13
ATOM     13  N   UNL d   1      22.940 -19.676  -0.145  0.00  0.00    -0.390 N 
ATOM     14  H   UNL d   1      23.501 -20.464  -0.432  0.00  0.00     0.157 HD
ATOM     15  H   UNL d   1      22.133 -19.879   0.433  0.00  0.00     0.157 HD
ENDBRANCH  11  13
ENDBRANCH   8  11
ENDBRANCH   2   5
BRANCH   1  16
ATOM     16  C   UNL d   1      28.266 -14.274   0.748  0.00  0.00     0.041 C 
ATOM     17  C   UNL d   1      27.207 -13.372   0.568  0.00  0.00    -0.035 C 
ATOM     18  C   UNL d   1      26.624 -12.785   1.708  0.00  0.00     0.009 C 
ATOM     19  C   UNL d   1      26.669 -13.011  -0.788  0.00  0.00     0.050 C 
ATOM     20  C   UNL d   1      27.063 -13.103   2.998  0.00  0.00     0.007 C 
ATOM     21  C   UNL d   1      28.134 -13.967   3.173  0.00  0.00    -0.060 C 
ATOM     22  C   UNL d   1      28.606 -14.409   4.526  0.00  0.00     0.048 C 
ATOM     23  C   UNL d   1      28.768 -14.475   2.042  0.00  0.00     0.037 C 
ENDBRANCH   1  16
TORSDOF 4
ENDMDL
MODEL 6
REMARK VINA RESULT:    -6.673      4.205      6.267
REMARK INTER + INTRA:          -8.707
REMARK INTER:                  -7.866
REMARK INTRA:                  -0.842
REMARK CONF_INDEPENDENT:        1.193
REMARK UNBOUND:                -0.842
REMARK  4 active torsions:
REMARK  status: ('A' for Active; 'I' for Inactive)
REMARK    1  A    between atoms: C_7  and  N_8 
REMARK       I    between atoms: N_8  and  C_9 
REMARK    2  A    between atoms: C_9  and  C_11 
REMARK    3  A    between atoms: C_14  and  C_15 
REMARK    4  A    between atoms: C_15  and  N_16 
ROOT
ATOM      1  N   UNL d   1      25.470 -12.838  -4.586  0.00  0.00    -0.322 N 
ATOM      2  C   UNL d   1      24.718 -13.714  -3.821  0.00  0.00     0.256 C 
ATOM      3  O   UNL d   1      23.486 -13.702  -3.906  0.00  0.00    -0.267 OA
ATOM      4  H   UNL d   1      24.984 -11.981  -4.821  0.00  0.00     0.169 HD
ENDROOT
BRANCH   2   5
ATOM      5  C   UNL d   1      25.383 -14.614  -2.818  0.00  0.00     0.032 C 
ATOM      6  C   UNL d   1      24.788 -15.829  -2.470  0.00  0.00     0.018 C 
ATOM      7  C   UNL d   1      25.435 -16.708  -1.582  0.00  0.00     0.015 C 
ATOM      8  C   UNL d   1      26.710 -16.414  -1.065  0.00  0.00     0.001 C 
ATOM      9  C   UNL d   1      27.292 -15.197  -1.423  0.00  0.00     0.015 C 
ATOM     10  C   UNL d   1      26.602 -14.283  -2.216  0.00  0.00     0.018 C 
BRANCH   8  11
ATOM     11  C   UNL d   1      27.434 -17.336  -0.129  0.00  0.00     0.104 C 
ATOM     12  S   UNL d   1      26.725 -18.366   0.990  0.00  0.00    -0.060 SA
BRANCH  11  13
ATOM     13  N   UNL d   1      28.804 -17.368  -0.188  0.00  0.00    -0.390 N 
ATOM     14  H   UNL d   1      29.365 -17.059  -0.967  0.00  0.00     0.157 HD
ATOM     15  H   UNL d   1      29.299 -17.767   0.601  0.00  0.00     0.157 HD
ENDBRANCH  11  13
ENDBRANCH   8  11
ENDBRANCH   2   5
BRANCH   1  16
ATOM     16  C   UNL d   1      26.678 -13.111  -5.276  0.00  0.00     0.041 C 
ATOM     17  C   UNL d   1      27.334 -12.108  -6.005  0.00  0.00    -0.035 C 
ATOM     18  C   UNL d   1      28.588 -12.403  -6.575  0.00  0.00     0.009 C 
ATOM     19  C   UNL d   1      26.755 -10.734  -6.199  0.00  0.00     0.050 C 
ATOM     20  C   UNL d   1      29.191 -13.654  -6.406  0.00  0.00     0.007 C 
ATOM     21  C   UNL d   1      28.526 -14.657  -5.716  0.00  0.00    -0.060 C 
ATOM     22  C   UNL d   1      29.143 -15.993  -5.433  0.00  0.00     0.048 C 
ATOM     23  C   UNL d   1      27.246 -14.393  -5.232  0.00  0.00     0.037 C 
ENDBRANCH   1  16
TORSDOF 4
ENDMDL
MODEL 7
REMARK VINA RESULT:    -6.224      5.385      9.725
REMARK INTER + INTRA:          -8.278
REMARK INTER:                  -7.417
REMARK INTRA:                  -0.860
REMARK CONF_INDEPENDENT:        1.193
REMARK UNBOUND:                -0.860
REMARK  4 active torsions:
REMARK  status: ('A' for Active; 'I' for Inactive)
REMARK    1  A    between atoms: C_7  and  N_8 
REMARK       I    between atoms: N_8  and  C_9 
REMARK    2  A    between atoms: C_9  and  C_11 
REMARK    3  A    between atoms: C_14  and  C_15 
REMARK    4  A    between atoms: C_15  and  N_16 
ROOT
ATOM      1  N   UNL d   1      29.284 -11.580   9.922  0.00  0.00    -0.322 N 
ATOM      2  C   UNL d   1      29.291 -10.953   8.687  0.00  0.00     0.256 C 
ATOM      3  O   UNL d   1      29.589  -9.757   8.608  0.00  0.00    -0.267 OA
ATOM      4  H   UNL d   1      29.093 -10.956  10.696  0.00  0.00     0.169 HD
ENDROOT
BRANCH   2   5
ATOM      5  C   UNL d   1      28.850 -11.690   7.455  0.00  0.00     0.032 C 
ATOM      6  C   UNL d   1      28.521 -10.980   6.297  0.00  0.00     0.018 C 
ATOM      7  C   UNL d   1      28.169 -11.665   5.120  0.00  0.00     0.015 C 
ATOM      8  C   UNL d   1      28.188 -13.070   5.060  0.00  0.00     0.001 C 
ATOM      9  C   UNL d   1      28.520 -13.766   6.224  0.00  0.00     0.015 C 
ATOM     10  C   UNL d   1      28.763 -13.087   7.416  0.00  0.00     0.018 C 
BRANCH   8  11
ATOM     11  C   UNL d   1      27.835 -13.831   3.817  0.00  0.00     0.104 C 
ATOM     12  S   UNL d   1      26.885 -13.271   2.551  0.00  0.00    -0.060 SA
BRANCH  11  13
ATOM     13  N   UNL d   1      28.336 -15.099   3.673  0.00  0.00    -0.390 N 
ATOM     14  H   UNL d   1      28.894 -15.591   4.354  0.00  0.00     0.157 HD
ATOM     15  H   UNL d   1      28.166 -15.574   2.794  0.00  0.00     0.157 HD
ENDBRANCH  11  13
ENDBRANCH   8  11
ENDBRANCH   2   5
BRANCH   1  16
ATOM     16  C   UNL d   1      29.763 -12.877  10.236  0.00  0.00     0.041 C 
ATOM     17  C   UNL d   1      28.879 -13.904  10.599  0.00  0.00    -0.035 C 
ATOM     18  C   UNL d   1      29.397 -15.201  10.788  0.00  0.00     0.009 C 
ATOM     19  C   UNL d   1      27.405 -13.678  10.790  0.00  0.00     0.050 C 
ATOM     20  C   UNL d   1      30.754 -15.480  10.598  0.00  0.00     0.007 C 
ATOM     21  C   UNL d   1      31.634 -14.457  10.274  0.00  0.00    -0.060 C 
ATOM     22  C   UNL d   1      33.084 -14.697   9.982  0.00  0.00     0.048 C 
ATOM     23  C   UNL d   1      31.136 -13.159  10.177  0.00  0.00     0.037 C 
ENDBRANCH   1  16
TORSDOF 4
ENDMDL
MODEL 8
REMARK VINA RESULT:    -6.199      4.015      5.468
REMARK INTER + INTRA:          -8.366
REMARK INTER:                  -7.393
REMARK INTRA:                  -0.973
REMARK CONF_INDEPENDENT:        1.193
REMARK UNBOUND:                -0.973
REMARK  4 active torsions:
REMARK  status: ('A' for Active; 'I' for Inactive)
REMARK    1  A    between atoms: C_7  and  N_8 
REMARK       I    between atoms: N_8  and  C_9 
REMARK    2  A    between atoms: C_9  and  C_11 
REMARK    3  A    between atoms: C_14  and  C_15 
REMARK    4  A    between atoms: C_15  and  N_16 
ROOT
ATOM      1  N   UNL d   1      27.814 -15.950  -3.566  0.00  0.00    -0.322 N 
ATOM      2  C   UNL d   1      27.426 -15.003  -4.498  0.00  0.00     0.256 C 
ATOM      3  O   UNL d   1      27.532 -15.248  -5.704  0.00  0.00    -0.267 OA
ATOM      4  H   UNL d   1      28.541 -16.574  -3.896  0.00  0.00     0.169 HD
ENDROOT
BRANCH   2   5
ATOM      5  C   UNL d   1      26.963 -13.644  -4.057  0.00  0.00     0.032 C 
ATOM      6  C   UNL d   1      27.659 -12.961  -3.056  0.00  0.00     0.018 C 
ATOM      7  C   UNL d   1      27.272 -11.661  -2.681  0.00  0.00     0.015 C 
ATOM      8  C   UNL d   1      26.216 -10.999  -3.333  0.00  0.00     0.001 C 
ATOM      9  C   UNL d   1      25.530 -11.694  -4.331  0.00  0.00     0.015 C 
ATOM     10  C   UNL d   1      25.848 -13.017  -4.625  0.00  0.00     0.018 C 
BRANCH   8  11
ATOM     11  C   UNL d   1      25.788  -9.608  -2.970  0.00  0.00     0.104 C 
ATOM     12  S   UNL d   1      26.442  -8.660  -1.749  0.00  0.00    -0.060 SA
BRANCH  11  13
ATOM     13  N   UNL d   1      24.781  -9.032  -3.701  0.00  0.00    -0.390 N 
ATOM     14  H   UNL d   1      24.365  -8.132  -3.520  0.00  0.00     0.157 HD
ATOM     15  H   UNL d   1      24.394  -9.567  -4.470  0.00  0.00     0.157 HD
ENDBRANCH  11  13
ENDBRANCH   8  11
ENDBRANCH   2   5
BRANCH   1  16
ATOM     16  C   UNL d   1      27.150 -16.304  -2.364  0.00  0.00     0.041 C 
ATOM     17  C   UNL d   1      27.876 -16.593  -1.198  0.00  0.00    -0.035 C 
ATOM     18  C   UNL d   1      27.165 -16.825  -0.005  0.00  0.00     0.009 C 
ATOM     19  C   UNL d   1      29.378 -16.661  -1.172  0.00  0.00     0.050 C 
ATOM     20  C   UNL d   1      25.769 -16.748   0.040  0.00  0.00     0.007 C 
ATOM     21  C   UNL d   1      25.050 -16.498  -1.120  0.00  0.00    -0.060 C 
ATOM     22  C   UNL d   1      23.561 -16.327  -1.130  0.00  0.00     0.048 C 
ATOM     23  C   UNL d   1      25.750 -16.359  -2.317  0.00  0.00     0.037 C 
ENDBRANCH   1  16
TORSDOF 4
ENDMDL
MODEL 9
REMARK VINA RESULT:    -6.125      3.912      6.080
REMARK INTER + INTRA:          -8.289
REMARK INTER:                  -7.318
REMARK INTRA:                  -0.971
REMARK CONF_INDEPENDENT:        1.193
REMARK UNBOUND:                -0.971
REMARK  4 active torsions:
REMARK  status: ('A' for Active; 'I' for Inactive)
REMARK    1  A    between atoms: C_7  and  N_8 
REMARK       I    between atoms: N_8  and  C_9 
REMARK    2  A    between atoms: C_9  and  C_11 
REMARK    3  A    between atoms: C_14  and  C_15 
REMARK    4  A    between atoms: C_15  and  N_16 
ROOT
ATOM      1  N   UNL d   1      29.778 -16.299  -0.834  0.00  0.00    -0.322 N 
ATOM      2  C   UNL d   1      28.687 -15.909  -0.075  0.00  0.00     0.256 C 
ATOM      3  O   UNL d   1      28.828 -15.069   0.819  0.00  0.00    -0.267 OA
ATOM      4  H   UNL d   1      30.663 -16.216  -0.348  0.00  0.00     0.169 HD
ENDROOT
BRANCH   2   5
ATOM      5  C   UNL d   1      27.350 -16.569  -0.268  0.00  0.00     0.032 C 
ATOM      6  C   UNL d   1      26.956 -17.607   0.581  0.00  0.00     0.018 C 
ATOM      7  C   UNL d   1      25.681 -18.186   0.449  0.00  0.00     0.015 C 
ATOM      8  C   UNL d   1      24.757 -17.708  -0.497  0.00  0.00     0.001 C 
ATOM      9  C   UNL d   1      25.165 -16.669  -1.337  0.00  0.00     0.015 C 
ATOM     10  C   UNL d   1      26.464 -16.171  -1.275  0.00  0.00     0.018 C 
BRANCH   8  11
ATOM     11  C   UNL d   1      23.384 -18.291  -0.653  0.00  0.00     0.104 C 
ATOM     12  S   UNL d   1      21.965 -17.429  -0.895  0.00  0.00    -0.060 SA
BRANCH  11  13
ATOM     13  N   UNL d   1      23.255 -19.656  -0.614  0.00  0.00    -0.390 N 
ATOM     14  H   UNL d   1      23.275 -20.271  -1.413  0.00  0.00     0.157 HD
ATOM     15  H   UNL d   1      23.091 -20.086   0.289  0.00  0.00     0.157 HD
ENDBRANCH  11  13
ENDBRANCH   8  11
ENDBRANCH   2   5
BRANCH   1  16
ATOM     16  C   UNL d   1      29.822 -16.523  -2.233  0.00  0.00     0.041 C 
ATOM     17  C   UNL d   1      30.469 -17.650  -2.762  0.00  0.00    -0.035 C 
ATOM     18  C   UNL d   1      30.384 -17.884  -4.148  0.00  0.00     0.009 C 
ATOM     19  C   UNL d   1      31.243 -18.617  -1.910  0.00  0.00     0.050 C 
ATOM     20  C   UNL d   1      29.655 -17.037  -4.989  0.00  0.00     0.007 C 
ATOM     21  C   UNL d   1      29.046 -15.902  -4.471  0.00  0.00    -0.060 C 
ATOM     22  C   UNL d   1      28.188 -14.994  -5.299  0.00  0.00     0.048 C 
ATOM     23  C   UNL d   1      29.208 -15.623  -3.116  0.00  0.00     0.037 C 
ENDBRANCH   1  16
TORSDOF 4
ENDMDL
