MODEL 1
REMARK VINA RESULT:    -8.109      0.000      0.000
REMARK INTER + INTRA:         -10.005
REMARK INTER:                  -9.302
REMARK INTRA:                  -0.703
REMARK CONF_INDEPENDENT:        1.193
REMARK UNBOUND:                -0.703
REMARK  4 active torsions:
REMARK  status: ('A' for Active; 'I' for Inactive)
REMARK    1  A    between atoms: C_2  and  C_4 
REMARK    2  A    between atoms: C_4  and  C_5 
REMARK       I    between atoms: C_5  and  N_7 
REMARK    3  A    between atoms: N_7  and  N_8 
REMARK       I    between atoms: N_8  and  C_9 
REMARK    4  A    between atoms: C_9  and  C_11 
ROOT
ATOM      1  N   UNL d   1      22.652 -18.822   0.230  0.00  0.00    -0.263 N 
ATOM      2  C   UNL d   1      23.358 -18.557  -0.938  0.00  0.00     0.277 C 
ATOM      3  O   UNL d   1      22.931 -18.950  -2.031  0.00  0.00    -0.265 OA
ATOM      4  H   UNL d   1      22.907 -18.427   1.134  0.00  0.00     0.190 HD
ENDROOT
BRANCH   1   5
ATOM      5  N   UNL d   1      21.423 -19.546   0.192  0.00  0.00    -0.267 N 
ATOM      6  C   UNL d   1      20.355 -18.967  -0.472  0.00  0.00     0.236 C 
ATOM      7  O   UNL d   1      20.493 -17.890  -1.055  0.00  0.00    -0.272 OA
ATOM      8  H   UNL d   1      21.412 -20.466   0.628  0.00  0.00     0.190 HD
BRANCH   6   9
ATOM      9  C   UNL d   1      19.024 -19.738  -0.424  0.00  0.00     0.108 C 
BRANCH   9  10
ATOM     10  C   UNL d   1      18.977 -20.800   0.705  0.00  0.00    -0.014 C 
ATOM     11  C   UNL d   1      19.153 -20.172   2.095  0.00  0.00     0.010 C 
ATOM     12  C   UNL d   1      17.655 -21.575   0.697  0.00  0.00     0.010 C 
ENDBRANCH   9  10
ENDBRANCH   6   9
ENDBRANCH   1   5
BRANCH   2  13
ATOM     13  C   UNL d   1      24.609 -17.817  -0.769  0.00  0.00     0.074 A 
ATOM     14  C   UNL d   1      25.108 -16.752  -1.502  0.00  0.00     0.025 A 
ATOM     15  C   UNL d   1      26.355 -16.263  -1.003  0.00  0.00     0.009 A 
ATOM     16  C   UNL d   1      26.788 -16.978   0.091  0.00  0.00     0.050 A 
ATOM     17  S   UNL d   1      25.668 -18.198   0.533  0.00  0.00    -0.097 SA
ENDBRANCH   2  13
TORSDOF 4
ENDMDL
MODEL 2
REMARK VINA RESULT:    -7.130      1.970      6.588
REMARK INTER + INTRA:          -9.773
REMARK INTER:                  -8.323
REMARK INTRA:                  -1.450
REMARK CONF_INDEPENDENT:        1.193
REMARK UNBOUND:                -1.450
REMARK  4 active torsions:
REMARK  status: ('A' for Active; 'I' for Inactive)
REMARK    1  A    between atoms: C_2  and  C_4 
REMARK    2  A    between atoms: C_4  and  C_5 
REMARK       I    between atoms: C_5  and  N_7 
REMARK    3  A    between atoms: N_7  and  N_8 
REMARK       I    between atoms: N_8  and  C_9 
REMARK    4  A    between atoms: C_9  and  C_11 
ROOT
ATOM      1  N   UNL d   1      21.890 -19.061  -0.267  0.00  0.00    -0.263 N 
ATOM      2  C   UNL d   1      20.682 -19.570  -0.729  0.00  0.00     0.277 C 
ATOM      3  O   UNL d   1      20.433 -19.590  -1.941  0.00  0.00    -0.265 OA
ATOM      4  H   UNL d   1      22.182 -19.124   0.707  0.00  0.00     0.190 HD
ENDROOT
BRANCH   1   5
ATOM      5  N   UNL d   1      22.867 -18.557  -1.178  0.00  0.00    -0.267 N 
ATOM      6  C   UNL d   1      24.033 -18.035  -0.648  0.00  0.00     0.236 C 
ATOM      7  O   UNL d   1      24.233 -18.064   0.568  0.00  0.00    -0.272 OA
ATOM      8  H   UNL d   1      22.663 -18.643  -2.172  0.00  0.00     0.190 HD
BRANCH   6   9
ATOM      9  C   UNL d   1      25.028 -17.428  -1.653  0.00  0.00     0.108 C 
BRANCH   9  10
ATOM     10  C   UNL d   1      26.285 -16.825  -0.975  0.00  0.00    -0.014 C 
ATOM     11  C   UNL d   1      25.950 -15.575  -0.147  0.00  0.00     0.010 C 
ATOM     12  C   UNL d   1      26.969 -17.838  -0.050  0.00  0.00     0.010 C 
ENDBRANCH   9  10
ENDBRANCH   6   9
ENDBRANCH   1   5
BRANCH   2  13
ATOM     13  C   UNL d   1      19.758 -20.046   0.301  0.00  0.00     0.074 A 
ATOM     14  C   UNL d   1      18.620 -20.825   0.170  0.00  0.00     0.025 A 
ATOM     15  C   UNL d   1      17.998 -21.124   1.423  0.00  0.00     0.009 A 
ATOM     16  C   UNL d   1      18.668 -20.551   2.480  0.00  0.00     0.050 A 
ATOM     17  S   UNL d   1      20.062 -19.700   1.959  0.00  0.00    -0.097 SA
ENDBRANCH   2  13
TORSDOF 4
ENDMDL
MODEL 3
REMARK VINA RESULT:    -7.125      2.023      6.631
REMARK INTER + INTRA:          -9.854
REMARK INTER:                  -8.319
REMARK INTRA:                  -1.535
REMARK CONF_INDEPENDENT:        1.193
REMARK UNBOUND:                -1.535
REMARK  4 active torsions:
REMARK  status: ('A' for Active; 'I' for Inactive)
REMARK    1  A    between atoms: C_2  and  C_4 
REMARK    2  A    between atoms: C_4  and  C_5 
REMARK       I    between atoms: C_5  and  N_7 
REMARK    3  A    between atoms: N_7  and  N_8 
REMARK       I    between atoms: N_8  and  C_9 
REMARK    4  A    between atoms: C_9  and  C_11 
ROOT
ATOM      1  N   UNL d   1      22.139 -18.977  -0.077  0.00  0.00    -0.263 N 
ATOM      2  C   UNL d   1      20.921 -19.393  -0.603  0.00  0.00     0.277 C 
ATOM      3  O   UNL d   1      20.709 -19.325  -1.821  0.00  0.00    -0.265 OA
ATOM      4  H   UNL d   1      22.397 -19.115   0.899  0.00  0.00     0.190 HD
ENDROOT
BRANCH   1   5
ATOM      5  N   UNL d   1      23.167 -18.470  -0.926  0.00  0.00    -0.267 N 
ATOM      6  C   UNL d   1      24.351 -18.066  -0.335  0.00  0.00     0.236 C 
ATOM      7  O   UNL d   1      24.518 -18.200   0.879  0.00  0.00    -0.272 OA
ATOM      8  H   UNL d   1      22.982 -18.466  -1.928  0.00  0.00     0.190 HD
BRANCH   6   9
ATOM      9  C   UNL d   1      25.406 -17.450  -1.271  0.00  0.00     0.108 C 
BRANCH   9  10
ATOM     10  C   UNL d   1      25.241 -15.918  -1.447  0.00  0.00    -0.014 C 
ATOM     11  C   UNL d   1      26.157 -15.127  -0.502  0.00  0.00     0.010 C 
ATOM     12  C   UNL d   1      25.545 -15.479  -2.883  0.00  0.00     0.010 C 
ENDBRANCH   9  10
ENDBRANCH   6   9
ENDBRANCH   1   5
BRANCH   2  13
ATOM     13  C   UNL d   1      19.943 -19.883   0.369  0.00  0.00     0.074 A 
ATOM     14  C   UNL d   1      18.781 -20.607   0.159  0.00  0.00     0.025 A 
ATOM     15  C   UNL d   1      18.103 -20.943   1.372  0.00  0.00     0.009 A 
ATOM     16  C   UNL d   1      18.756 -20.453   2.480  0.00  0.00     0.050 A 
ATOM     17  S   UNL d   1      20.201 -19.635   2.052  0.00  0.00    -0.097 SA
ENDBRANCH   2  13
TORSDOF 4
ENDMDL
MODEL 4
REMARK VINA RESULT:    -7.053      1.546      1.999
REMARK INTER + INTRA:          -9.787
REMARK INTER:                  -8.246
REMARK INTRA:                  -1.541
REMARK CONF_INDEPENDENT:        1.193
REMARK UNBOUND:                -1.541
REMARK  4 active torsions:
REMARK  status: ('A' for Active; 'I' for Inactive)
REMARK    1  A    between atoms: C_2  and  C_4 
REMARK    2  A    between atoms: C_4  and  C_5 
REMARK       I    between atoms: C_5  and  N_7 
REMARK    3  A    between atoms: N_7  and  N_8 
REMARK       I    between atoms: N_8  and  C_9 
REMARK    4  A    between atoms: C_9  and  C_11 
ROOT
ATOM      1  N   UNL d   1      23.000 -17.868  -0.543  0.00  0.00    -0.263 N 
ATOM      2  C   UNL d   1      24.378 -17.922  -0.368  0.00  0.00     0.277 C 
ATOM      3  O   UNL d   1      24.915 -18.950   0.064  0.00  0.00    -0.265 OA
ATOM      4  H   UNL d   1      22.529 -17.086  -0.996  0.00  0.00     0.190 HD
ENDROOT
BRANCH   1   5
ATOM      5  N   UNL d   1      22.179 -18.994  -0.232  0.00  0.00    -0.267 N 
ATOM      6  C   UNL d   1      20.852 -18.950  -0.622  0.00  0.00     0.236 C 
ATOM      7  O   UNL d   1      20.422 -17.991  -1.266  0.00  0.00    -0.272 OA
ATOM      8  H   UNL d   1      22.628 -19.782   0.230  0.00  0.00     0.190 HD
BRANCH   6   9
ATOM      9  C   UNL d   1      19.978 -20.145  -0.201  0.00  0.00     0.108 C 
BRANCH   9  10
ATOM     10  C   UNL d   1      19.153 -19.870   1.083  0.00  0.00    -0.014 C 
ATOM     11  C   UNL d   1      18.114 -20.970   1.348  0.00  0.00     0.010 C 
ATOM     12  C   UNL d   1      20.051 -19.758   2.319  0.00  0.00     0.010 C 
ENDBRANCH   9  10
ENDBRANCH   6   9
ENDBRANCH   1   5
BRANCH   2  13
ATOM     13  C   UNL d   1      25.110 -16.702  -0.710  0.00  0.00     0.074 A 
ATOM     14  C   UNL d   1      26.256 -16.174  -0.138  0.00  0.00     0.025 A 
ATOM     15  C   UNL d   1      26.702 -14.977  -0.780  0.00  0.00     0.009 A 
ATOM     16  C   UNL d   1      25.875 -14.609  -1.817  0.00  0.00     0.050 A 
ATOM     17  S   UNL d   1      24.599 -15.733  -2.037  0.00  0.00    -0.097 SA
ENDBRANCH   2  13
TORSDOF 4
ENDMDL
MODEL 5
REMARK VINA RESULT:    -7.016      2.345      6.826
REMARK INTER + INTRA:          -9.538
REMARK INTER:                  -8.210
REMARK INTRA:                  -1.328
REMARK CONF_INDEPENDENT:        1.193
REMARK UNBOUND:                -1.328
REMARK  4 active torsions:
REMARK  status: ('A' for Active; 'I' for Inactive)
REMARK    1  A    between atoms: C_2  and  C_4 
REMARK    2  A    between atoms: C_4  and  C_5 
REMARK       I    between atoms: C_5  and  N_7 
REMARK    3  A    between atoms: N_7  and  N_8 
REMARK       I    between atoms: N_8  and  C_9 
REMARK    4  A    between atoms: C_9  and  C_11 
ROOT
ATOM      1  N   UNL d   1      22.123 -18.843  -0.007  0.00  0.00    -0.263 N 
ATOM      2  C   UNL d   1      20.934 -19.350  -0.519  0.00  0.00     0.277 C 
ATOM      3  O   UNL d   1      20.716 -19.325  -1.737  0.00  0.00    -0.265 OA
ATOM      4  H   UNL d   1      22.391 -18.941   0.972  0.00  0.00     0.190 HD
ENDROOT
BRANCH   1   5
ATOM      5  N   UNL d   1      23.115 -18.291  -0.872  0.00  0.00    -0.267 N 
ATOM      6  C   UNL d   1      24.340 -17.962  -0.320  0.00  0.00     0.236 C 
ATOM      7  O   UNL d   1      24.572 -18.198   0.868  0.00  0.00    -0.272 OA
ATOM      8  H   UNL d   1      22.874 -18.202  -1.857  0.00  0.00     0.190 HD
BRANCH   6   9
ATOM      9  C   UNL d   1      25.357 -17.295  -1.263  0.00  0.00     0.108 C 
BRANCH   9  10
ATOM     10  C   UNL d   1      26.606 -16.751  -0.523  0.00  0.00    -0.014 C 
ATOM     11  C   UNL d   1      27.405 -17.870   0.160  0.00  0.00     0.010 C 
ATOM     12  C   UNL d   1      27.548 -16.007  -1.476  0.00  0.00     0.010 C 
ENDBRANCH   9  10
ENDBRANCH   6   9
ENDBRANCH   1   5
BRANCH   2  13
ATOM     13  C   UNL d   1      19.992 -19.878   0.468  0.00  0.00     0.074 A 
ATOM     14  C   UNL d   1      20.071 -19.873   1.851  0.00  0.00     0.025 A 
ATOM     15  C   UNL d   1      18.924 -20.450   2.480  0.00  0.00     0.009 A 
ATOM     16  C   UNL d   1      18.002 -20.898   1.561  0.00  0.00     0.050 A 
ATOM     17  S   UNL d   1      18.506 -20.578  -0.047  0.00  0.00    -0.097 SA
ENDBRANCH   2  13
TORSDOF 4
ENDMDL
MODEL 6
REMARK VINA RESULT:    -6.399      2.353      6.664
REMARK INTER + INTRA:          -8.224
REMARK INTER:                  -7.593
REMARK INTRA:                  -0.631
REMARK CONF_INDEPENDENT:        1.193
REMARK UNBOUND:                -0.631
REMARK  4 active torsions:
REMARK  status: ('A' for Active; 'I' for Inactive)
REMARK    1  A    between atoms: C_2  and  C_4 
REMARK    2  A    between atoms: C_4  and  C_5 
REMARK       I    between atoms: C_5  and  N_7 
REMARK    3  A    between atoms: N_7  and  N_8 
REMARK       I    between atoms: N_8  and  C_9 
REMARK    4  A    between atoms: C_9  and  C_11 
ROOT
ATOM      1  N   UNL d   1      23.187 -18.593   0.111  0.00  0.00    -0.263 N 
ATOM      2  C   UNL d   1      22.183 -18.994  -0.763  0.00  0.00     0.277 C 
ATOM      3  O   UNL d   1      22.364 -18.950  -1.986  0.00  0.00    -0.265 OA
ATOM      4  H   UNL d   1      23.124 -18.713   1.121  0.00  0.00     0.190 HD
ENDROOT
BRANCH   1   5
ATOM      5  N   UNL d   1      24.443 -18.128  -0.383  0.00  0.00    -0.267 N 
ATOM      6  C   UNL d   1      24.537 -16.798  -0.754  0.00  0.00     0.236 C 
ATOM      7  O   UNL d   1      23.577 -16.040  -0.603  0.00  0.00    -0.272 OA
ATOM      8  H   UNL d   1      25.211 -18.797  -0.401  0.00  0.00     0.190 HD
BRANCH   6   9
ATOM      9  C   UNL d   1      25.881 -16.352  -1.357  0.00  0.00     0.108 C 
BRANCH   9  10
ATOM     10  C   UNL d   1      25.745 -15.799  -2.799  0.00  0.00    -0.014 C 
ATOM     11  C   UNL d   1      24.866 -14.541  -2.855  0.00  0.00     0.010 C 
ATOM     12  C   UNL d   1      27.111 -15.452  -3.402  0.00  0.00     0.010 C 
ENDBRANCH   9  10
ENDBRANCH   6   9
ENDBRANCH   1   5
BRANCH   2  13
ATOM     13  C   UNL d   1      20.938 -19.439  -0.138  0.00  0.00     0.074 A 
ATOM     14  C   UNL d   1      20.655 -19.661   1.200  0.00  0.00     0.025 A 
ATOM     15  C   UNL d   1      19.299 -20.053   1.429  0.00  0.00     0.009 A 
ATOM     16  C   UNL d   1      18.582 -20.137   0.257  0.00  0.00     0.050 A 
ATOM     17  S   UNL d   1      19.535 -19.700  -1.099  0.00  0.00    -0.097 SA
ENDBRANCH   2  13
TORSDOF 4
ENDMDL
MODEL 7
REMARK VINA RESULT:    -5.846      2.766      3.488
REMARK INTER + INTRA:          -8.421
REMARK INTER:                  -7.039
REMARK INTRA:                  -1.382
REMARK CONF_INDEPENDENT:        1.193
REMARK UNBOUND:                -1.382
REMARK  4 active torsions:
REMARK  status: ('A' for Active; 'I' for Inactive)
REMARK    1  A    between atoms: C_2  and  C_4 
REMARK    2  A    between atoms: C_4  and  C_5 
REMARK       I    between atoms: C_5  and  N_7 
REMARK    3  A    between atoms: N_7  and  N_8 
REMARK       I    between atoms: N_8  and  C_9 
REMARK    4  A    between atoms: C_9  and  C_11 
ROOT
ATOM      1  N   UNL d   1      24.044 -16.800  -1.534  0.00  0.00    -0.263 N 
ATOM      2  C   UNL d   1      24.994 -15.801  -1.349  0.00  0.00     0.277 C 
ATOM      3  O   UNL d   1      25.233 -15.368  -0.214  0.00  0.00    -0.265 OA
ATOM      4  H   UNL d   1      23.893 -17.261  -2.431  0.00  0.00     0.190 HD
ENDROOT
BRANCH   1   5
ATOM      5  N   UNL d   1      23.333 -17.347  -0.425  0.00  0.00    -0.267 N 
ATOM      6  C   UNL d   1      22.513 -18.436  -0.660  0.00  0.00     0.236 C 
ATOM      7  O   UNL d   1      22.453 -18.941  -1.783  0.00  0.00    -0.272 OA
ATOM      8  H   UNL d   1      23.498 -16.924   0.487  0.00  0.00     0.190 HD
BRANCH   6   9
ATOM      9  C   UNL d   1      21.700 -18.950   0.542  0.00  0.00     0.108 C 
BRANCH   9  10
ATOM     10  C   UNL d   1      20.428 -19.733   0.124  0.00  0.00    -0.014 C 
ATOM     11  C   UNL d   1      19.530 -20.058   1.327  0.00  0.00     0.010 C 
ATOM     12  C   UNL d   1      19.593 -18.951  -0.895  0.00  0.00     0.010 C 
ENDBRANCH   9  10
ENDBRANCH   6   9
ENDBRANCH   1   5
BRANCH   2  13
ATOM     13  C   UNL d   1      25.647 -15.312  -2.563  0.00  0.00     0.074 A 
ATOM     14  C   UNL d   1      26.874 -15.663  -3.104  0.00  0.00     0.025 A 
ATOM     15  C   UNL d   1      27.154 -14.996  -4.337  0.00  0.00     0.009 A 
ATOM     16  C   UNL d   1      26.140 -14.138  -4.701  0.00  0.00     0.050 A 
ATOM     17  S   UNL d   1      24.844 -14.180  -3.579  0.00  0.00    -0.097 SA
ENDBRANCH   2  13
TORSDOF 4
ENDMDL
MODEL 8
REMARK VINA RESULT:    -5.651     11.922     14.131
REMARK INTER + INTRA:          -8.304
REMARK INTER:                  -6.844
REMARK INTRA:                  -1.460
REMARK CONF_INDEPENDENT:        1.193
REMARK UNBOUND:                -1.460
REMARK  4 active torsions:
REMARK  status: ('A' for Active; 'I' for Inactive)
REMARK    1  A    between atoms: C_2  and  C_4 
REMARK    2  A    between atoms: C_4  and  C_5 
REMARK       I    between atoms: C_5  and  N_7 
REMARK    3  A    between atoms: N_7  and  N_8 
REMARK       I    between atoms: N_8  and  C_9 
REMARK    4  A    between atoms: C_9  and  C_11 
ROOT
ATOM      1  N   UNL d   1      33.344 -22.039   7.112  0.00  0.00    -0.263 N 
ATOM      2  C   UNL d   1      34.728 -22.162   7.155  0.00  0.00     0.277 C 
ATOM      3  O   UNL d   1      35.388 -22.176   6.109  0.00  0.00    -0.265 OA
ATOM      4  H   UNL d   1      32.772 -21.915   7.947  0.00  0.00     0.190 HD
ENDROOT
BRANCH   1   5
ATOM      5  N   UNL d   1      32.659 -21.921   5.865  0.00  0.00    -0.267 N 
ATOM      6  C   UNL d   1      31.317 -21.588   5.897  0.00  0.00     0.236 C 
ATOM      7  O   UNL d   1      30.759 -21.348   6.969  0.00  0.00    -0.272 OA
ATOM      8  H   UNL d   1      33.210 -22.055   5.019  0.00  0.00     0.190 HD
BRANCH   6   9
ATOM      9  C   UNL d   1      30.592 -21.548   4.540  0.00  0.00     0.108 C 
BRANCH   9  10
ATOM     10  C   UNL d   1      31.562 -21.423   3.337  0.00  0.00    -0.014 C 
ATOM     11  C   UNL d   1      30.837 -21.575   1.992  0.00  0.00     0.010 C 
ATOM     12  C   UNL d   1      32.288 -20.073   3.335  0.00  0.00     0.010 C 
ENDBRANCH   9  10
ENDBRANCH   6   9
ENDBRANCH   1   5
BRANCH   2  13
ATOM     13  C   UNL d   1      35.313 -22.288   8.490  0.00  0.00     0.074 A 
ATOM     14  C   UNL d   1      35.656 -23.429   9.197  0.00  0.00     0.025 A 
ATOM     15  C   UNL d   1      36.249 -23.145  10.466  0.00  0.00     0.009 A 
ATOM     16  C   UNL d   1      36.330 -21.792  10.707  0.00  0.00     0.050 A 
ATOM     17  S   UNL d   1      35.734 -20.878   9.384  0.00  0.00    -0.097 SA
ENDBRANCH   2  13
TORSDOF 4
ENDMDL
MODEL 9
REMARK VINA RESULT:    -5.430      4.464      6.003
REMARK INTER + INTRA:          -8.178
REMARK INTER:                  -6.623
REMARK INTRA:                  -1.555
REMARK CONF_INDEPENDENT:        1.193
REMARK UNBOUND:                -1.555
REMARK  4 active torsions:
REMARK  status: ('A' for Active; 'I' for Inactive)
REMARK    1  A    between atoms: C_2  and  C_4 
REMARK    2  A    between atoms: C_4  and  C_5 
REMARK       I    between atoms: C_5  and  N_7 
REMARK    3  A    between atoms: N_7  and  N_8 
REMARK       I    between atoms: N_8  and  C_9 
REMARK    4  A    between atoms: C_9  and  C_11 
ROOT
ATOM      1  N   UNL d   1      26.054 -15.667  -3.103  0.00  0.00    -0.263 N 
ATOM      2  C   UNL d   1      25.611 -14.732  -4.031  0.00  0.00     0.277 C 
ATOM      3  O   UNL d   1      24.412 -14.429  -4.091  0.00  0.00    -0.265 OA
ATOM      4  H   UNL d   1      27.041 -15.866  -2.944  0.00  0.00     0.190 HD
ENDROOT
BRANCH   1   5
ATOM      5  N   UNL d   1      25.141 -16.290  -2.200  0.00  0.00    -0.267 N 
ATOM      6  C   UNL d   1      25.667 -17.104  -1.212  0.00  0.00     0.236 C 
ATOM      7  O   UNL d   1      26.887 -17.230  -1.092  0.00  0.00    -0.272 OA
ATOM      8  H   UNL d   1      24.153 -16.072  -2.315  0.00  0.00     0.190 HD
BRANCH   6   9
ATOM      9  C   UNL d   1      24.650 -17.823  -0.308  0.00  0.00     0.108 C 
BRANCH   9  10
ATOM     10  C   UNL d   1      23.202 -17.769  -0.861  0.00  0.00    -0.014 C 
ATOM     11  C   UNL d   1      22.332 -18.908  -0.310  0.00  0.00     0.010 C 
ATOM     12  C   UNL d   1      22.517 -16.441  -0.521  0.00  0.00     0.010 C 
ENDBRANCH   9  10
ENDBRANCH   6   9
ENDBRANCH   1   5
BRANCH   2  13
ATOM     13  C   UNL d   1      26.638 -14.171  -4.909  0.00  0.00     0.074 A 
ATOM     14  C   UNL d   1      26.808 -12.867  -5.344  0.00  0.00     0.025 A 
ATOM     15  C   UNL d   1      27.966 -12.696  -6.165  0.00  0.00     0.009 A 
ATOM     16  C   UNL d   1      28.645 -13.879  -6.351  0.00  0.00     0.050 A 
ATOM     17  S   UNL d   1      27.909 -15.172  -5.499  0.00  0.00    -0.097 SA
ENDBRANCH   2  13
TORSDOF 4
ENDMDL
