MODEL 1
REMARK VINA RESULT:    -9.079      0.000      0.000
REMARK INTER + INTRA:         -14.502
REMARK INTER:                 -12.659
REMARK INTRA:                  -1.843
REMARK CONF_INDEPENDENT:        3.580
REMARK UNBOUND:                -1.843
REMARK  12 active torsions:
REMARK  status: ('A' for Active; 'I' for Inactive)
REMARK    1  A    between atoms: C_2  and  C_4 
REMARK    2  A    between atoms: C_4  and  C_5 
REMARK    3  A    between atoms: C_5  and  C_6 
REMARK    4  A    between atoms: C_7  and  C_6 
REMARK    5  A    between atoms: C_7  and  N_9 
REMARK       I    between atoms: N_9  and  C_10 
REMARK    6  A    between atoms: C_10  and  C_12 
REMARK    7  A    between atoms: C_12  and  C_13 
REMARK    8  A    between atoms: C_14  and  C_13 
REMARK    9  A    between atoms: C_16  and  O_17 
REMARK   10  A    between atoms: N_18  and  C_19 
REMARK   11  A    between atoms: C_19  and  C_20 
REMARK   12  A    between atoms: C_20  and  C_21 
ROOT
ATOM      1  C   UNL d   1      24.867 -13.703  -3.883  0.00  0.00     0.205 C 
ATOM      2  N   UNL d   1      25.156 -14.626  -5.022  0.00  0.00    -0.236 NA
ATOM      3  C   UNL d   1      26.438 -14.759  -4.944  0.00  0.00     0.244 C 
ATOM      4  N   UNL d   1      27.119 -14.079  -4.012  0.00  0.00    -0.280 N 
ATOM      5  C   UNL d   1      26.234 -13.190  -3.494  0.00  0.00     0.252 C 
ATOM      6  O   UNL d   1      26.453 -12.193  -2.819  0.00  0.00    -0.271 OA
ENDROOT
BRANCH   1   7
ATOM      7  C   UNL d   1      24.249 -14.456  -2.695  0.00  0.00     0.046 C 
BRANCH   7   8
ATOM      8  C   UNL d   1      25.273 -15.091  -1.736  0.00  0.00     0.105 C 
BRANCH   8   9
ATOM      9  C   UNL d   1      24.981 -16.556  -1.513  0.00  0.00     0.217 C 
ATOM     10  N   UNL d   1      23.672 -16.825  -1.161  0.00  0.00    -0.357 N 
ATOM     11  H   UNL d   1      23.015 -16.067  -1.026  0.00  0.00     0.162 HD
ATOM     12  O   UNL d   1      25.837 -17.423  -1.648  0.00  0.00    -0.274 OA
BRANCH  10  13
ATOM     13  C   UNL d   1      23.224 -18.195  -0.944  0.00  0.00     0.080 C 
ATOM     14  C   UNL d   1      24.179 -18.950  -0.012  0.00  0.00     0.032 C 
BRANCH  13  15
ATOM     15  C   UNL d   1      21.791 -18.200  -0.384  0.00  0.00     0.024 C 
BRANCH  15  16
ATOM     16  C   UNL d   1      20.874 -19.022  -1.263  0.00  0.00     0.002 C 
BRANCH  16  17
ATOM     17  C   UNL d   1      19.495 -19.186  -0.662  0.00  0.00     0.004 C 
BRANCH  17  18
ATOM     18  C   UNL d   1      19.492 -20.368   0.314  0.00  0.00    -0.023 C 
ATOM     19  C   UNL d   1      19.912 -19.878   1.692  0.00  0.00     0.009 C 
ATOM     20  C   UNL d   1      18.115 -21.032   0.386  0.00  0.00     0.009 C 
ENDBRANCH  17  18
ENDBRANCH  16  17
ENDBRANCH  15  16
ENDBRANCH  13  15
ENDBRANCH  10  13
ENDBRANCH   8   9
ENDBRANCH   7   8
ENDBRANCH   1   7
BRANCH   3  21
ATOM     21  O   UNL d   1      27.098 -15.570  -5.770  0.00  0.00    -0.331 OA
ATOM     22  H   UNL d   1      27.560 -15.011  -6.420  0.00  0.00     0.221 HD
ENDBRANCH   3  21
BRANCH   4  23
ATOM     23  C   UNL d   1      28.496 -14.296  -3.577  0.00  0.00     0.140 C 
BRANCH  23  24
ATOM     24  C   UNL d   1      29.543 -13.476  -4.338  0.00  0.00     0.061 C 
BRANCH  24  25
ATOM     25  C   UNL d   1      29.204 -13.254  -5.777  0.00  0.00    -0.029 A 
ATOM     26  C   UNL d   1      29.740 -13.916  -6.864  0.00  0.00     0.096 A 
ATOM     27  N   UNL d   1      29.181 -13.399  -8.001  0.00  0.00    -0.365 N 
ATOM     28  C   UNL d   1      28.282 -12.407  -7.681  0.00  0.00     0.043 A 
ATOM     29  H   UNL d   1      29.385 -13.705  -8.941  0.00  0.00     0.165 HD
ATOM     30  C   UNL d   1      27.482 -11.617  -8.513  0.00  0.00     0.032 A 
ATOM     31  C   UNL d   1      28.272 -12.295  -6.291  0.00  0.00    -0.000 A 
ATOM     32  C   UNL d   1      26.625 -10.697  -7.901  0.00  0.00     0.026 A 
ATOM     33  C   UNL d   1      26.588 -10.571  -6.515  0.00  0.00     0.035 A 
ATOM     34 CL   UNL d   1      25.491  -9.457  -5.793  0.00  0.00    -0.084 Cl
ATOM     35  C   UNL d   1      27.414 -11.347  -5.696  0.00  0.00     0.038 A 
ENDBRANCH  24  25
ENDBRANCH  23  24
ENDBRANCH   4  23
TORSDOF 12
ENDMDL
MODEL 2
REMARK VINA RESULT:    -8.722      2.986      4.085
REMARK INTER + INTRA:         -14.087
REMARK INTER:                 -12.301
REMARK INTRA:                  -1.785
REMARK CONF_INDEPENDENT:        3.580
REMARK UNBOUND:                -1.785
REMARK  12 active torsions:
REMARK  status: ('A' for Active; 'I' for Inactive)
REMARK    1  A    between atoms: C_2  and  C_4 
REMARK    2  A    between atoms: C_4  and  C_5 
REMARK    3  A    between atoms: C_5  and  C_6 
REMARK    4  A    between atoms: C_7  and  C_6 
REMARK    5  A    between atoms: C_7  and  N_9 
REMARK       I    between atoms: N_9  and  C_10 
REMARK    6  A    between atoms: C_10  and  C_12 
REMARK    7  A    between atoms: C_12  and  C_13 
REMARK    8  A    between atoms: C_14  and  C_13 
REMARK    9  A    between atoms: C_16  and  O_17 
REMARK   10  A    between atoms: N_18  and  C_19 
REMARK   11  A    between atoms: C_19  and  C_20 
REMARK   12  A    between atoms: C_20  and  C_21 
ROOT
ATOM      1  C   UNL d   1      25.642 -13.938  -2.931  0.00  0.00     0.205 C 
ATOM      2  N   UNL d   1      25.171 -15.129  -3.700  0.00  0.00    -0.236 NA
ATOM      3  C   UNL d   1      25.929 -15.094  -4.744  0.00  0.00     0.244 C 
ATOM      4  N   UNL d   1      26.807 -14.093  -4.892  0.00  0.00    -0.280 N 
ATOM      5  C   UNL d   1      26.489 -13.188  -3.932  0.00  0.00     0.252 C 
ATOM      6  O   UNL d   1      26.824 -12.015  -3.841  0.00  0.00    -0.271 OA
ENDROOT
BRANCH   1   7
ATOM      7  C   UNL d   1      26.515 -14.353  -1.737  0.00  0.00     0.046 C 
BRANCH   7   8
ATOM      8  C   UNL d   1      26.871 -15.851  -1.692  0.00  0.00     0.105 C 
BRANCH   8   9
ATOM      9  C   UNL d   1      25.871 -16.629  -0.870  0.00  0.00     0.217 C 
ATOM     10  N   UNL d   1      24.558 -16.453  -1.263  0.00  0.00    -0.357 N 
ATOM     11  H   UNL d   1      24.332 -15.808  -2.009  0.00  0.00     0.162 HD
ATOM     12  O   UNL d   1      26.208 -17.360   0.054  0.00  0.00    -0.274 OA
BRANCH  10  13
ATOM     13  C   UNL d   1      23.476 -17.163  -0.592  0.00  0.00     0.080 C 
ATOM     14  C   UNL d   1      22.185 -16.337  -0.596  0.00  0.00     0.032 C 
BRANCH  13  15
ATOM     15  C   UNL d   1      23.253 -18.535  -1.252  0.00  0.00     0.024 C 
BRANCH  15  16
ATOM     16  C   UNL d   1      21.800 -18.945  -1.160  0.00  0.00     0.002 C 
BRANCH  16  17
ATOM     17  C   UNL d   1      21.402 -19.344   0.244  0.00  0.00     0.004 C 
BRANCH  17  18
ATOM     18  C   UNL d   1      19.995 -19.953   0.230  0.00  0.00    -0.023 C 
ATOM     19  C   UNL d   1      19.323 -19.688   1.569  0.00  0.00     0.009 C 
ATOM     20  C   UNL d   1      19.148 -19.379  -0.909  0.00  0.00     0.009 C 
ENDBRANCH  17  18
ENDBRANCH  16  17
ENDBRANCH  15  16
ENDBRANCH  13  15
ENDBRANCH  10  13
ENDBRANCH   8   9
ENDBRANCH   7   8
ENDBRANCH   1   7
BRANCH   3  21
ATOM     21  O   UNL d   1      25.862 -16.044  -5.677  0.00  0.00    -0.331 OA
ATOM     22  H   UNL d   1      24.984 -16.458  -5.608  0.00  0.00     0.221 HD
ENDBRANCH   3  21
BRANCH   4  23
ATOM     23  C   UNL d   1      27.927 -14.017  -5.827  0.00  0.00     0.140 C 
BRANCH  23  24
ATOM     24  C   UNL d   1      29.014 -15.075  -5.608  0.00  0.00     0.061 C 
BRANCH  24  25
ATOM     25  C   UNL d   1      30.188 -14.930  -6.522  0.00  0.00    -0.029 A 
ATOM     26  C   UNL d   1      30.790 -13.751  -6.914  0.00  0.00     0.096 A 
ATOM     27  N   UNL d   1      31.812 -14.054  -7.772  0.00  0.00    -0.365 N 
ATOM     28  C   UNL d   1      31.897 -15.416  -7.949  0.00  0.00     0.043 A 
ATOM     29  H   UNL d   1      32.427 -13.381  -8.205  0.00  0.00     0.165 HD
ATOM     30  C   UNL d   1      32.785 -16.168  -8.725  0.00  0.00     0.032 A 
ATOM     31  C   UNL d   1      30.891 -15.994  -7.175  0.00  0.00    -0.000 A 
ATOM     32  C   UNL d   1      32.656 -17.560  -8.689  0.00  0.00     0.026 A 
ATOM     33  C   UNL d   1      31.668 -18.163  -7.916  0.00  0.00     0.035 A 
ATOM     34 CL   UNL d   1      31.564 -19.882  -7.863  0.00  0.00    -0.084 Cl
ATOM     35  C   UNL d   1      30.768 -17.400  -7.168  0.00  0.00     0.038 A 
ENDBRANCH  24  25
ENDBRANCH  23  24
ENDBRANCH   4  23
TORSDOF 12
ENDMDL
MODEL 3
REMARK VINA RESULT:    -8.709      2.708      4.558
REMARK INTER + INTRA:         -14.379
REMARK INTER:                 -12.289
REMARK INTRA:                  -2.090
REMARK CONF_INDEPENDENT:        3.580
REMARK UNBOUND:                -2.090
REMARK  12 active torsions:
REMARK  status: ('A' for Active; 'I' for Inactive)
REMARK    1  A    between atoms: C_2  and  C_4 
REMARK    2  A    between atoms: C_4  and  C_5 
REMARK    3  A    between atoms: C_5  and  C_6 
REMARK    4  A    between atoms: C_7  and  C_6 
REMARK    5  A    between atoms: C_7  and  N_9 
REMARK       I    between atoms: N_9  and  C_10 
REMARK    6  A    between atoms: C_10  and  C_12 
REMARK    7  A    between atoms: C_12  and  C_13 
REMARK    8  A    between atoms: C_14  and  C_13 
REMARK    9  A    between atoms: C_16  and  O_17 
REMARK   10  A    between atoms: N_18  and  C_19 
REMARK   11  A    between atoms: C_19  and  C_20 
REMARK   12  A    between atoms: C_20  and  C_21 
ROOT
ATOM      1  C   UNL d   1      24.863 -14.054  -4.131  0.00  0.00     0.205 C 
ATOM      2  N   UNL d   1      25.521 -15.136  -4.922  0.00  0.00    -0.236 NA
ATOM      3  C   UNL d   1      26.768 -14.809  -4.845  0.00  0.00     0.244 C 
ATOM      4  N   UNL d   1      27.119 -13.688  -4.200  0.00  0.00    -0.280 N 
ATOM      5  C   UNL d   1      25.958 -13.026  -3.967  0.00  0.00     0.252 C 
ATOM      6  O   UNL d   1      25.791 -11.854  -3.654  0.00  0.00    -0.271 OA
ENDROOT
BRANCH   1   7
ATOM      7  C   UNL d   1      24.429 -14.559  -2.746  0.00  0.00     0.046 C 
BRANCH   7   8
ATOM      8  C   UNL d   1      25.574 -15.107  -1.875  0.00  0.00     0.105 C 
BRANCH   8   9
ATOM      9  C   UNL d   1      25.322 -16.542  -1.475  0.00  0.00     0.217 C 
ATOM     10  N   UNL d   1      23.984 -16.876  -1.380  0.00  0.00    -0.357 N 
ATOM     11  H   UNL d   1      23.272 -16.171  -1.525  0.00  0.00     0.162 HD
ATOM     12  O   UNL d   1      26.233 -17.335  -1.268  0.00  0.00    -0.274 OA
BRANCH  10  13
ATOM     13  C   UNL d   1      23.576 -18.232  -1.038  0.00  0.00     0.080 C 
ATOM     14  C   UNL d   1      23.951 -18.576   0.408  0.00  0.00     0.032 C 
BRANCH  13  15
ATOM     15  C   UNL d   1      22.065 -18.405  -1.270  0.00  0.00     0.024 C 
BRANCH  15  16
ATOM     16  C   UNL d   1      21.402 -19.017  -0.056  0.00  0.00     0.002 C 
BRANCH  16  17
ATOM     17  C   UNL d   1      20.225 -19.895  -0.423  0.00  0.00     0.004 C 
BRANCH  17  18
ATOM     18  C   UNL d   1      19.211 -19.908   0.726  0.00  0.00    -0.023 C 
ATOM     19  C   UNL d   1      18.362 -21.167   0.628  0.00  0.00     0.009 C 
ATOM     20  C   UNL d   1      19.906 -19.843   2.088  0.00  0.00     0.009 C 
ENDBRANCH  17  18
ENDBRANCH  16  17
ENDBRANCH  15  16
ENDBRANCH  13  15
ENDBRANCH  10  13
ENDBRANCH   8   9
ENDBRANCH   7   8
ENDBRANCH   1   7
BRANCH   3  21
ATOM     21  O   UNL d   1      27.716 -15.571  -5.387  0.00  0.00    -0.331 OA
ATOM     22  H   UNL d   1      28.209 -15.018  -6.020  0.00  0.00     0.221 HD
ENDBRANCH   3  21
BRANCH   4  23
ATOM     23  C   UNL d   1      28.454 -13.292  -3.760  0.00  0.00     0.140 C 
BRANCH  23  24
ATOM     24  C   UNL d   1      28.573 -13.003  -2.260  0.00  0.00     0.061 C 
BRANCH  24  25
ATOM     25  C   UNL d   1      28.865 -14.214  -1.434  0.00  0.00    -0.029 A 
ATOM     26  C   UNL d   1      28.680 -14.351  -0.073  0.00  0.00     0.096 A 
ATOM     27  N   UNL d   1      29.092 -15.602   0.295  0.00  0.00    -0.365 N 
ATOM     28  C   UNL d   1      29.544 -16.297  -0.805  0.00  0.00     0.043 A 
ATOM     29  H   UNL d   1      29.060 -15.974   1.233  0.00  0.00     0.165 HD
ATOM     30  C   UNL d   1      30.047 -17.598  -0.901  0.00  0.00     0.032 A 
ATOM     31  C   UNL d   1      29.411 -15.452  -1.906  0.00  0.00    -0.000 A 
ATOM     32  C   UNL d   1      30.405 -18.060  -2.172  0.00  0.00     0.026 A 
ATOM     33  C   UNL d   1      30.273 -17.240  -3.290  0.00  0.00     0.035 A 
ATOM     34 CL   UNL d   1      30.684 -17.856  -4.845  0.00  0.00    -0.084 Cl
ATOM     35  C   UNL d   1      29.796 -15.932  -3.176  0.00  0.00     0.038 A 
ENDBRANCH  24  25
ENDBRANCH  23  24
ENDBRANCH   4  23
TORSDOF 12
ENDMDL
MODEL 4
REMARK VINA RESULT:    -8.664      3.879      5.132
REMARK INTER + INTRA:         -14.278
REMARK INTER:                 -12.244
REMARK INTRA:                  -2.034
REMARK CONF_INDEPENDENT:        3.580
REMARK UNBOUND:                -2.034
REMARK  12 active torsions:
REMARK  status: ('A' for Active; 'I' for Inactive)
REMARK    1  A    between atoms: C_2  and  C_4 
REMARK    2  A    between atoms: C_4  and  C_5 
REMARK    3  A    between atoms: C_5  and  C_6 
REMARK    4  A    between atoms: C_7  and  C_6 
REMARK    5  A    between atoms: C_7  and  N_9 
REMARK       I    between atoms: N_9  and  C_10 
REMARK    6  A    between atoms: C_10  and  C_12 
REMARK    7  A    between atoms: C_12  and  C_13 
REMARK    8  A    between atoms: C_14  and  C_13 
REMARK    9  A    between atoms: C_16  and  O_17 
REMARK   10  A    between atoms: N_18  and  C_19 
REMARK   11  A    between atoms: C_19  and  C_20 
REMARK   12  A    between atoms: C_20  and  C_21 
ROOT
ATOM      1  C   UNL d   1      27.280 -15.313  -1.975  0.00  0.00     0.205 C 
ATOM      2  N   UNL d   1      25.992 -15.275  -2.731  0.00  0.00    -0.236 NA
ATOM      3  C   UNL d   1      26.399 -15.200  -3.955  0.00  0.00     0.244 C 
ATOM      4  N   UNL d   1      27.712 -15.129  -4.213  0.00  0.00    -0.280 N 
ATOM      5  C   UNL d   1      28.306 -14.917  -3.011  0.00  0.00     0.252 C 
ATOM      6  O   UNL d   1      29.440 -14.524  -2.774  0.00  0.00    -0.271 OA
ENDROOT
BRANCH   1   7
ATOM      7  C   UNL d   1      27.589 -16.730  -1.469  0.00  0.00     0.046 C 
BRANCH   7   8
ATOM      8  C   UNL d   1      27.271 -16.963   0.020  0.00  0.00     0.105 C 
BRANCH   8   9
ATOM      9  C   UNL d   1      25.900 -17.571   0.200  0.00  0.00     0.217 C 
ATOM     10  N   UNL d   1      24.894 -16.904  -0.471  0.00  0.00    -0.357 N 
ATOM     11  H   UNL d   1      25.098 -16.056  -0.984  0.00  0.00     0.162 HD
ATOM     12  O   UNL d   1      25.712 -18.576   0.875  0.00  0.00    -0.274 OA
BRANCH  10  13
ATOM     13  C   UNL d   1      23.519 -17.386  -0.426  0.00  0.00     0.080 C 
ATOM     14  C   UNL d   1      22.522 -16.239  -0.631  0.00  0.00     0.032 C 
BRANCH  13  15
ATOM     15  C   UNL d   1      23.310 -18.490  -1.476  0.00  0.00     0.024 C 
BRANCH  15  16
ATOM     16  C   UNL d   1      22.089 -19.321  -1.147  0.00  0.00     0.002 C 
BRANCH  16  17
ATOM     17  C   UNL d   1      21.541 -19.018   0.231  0.00  0.00     0.004 C 
BRANCH  17  18
ATOM     18  C   UNL d   1      20.345 -19.932   0.523  0.00  0.00    -0.023 C 
ATOM     19  C   UNL d   1      19.879 -19.700   1.953  0.00  0.00     0.009 C 
ATOM     20  C   UNL d   1      19.195 -19.681  -0.455  0.00  0.00     0.009 C 
ENDBRANCH  17  18
ENDBRANCH  16  17
ENDBRANCH  15  16
ENDBRANCH  13  15
ENDBRANCH  10  13
ENDBRANCH   8   9
ENDBRANCH   7   8
ENDBRANCH   1   7
BRANCH   3  21
ATOM     21  O   UNL d   1      25.535 -15.202  -4.969  0.00  0.00    -0.331 OA
ATOM     22  H   UNL d   1      24.718 -14.772  -4.658  0.00  0.00     0.221 HD
ENDBRANCH   3  21
BRANCH   4  23
ATOM     23  C   UNL d   1      28.381 -15.321  -5.497  0.00  0.00     0.140 C 
BRANCH  23  24
ATOM     24  C   UNL d   1      29.894 -15.546  -5.401  0.00  0.00     0.061 C 
BRANCH  24  25
ATOM     25  C   UNL d   1      30.271 -16.917  -4.942  0.00  0.00    -0.029 A 
ATOM     26  C   UNL d   1      30.348 -17.360  -3.636  0.00  0.00     0.096 A 
ATOM     27  N   UNL d   1      30.752 -18.667  -3.648  0.00  0.00    -0.365 N 
ATOM     28  C   UNL d   1      30.938 -19.096  -4.942  0.00  0.00     0.043 A 
ATOM     29  H   UNL d   1      30.883 -19.243  -2.829  0.00  0.00     0.165 HD
ATOM     30  C   UNL d   1      31.337 -20.347  -5.425  0.00  0.00     0.032 A 
ATOM     31  C   UNL d   1      30.641 -18.020  -5.778  0.00  0.00    -0.000 A 
ATOM     32  C   UNL d   1      31.411 -20.510  -6.812  0.00  0.00     0.026 A 
ATOM     33  C   UNL d   1      31.110 -19.455  -7.670  0.00  0.00     0.035 A 
ATOM     34 CL   UNL d   1      31.173 -19.703  -9.373  0.00  0.00    -0.084 Cl
ATOM     35  C   UNL d   1      30.741 -18.202  -7.174  0.00  0.00     0.038 A 
ENDBRANCH  24  25
ENDBRANCH  23  24
ENDBRANCH   4  23
TORSDOF 12
ENDMDL
MODEL 5
REMARK VINA RESULT:    -8.144      2.581      3.777
REMARK INTER + INTRA:         -14.064
REMARK INTER:                 -11.724
REMARK INTRA:                  -2.341
REMARK CONF_INDEPENDENT:        3.580
REMARK UNBOUND:                -2.341
REMARK  12 active torsions:
REMARK  status: ('A' for Active; 'I' for Inactive)
REMARK    1  A    between atoms: C_2  and  C_4 
REMARK    2  A    between atoms: C_4  and  C_5 
REMARK    3  A    between atoms: C_5  and  C_6 
REMARK    4  A    between atoms: C_7  and  C_6 
REMARK    5  A    between atoms: C_7  and  N_9 
REMARK       I    between atoms: N_9  and  C_10 
REMARK    6  A    between atoms: C_10  and  C_12 
REMARK    7  A    between atoms: C_12  and  C_13 
REMARK    8  A    between atoms: C_14  and  C_13 
REMARK    9  A    between atoms: C_16  and  O_17 
REMARK   10  A    between atoms: N_18  and  C_19 
REMARK   11  A    between atoms: C_19  and  C_20 
REMARK   12  A    between atoms: C_20  and  C_21 
ROOT
ATOM      1  C   UNL d   1      25.863 -14.772  -1.491  0.00  0.00     0.205 C 
ATOM      2  N   UNL d   1      24.766 -14.839  -2.503  0.00  0.00    -0.236 NA
ATOM      3  C   UNL d   1      25.273 -14.188  -3.496  0.00  0.00     0.244 C 
ATOM      4  N   UNL d   1      26.486 -13.632  -3.373  0.00  0.00    -0.280 N 
ATOM      5  C   UNL d   1      26.794 -13.724  -2.055  0.00  0.00     0.252 C 
ATOM      6  O   UNL d   1      27.658 -13.129  -1.425  0.00  0.00    -0.271 OA
ENDROOT
BRANCH   1   7
ATOM      7  C   UNL d   1      26.608 -16.110  -1.385  0.00  0.00     0.046 C 
BRANCH   7   8
ATOM      8  C   UNL d   1      26.322 -16.904  -0.097  0.00  0.00     0.105 C 
BRANCH   8   9
ATOM      9  C   UNL d   1      25.088 -17.763  -0.243  0.00  0.00     0.217 C 
ATOM     10  N   UNL d   1      23.990 -17.094  -0.747  0.00  0.00    -0.357 N 
ATOM     11  H   UNL d   1      24.042 -16.101  -0.938  0.00  0.00     0.162 HD
ATOM     12  O   UNL d   1      25.079 -18.953   0.051  0.00  0.00    -0.274 OA
BRANCH  10  13
ATOM     13  C   UNL d   1      22.732 -17.792  -0.980  0.00  0.00     0.080 C 
ATOM     14  C   UNL d   1      22.911 -18.937  -1.983  0.00  0.00     0.032 C 
BRANCH  13  15
ATOM     15  C   UNL d   1      22.160 -18.311   0.350  0.00  0.00     0.024 C 
BRANCH  15  16
ATOM     16  C   UNL d   1      21.275 -19.516   0.121  0.00  0.00     0.002 C 
BRANCH  16  17
ATOM     17  C   UNL d   1      19.809 -19.148   0.046  0.00  0.00     0.004 C 
BRANCH  17  18
ATOM     18  C   UNL d   1      19.036 -19.877   1.151  0.00  0.00    -0.023 C 
ATOM     19  C   UNL d   1      18.547 -21.215   0.618  0.00  0.00     0.009 C 
ATOM     20  C   UNL d   1      19.902 -20.087   2.396  0.00  0.00     0.009 C 
ENDBRANCH  17  18
ENDBRANCH  16  17
ENDBRANCH  15  16
ENDBRANCH  13  15
ENDBRANCH  10  13
ENDBRANCH   8   9
ENDBRANCH   7   8
ENDBRANCH   1   7
BRANCH   3  21
ATOM     21  O   UNL d   1      24.615 -14.065  -4.648  0.00  0.00    -0.331 OA
ATOM     22  H   UNL d   1      24.537 -14.955  -5.036  0.00  0.00     0.221 HD
ENDBRANCH   3  21
BRANCH   4  23
ATOM     23  C   UNL d   1      27.342 -13.113  -4.437  0.00  0.00     0.140 C 
BRANCH  23  24
ATOM     24  C   UNL d   1      27.269 -13.892  -5.754  0.00  0.00     0.061 C 
BRANCH  24  25
ATOM     25  C   UNL d   1      28.501 -14.682  -6.056  0.00  0.00    -0.029 A 
ATOM     26  C   UNL d   1      29.182 -14.724  -7.256  0.00  0.00     0.096 A 
ATOM     27  N   UNL d   1      30.238 -15.583  -7.122  0.00  0.00    -0.365 N 
ATOM     28  C   UNL d   1      30.268 -16.106  -5.850  0.00  0.00     0.043 A 
ATOM     29  H   UNL d   1      30.911 -15.797  -7.845  0.00  0.00     0.165 HD
ATOM     30  C   UNL d   1      31.165 -17.010  -5.270  0.00  0.00     0.032 A 
ATOM     31  C   UNL d   1      29.191 -15.557  -5.155  0.00  0.00    -0.000 A 
ATOM     32  C   UNL d   1      30.967 -17.345  -3.926  0.00  0.00     0.026 A 
ATOM     33  C   UNL d   1      29.905 -16.803  -3.207  0.00  0.00     0.035 A 
ATOM     34 CL   UNL d   1      29.716 -17.205  -1.543  0.00  0.00    -0.084 Cl
ATOM     35  C   UNL d   1      28.999 -15.923  -3.806  0.00  0.00     0.038 A 
ENDBRANCH  24  25
ENDBRANCH  23  24
ENDBRANCH   4  23
TORSDOF 12
ENDMDL
MODEL 6
REMARK VINA RESULT:    -8.071      2.883      4.292
REMARK INTER + INTRA:         -14.372
REMARK INTER:                 -11.650
REMARK INTRA:                  -2.721
REMARK CONF_INDEPENDENT:        3.580
REMARK UNBOUND:                -2.721
REMARK  12 active torsions:
REMARK  status: ('A' for Active; 'I' for Inactive)
REMARK    1  A    between atoms: C_2  and  C_4 
REMARK    2  A    between atoms: C_4  and  C_5 
REMARK    3  A    between atoms: C_5  and  C_6 
REMARK    4  A    between atoms: C_7  and  C_6 
REMARK    5  A    between atoms: C_7  and  N_9 
REMARK       I    between atoms: N_9  and  C_10 
REMARK    6  A    between atoms: C_10  and  C_12 
REMARK    7  A    between atoms: C_12  and  C_13 
REMARK    8  A    between atoms: C_14  and  C_13 
REMARK    9  A    between atoms: C_16  and  O_17 
REMARK   10  A    between atoms: N_18  and  C_19 
REMARK   11  A    between atoms: C_19  and  C_20 
REMARK   12  A    between atoms: C_20  and  C_21 
ROOT
ATOM      1  C   UNL d   1      25.411 -13.230  -3.478  0.00  0.00     0.205 C 
ATOM      2  N   UNL d   1      25.033 -14.628  -3.844  0.00  0.00    -0.236 NA
ATOM      3  C   UNL d   1      25.841 -14.881  -4.819  0.00  0.00     0.244 C 
ATOM      4  N   UNL d   1      26.679 -13.928  -5.248  0.00  0.00    -0.280 N 
ATOM      5  C   UNL d   1      26.273 -12.786  -4.636  0.00  0.00     0.252 C 
ATOM      6  O   UNL d   1      26.551 -11.627  -4.912  0.00  0.00    -0.271 OA
ENDROOT
BRANCH   1   7
ATOM      7  C   UNL d   1      26.240 -13.195  -2.185  0.00  0.00     0.046 C 
BRANCH   7   8
ATOM      8  C   UNL d   1      27.054 -14.473  -1.910  0.00  0.00     0.105 C 
BRANCH   8   9
ATOM      9  C   UNL d   1      26.245 -15.483  -1.131  0.00  0.00     0.217 C 
ATOM     10  N   UNL d   1      25.647 -16.452  -1.914  0.00  0.00    -0.357 N 
ATOM     11  H   UNL d   1      25.730 -16.416  -2.922  0.00  0.00     0.162 HD
ATOM     12  O   UNL d   1      26.145 -15.443   0.089  0.00  0.00    -0.274 OA
BRANCH  10  13
ATOM     13  C   UNL d   1      24.860 -17.520  -1.309  0.00  0.00     0.080 C 
ATOM     14  C   UNL d   1      25.590 -18.135  -0.109  0.00  0.00     0.032 C 
BRANCH  13  15
ATOM     15  C   UNL d   1      23.476 -16.989  -0.897  0.00  0.00     0.024 C 
BRANCH  15  16
ATOM     16  C   UNL d   1      22.664 -18.073  -0.224  0.00  0.00     0.002 C 
BRANCH  16  17
ATOM     17  C   UNL d   1      21.325 -18.290  -0.895  0.00  0.00     0.004 C 
BRANCH  17  18
ATOM     18  C   UNL d   1      20.622 -19.500  -0.268  0.00  0.00    -0.023 C 
ATOM     19  C   UNL d   1      20.584 -19.327   1.243  0.00  0.00     0.009 C 
ATOM     20  C   UNL d   1      19.204 -19.671  -0.817  0.00  0.00     0.009 C 
ENDBRANCH  17  18
ENDBRANCH  16  17
ENDBRANCH  15  16
ENDBRANCH  13  15
ENDBRANCH  10  13
ENDBRANCH   8   9
ENDBRANCH   7   8
ENDBRANCH   1   7
BRANCH   3  21
ATOM     21  O   UNL d   1      25.863 -16.078  -5.403  0.00  0.00    -0.331 OA
ATOM     22  H   UNL d   1      24.958 -16.436  -5.370  0.00  0.00     0.221 HD
ENDBRANCH   3  21
BRANCH   4  23
ATOM     23  C   UNL d   1      27.841 -14.086  -6.120  0.00  0.00     0.140 C 
BRANCH  23  24
ATOM     24  C   UNL d   1      29.167 -13.628  -5.506  0.00  0.00     0.061 C 
BRANCH  24  25
ATOM     25  C   UNL d   1      29.643 -14.493  -4.385  0.00  0.00    -0.029 A 
ATOM     26  C   UNL d   1      29.827 -14.115  -3.069  0.00  0.00     0.096 A 
ATOM     27  N   UNL d   1      30.296 -15.195  -2.372  0.00  0.00    -0.365 N 
ATOM     28  C   UNL d   1      30.421 -16.282  -3.207  0.00  0.00     0.043 A 
ATOM     29  H   UNL d   1      30.508 -15.204  -1.385  0.00  0.00     0.165 HD
ATOM     30  C   UNL d   1      30.853 -17.584  -2.929  0.00  0.00     0.032 A 
ATOM     31  C   UNL d   1      30.017 -15.873  -4.477  0.00  0.00    -0.000 A 
ATOM     32  C   UNL d   1      30.847 -18.505  -3.981  0.00  0.00     0.026 A 
ATOM     33  C   UNL d   1      30.438 -18.125  -5.257  0.00  0.00     0.035 A 
ATOM     34 CL   UNL d   1      30.405 -19.297  -6.519  0.00  0.00    -0.084 Cl
ATOM     35  C   UNL d   1      30.037 -16.815  -5.528  0.00  0.00     0.038 A 
ENDBRANCH  24  25
ENDBRANCH  23  24
ENDBRANCH   4  23
TORSDOF 12
ENDMDL
MODEL 7
REMARK VINA RESULT:    -7.750      3.829      8.582
REMARK INTER + INTRA:         -14.252
REMARK INTER:                 -11.329
REMARK INTRA:                  -2.923
REMARK CONF_INDEPENDENT:        3.580
REMARK UNBOUND:                -2.923
REMARK  12 active torsions:
REMARK  status: ('A' for Active; 'I' for Inactive)
REMARK    1  A    between atoms: C_2  and  C_4 
REMARK    2  A    between atoms: C_4  and  C_5 
REMARK    3  A    between atoms: C_5  and  C_6 
REMARK    4  A    between atoms: C_7  and  C_6 
REMARK    5  A    between atoms: C_7  and  N_9 
REMARK       I    between atoms: N_9  and  C_10 
REMARK    6  A    between atoms: C_10  and  C_12 
REMARK    7  A    between atoms: C_12  and  C_13 
REMARK    8  A    between atoms: C_14  and  C_13 
REMARK    9  A    between atoms: C_16  and  O_17 
REMARK   10  A    between atoms: N_18  and  C_19 
REMARK   11  A    between atoms: C_19  and  C_20 
REMARK   12  A    between atoms: C_20  and  C_21 
ROOT
ATOM      1  C   UNL d   1      28.089 -15.200  -5.498  0.00  0.00     0.205 C 
ATOM      2  N   UNL d   1      26.627 -15.347  -5.770  0.00  0.00    -0.236 NA
ATOM      3  C   UNL d   1      26.101 -14.864  -4.694  0.00  0.00     0.244 C 
ATOM      4  N   UNL d   1      26.895 -14.450  -3.697  0.00  0.00    -0.280 N 
ATOM      5  C   UNL d   1      28.139 -14.885  -4.021  0.00  0.00     0.252 C 
ATOM      6  O   UNL d   1      29.128 -14.984  -3.307  0.00  0.00    -0.271 OA
ENDROOT
BRANCH   1   7
ATOM      7  C   UNL d   1      28.690 -14.028  -6.288  0.00  0.00     0.046 C 
BRANCH   7   8
ATOM      8  C   UNL d   1      30.212 -14.112  -6.502  0.00  0.00     0.105 C 
BRANCH   8   9
ATOM      9  C   UNL d   1      30.713 -15.527  -6.336  0.00  0.00     0.217 C 
ATOM     10  N   UNL d   1      31.067 -15.852  -5.041  0.00  0.00    -0.357 N 
ATOM     11  H   UNL d   1      31.027 -15.153  -4.310  0.00  0.00     0.162 HD
ATOM     12  O   UNL d   1      30.782 -16.313  -7.273  0.00  0.00    -0.274 OA
BRANCH  10  13
ATOM     13  C   UNL d   1      31.538 -17.192  -4.709  0.00  0.00     0.080 C 
ATOM     14  C   UNL d   1      32.221 -17.215  -3.337  0.00  0.00     0.032 C 
BRANCH  13  15
ATOM     15  C   UNL d   1      30.369 -18.191  -4.758  0.00  0.00     0.024 C 
BRANCH  15  16
ATOM     16  C   UNL d   1      30.819 -19.517  -5.329  0.00  0.00     0.002 C 
BRANCH  16  17
ATOM     17  C   UNL d   1      30.405 -19.693  -6.773  0.00  0.00     0.004 C 
BRANCH  17  18
ATOM     18  C   UNL d   1      31.648 -19.899  -7.646  0.00  0.00    -0.023 C 
ATOM     19  C   UNL d   1      31.525 -19.044  -8.899  0.00  0.00     0.009 C 
ATOM     20  C   UNL d   1      32.930 -19.546  -6.889  0.00  0.00     0.009 C 
ENDBRANCH  17  18
ENDBRANCH  16  17
ENDBRANCH  15  16
ENDBRANCH  13  15
ENDBRANCH  10  13
ENDBRANCH   8   9
ENDBRANCH   7   8
ENDBRANCH   1   7
BRANCH   3  21
ATOM     21  O   UNL d   1      24.780 -14.759  -4.560  0.00  0.00    -0.331 OA
ATOM     22  H   UNL d   1      24.476 -14.078  -5.186  0.00  0.00     0.221 HD
ENDBRANCH   3  21
BRANCH   4  23
ATOM     23  C   UNL d   1      26.528 -13.630  -2.545  0.00  0.00     0.140 C 
BRANCH  23  24
ATOM     24  C   UNL d   1      27.452 -13.784  -1.332  0.00  0.00     0.061 C 
BRANCH  24  25
ATOM     25  C   UNL d   1      27.545 -15.184  -0.820  0.00  0.00    -0.029 A 
ATOM     26  C   UNL d   1      28.697 -15.866  -0.482  0.00  0.00     0.096 A 
ATOM     27  N   UNL d   1      28.350 -17.128  -0.082  0.00  0.00    -0.365 N 
ATOM     28  C   UNL d   1      26.985 -17.288  -0.146  0.00  0.00     0.043 A 
ATOM     29  H   UNL d   1      28.996 -17.838   0.230  0.00  0.00     0.165 HD
ATOM     30  C   UNL d   1      26.194 -18.399   0.171  0.00  0.00     0.032 A 
ATOM     31  C   UNL d   1      26.451 -16.084  -0.604  0.00  0.00    -0.000 A 
ATOM     32  C   UNL d   1      24.809 -18.264   0.038  0.00  0.00     0.026 A 
ATOM     33  C   UNL d   1      24.249 -17.069  -0.408  0.00  0.00     0.035 A 
ATOM     34 CL   UNL d   1      22.536 -16.926  -0.520  0.00  0.00    -0.084 Cl
ATOM     35  C   UNL d   1      25.052 -15.977  -0.748  0.00  0.00     0.038 A 
ENDBRANCH  24  25
ENDBRANCH  23  24
ENDBRANCH   4  23
TORSDOF 12
ENDMDL
MODEL 8
REMARK VINA RESULT:    -7.463      3.549      8.250
REMARK INTER + INTRA:         -13.993
REMARK INTER:                 -11.043
REMARK INTRA:                  -2.950
REMARK CONF_INDEPENDENT:        3.580
REMARK UNBOUND:                -2.950
REMARK  12 active torsions:
REMARK  status: ('A' for Active; 'I' for Inactive)
REMARK    1  A    between atoms: C_2  and  C_4 
REMARK    2  A    between atoms: C_4  and  C_5 
REMARK    3  A    between atoms: C_5  and  C_6 
REMARK    4  A    between atoms: C_7  and  C_6 
REMARK    5  A    between atoms: C_7  and  N_9 
REMARK       I    between atoms: N_9  and  C_10 
REMARK    6  A    between atoms: C_10  and  C_12 
REMARK    7  A    between atoms: C_12  and  C_13 
REMARK    8  A    between atoms: C_14  and  C_13 
REMARK    9  A    between atoms: C_16  and  O_17 
REMARK   10  A    between atoms: N_18  and  C_19 
REMARK   11  A    between atoms: C_19  and  C_20 
REMARK   12  A    between atoms: C_20  and  C_21 
ROOT
ATOM      1  C   UNL d   1      27.756 -13.300  -6.169  0.00  0.00     0.205 C 
ATOM      2  N   UNL d   1      27.035 -12.044  -5.804  0.00  0.00    -0.236 NA
ATOM      3  C   UNL d   1      26.315 -12.426  -4.803  0.00  0.00     0.244 C 
ATOM      4  N   UNL d   1      26.344 -13.708  -4.417  0.00  0.00    -0.280 N 
ATOM      5  C   UNL d   1      27.012 -14.366  -5.398  0.00  0.00     0.252 C 
ATOM      6  O   UNL d   1      27.058 -15.568  -5.623  0.00  0.00    -0.271 OA
ENDROOT
BRANCH   1   7
ATOM      7  C   UNL d   1      29.219 -13.262  -5.701  0.00  0.00     0.046 C 
BRANCH   7   8
ATOM      8  C   UNL d   1      29.402 -13.158  -4.175  0.00  0.00     0.105 C 
BRANCH   8   9
ATOM      9  C   UNL d   1      30.218 -14.311  -3.640  0.00  0.00     0.217 C 
ATOM     10  N   UNL d   1      29.635 -15.549  -3.825  0.00  0.00    -0.357 N 
ATOM     11  H   UNL d   1      28.716 -15.623  -4.241  0.00  0.00     0.162 HD
ATOM     12  O   UNL d   1      31.307 -14.149  -3.102  0.00  0.00    -0.274 OA
BRANCH  10  13
ATOM     13  C   UNL d   1      30.314 -16.766  -3.394  0.00  0.00     0.080 C 
ATOM     14  C   UNL d   1      29.716 -17.300  -2.087  0.00  0.00     0.032 C 
BRANCH  13  15
ATOM     15  C   UNL d   1      30.249 -17.829  -4.503  0.00  0.00     0.024 C 
BRANCH  15  16
ATOM     16  C   UNL d   1      30.381 -17.191  -5.868  0.00  0.00     0.002 C 
BRANCH  16  17
ATOM     17  C   UNL d   1      31.260 -17.997  -6.799  0.00  0.00     0.004 C 
BRANCH  17  18
ATOM     18  C   UNL d   1      30.574 -19.325  -7.138  0.00  0.00    -0.023 C 
ATOM     19  C   UNL d   1      30.870 -19.685  -8.586  0.00  0.00     0.009 C 
ATOM     20  C   UNL d   1      31.039 -20.449  -6.209  0.00  0.00     0.009 C 
ENDBRANCH  17  18
ENDBRANCH  16  17
ENDBRANCH  15  16
ENDBRANCH  13  15
ENDBRANCH  10  13
ENDBRANCH   8   9
ENDBRANCH   7   8
ENDBRANCH   1   7
BRANCH   3  21
ATOM     21  O   UNL d   1      25.547 -11.563  -4.137  0.00  0.00    -0.331 OA
ATOM     22  H   UNL d   1      24.780 -11.359  -4.702  0.00  0.00     0.221 HD
ENDBRANCH   3  21
BRANCH   4  23
ATOM     23  C   UNL d   1      25.843 -14.277  -3.168  0.00  0.00     0.140 C 
BRANCH  23  24
ATOM     24  C   UNL d   1      26.595 -13.823  -1.912  0.00  0.00     0.061 C 
BRANCH  24  25
ATOM     25  C   UNL d   1      26.995 -14.945  -1.011  0.00  0.00    -0.029 A 
ATOM     26  C   UNL d   1      28.177 -15.058  -0.305  0.00  0.00     0.096 A 
ATOM     27  N   UNL d   1      28.160 -16.243   0.377  0.00  0.00    -0.365 N 
ATOM     28  C   UNL d   1      26.982 -16.914   0.136  0.00  0.00     0.043 A 
ATOM     29  H   UNL d   1      28.895 -16.578   0.982  0.00  0.00     0.165 HD
ATOM     30  C   UNL d   1      26.534 -18.147   0.623  0.00  0.00     0.032 A 
ATOM     31  C   UNL d   1      26.229 -16.122  -0.730  0.00  0.00    -0.000 A 
ATOM     32  C   UNL d   1      25.262 -18.573   0.230  0.00  0.00     0.026 A 
ATOM     33  C   UNL d   1      24.485 -17.797  -0.626  0.00  0.00     0.035 A 
ATOM     34 CL   UNL d   1      22.906 -18.334  -1.057  0.00  0.00    -0.084 Cl
ATOM     35  C   UNL d   1      24.956 -16.581  -1.129  0.00  0.00     0.038 A 
ENDBRANCH  24  25
ENDBRANCH  23  24
ENDBRANCH   4  23
TORSDOF 12
ENDMDL
