MODEL 1
REMARK VINA RESULT:    -6.700      0.000      0.000
REMARK INTER + INTRA:         -13.209
REMARK INTER:                 -10.578
REMARK INTRA:                  -2.631
REMARK CONF_INDEPENDENT:        3.878
REMARK UNBOUND:                -2.631
REMARK  13 active torsions:
REMARK  status: ('A' for Active; 'I' for Inactive)
REMARK    1  A    between atoms: C_2  and  C_3 
REMARK    2  A    between atoms: C_3  and  C_4 
REMARK    3  A    between atoms: C_4  and  N_5 
REMARK       I    between atoms: N_5  and  C_6 
REMARK    4  A    between atoms: C_6  and  C_8 
REMARK    5  A    between atoms: C_8  and  C_9 
REMARK    6  A    between atoms: C_8  and  N_18 
REMARK    7  A    between atoms: C_10  and  O_11 
REMARK    8  A    between atoms: C_13  and  O_14 
REMARK    9  A    between atoms: C_16  and  O_17 
REMARK       I    between atoms: N_18  and  C_19 
REMARK   10  A    between atoms: N_18  and  C_30 
REMARK   11  A    between atoms: C_19  and  C_21 
REMARK   12  A    between atoms: C_21  and  O_22 
REMARK   13  A    between atoms: C_21  and  C_24 
ROOT
ATOM      1  C   UNL d   1      26.105 -12.444  -2.443  0.00  0.00     0.219 C 
ENDROOT
BRANCH   1   2
ATOM      2  C   UNL d   1      26.439 -10.971  -2.988  0.00  0.00     0.245 C 
ATOM      3  N   UNL d   1      25.531 -10.196  -3.655  0.00  0.00    -0.359 N 
ATOM      4  H   UNL d   1      24.609 -10.523  -3.901  0.00  0.00     0.162 HD
ATOM      5  O   UNL d   1      27.554 -10.495  -2.945  0.00  0.00    -0.271 OA
BRANCH   3   6
ATOM      6  C   UNL d   1      25.866  -8.778  -3.601  0.00  0.00     0.122 C 
BRANCH   6   7
ATOM      7  C   UNL d   1      25.619  -8.142  -4.921  0.00  0.00     0.019 C 
BRANCH   7   8
ATOM      8  C   UNL d   1      24.446  -8.802  -5.617  0.00  0.00    -0.003 C 
ATOM      9  C   UNL d   1      23.281  -7.845  -5.534  0.00  0.00     0.005 C 
ENDBRANCH   7   8
ENDBRANCH   6   7
ENDBRANCH   3   6
ENDBRANCH   1   2
BRANCH   1  10
ATOM     10  C   UNL d   1      26.671 -13.241  -3.586  0.00  0.00     0.040 A 
ATOM     11  C   UNL d   1      28.059 -13.208  -3.820  0.00  0.00     0.080 A 
ATOM     12  C   UNL d   1      28.608 -13.920  -4.853  0.00  0.00     0.073 A 
ATOM     13  C   UNL d   1      27.800 -14.767  -5.585  0.00  0.00     0.071 A 
ATOM     14  C   UNL d   1      26.427 -14.842  -5.379  0.00  0.00     0.073 A 
ATOM     15  C   UNL d   1      25.848 -14.015  -4.428  0.00  0.00     0.080 A 
BRANCH  11  16
ATOM     16  O   UNL d   1      29.015 -12.545  -3.103  0.00  0.00    -0.360 OA
ATOM     17  H   UNL d   1      28.897 -11.573  -3.060  0.00  0.00     0.217 HD
ENDBRANCH  11  16
BRANCH  13  18
ATOM     18  O   UNL d   1      28.363 -15.575  -6.521  0.00  0.00    -0.361 OA
ATOM     19  H   UNL d   1      29.113 -15.081  -6.897  0.00  0.00     0.217 HD
ENDBRANCH  13  18
BRANCH  15  20
ATOM     20  O   UNL d   1      24.498 -14.075  -4.210  0.00  0.00    -0.360 OA
ATOM     21  H   UNL d   1      24.029 -13.795  -5.019  0.00  0.00     0.217 HD
ENDBRANCH  15  20
ENDBRANCH   1  10
BRANCH   1  22
ATOM     22  N   UNL d   1      26.649 -12.949  -1.030  0.00  0.00    -0.324 N 
ATOM     23  C   UNL d   1      26.712 -14.316  -0.618  0.00  0.00     0.255 C 
ATOM     24  O   UNL d   1      27.024 -14.676   0.522  0.00  0.00    -0.270 OA
BRANCH  23  25
ATOM     25  C   UNL d   1      26.287 -15.430  -1.559  0.00  0.00     0.245 C 
BRANCH  25  26
ATOM     26  O   UNL d   1      27.244 -16.205  -2.271  0.00  0.00    -0.377 OA
ATOM     27  C   UNL d   1      28.548 -16.382  -1.771  0.00  0.00     0.203 C 
ENDBRANCH  25  26
BRANCH  25  28
ATOM     28  C   UNL d   1      25.318 -16.450  -0.981  0.00  0.00    -0.020 A 
ATOM     29  C   UNL d   1      25.837 -17.514  -0.258  0.00  0.00     0.010 A 
ATOM     30  C   UNL d   1      25.012 -18.573   0.072  0.00  0.00     0.001 A 
ATOM     31  C   UNL d   1      23.647 -18.523  -0.224  0.00  0.00     0.000 A 
ATOM     32  C   UNL d   1      23.099 -17.426  -0.885  0.00  0.00     0.001 A 
ATOM     33  C   UNL d   1      23.935 -16.389  -1.274  0.00  0.00     0.010 A 
ENDBRANCH  25  28
ENDBRANCH  23  25
BRANCH  22  34
ATOM     34  C   UNL d   1      27.399 -11.957  -0.115  0.00  0.00     0.025 C 
ATOM     35  C   UNL d   1      27.124 -12.244   1.378  0.00  0.00     0.037 C 
ATOM     36  C   UNL d   1      28.904 -11.950  -0.391  0.00  0.00     0.037 C 
ATOM     37  C   UNL d   1      27.030 -10.458  -0.309  0.00  0.00     0.037 C 
ENDBRANCH  22  34
ENDBRANCH   1  22
TORSDOF 13
ENDMDL
MODEL 2
REMARK VINA RESULT:    -6.614      2.708      6.614
REMARK INTER + INTRA:         -13.359
REMARK INTER:                 -10.492
REMARK INTRA:                  -2.867
REMARK CONF_INDEPENDENT:        3.878
REMARK UNBOUND:                -2.867
REMARK  13 active torsions:
REMARK  status: ('A' for Active; 'I' for Inactive)
REMARK    1  A    between atoms: C_2  and  C_3 
REMARK    2  A    between atoms: C_3  and  C_4 
REMARK    3  A    between atoms: C_4  and  N_5 
REMARK       I    between atoms: N_5  and  C_6 
REMARK    4  A    between atoms: C_6  and  C_8 
REMARK    5  A    between atoms: C_8  and  C_9 
REMARK    6  A    between atoms: C_8  and  N_18 
REMARK    7  A    between atoms: C_10  and  O_11 
REMARK    8  A    between atoms: C_13  and  O_14 
REMARK    9  A    between atoms: C_16  and  O_17 
REMARK       I    between atoms: N_18  and  C_19 
REMARK   10  A    between atoms: N_18  and  C_30 
REMARK   11  A    between atoms: C_19  and  C_21 
REMARK   12  A    between atoms: C_21  and  O_22 
REMARK   13  A    between atoms: C_21  and  C_24 
ROOT
ATOM      1  C   UNL d   1      26.268 -16.263  -2.399  0.00  0.00     0.219 C 
ENDROOT
BRANCH   1   2
ATOM      2  C   UNL d   1      25.103 -16.361  -1.298  0.00  0.00     0.245 C 
ATOM      3  N   UNL d   1      23.912 -16.995  -1.522  0.00  0.00    -0.359 N 
ATOM      4  H   UNL d   1      23.663 -17.390  -2.416  0.00  0.00     0.162 HD
ATOM      5  O   UNL d   1      25.158 -15.781  -0.233  0.00  0.00    -0.271 OA
BRANCH   3   6
ATOM      6  C   UNL d   1      23.252 -17.391  -0.283  0.00  0.00     0.122 C 
BRANCH   6   7
ATOM      7  C   UNL d   1      22.822 -18.810  -0.361  0.00  0.00     0.019 C 
BRANCH   7   8
ATOM      8  C   UNL d   1      21.406 -18.908  -0.895  0.00  0.00    -0.003 C 
ATOM      9  C   UNL d   1      20.599 -19.683   0.119  0.00  0.00     0.005 C 
ENDBRANCH   7   8
ENDBRANCH   6   7
ENDBRANCH   3   6
ENDBRANCH   1   2
BRANCH   1  10
ATOM     10  C   UNL d   1      25.996 -14.867  -2.890  0.00  0.00     0.040 A 
ATOM     11  C   UNL d   1      26.229 -13.781  -2.023  0.00  0.00     0.080 A 
ATOM     12  C   UNL d   1      25.991 -12.498  -2.436  0.00  0.00     0.073 A 
ATOM     13  C   UNL d   1      25.637 -12.274  -3.752  0.00  0.00     0.071 A 
ATOM     14  C   UNL d   1      25.409 -13.315  -4.645  0.00  0.00     0.073 A 
ATOM     15  C   UNL d   1      25.512 -14.621  -4.189  0.00  0.00     0.080 A 
BRANCH  11  16
ATOM     16  O   UNL d   1      26.719 -13.816  -0.747  0.00  0.00    -0.360 OA
ATOM     17  H   UNL d   1      26.047 -13.974  -0.052  0.00  0.00     0.217 HD
ENDBRANCH  11  16
BRANCH  13  18
ATOM     18  O   UNL d   1      25.531 -10.996  -4.200  0.00  0.00    -0.361 OA
ATOM     19  H   UNL d   1      24.846 -11.001  -4.892  0.00  0.00     0.217 HD
ENDBRANCH  13  18
BRANCH  15  20
ATOM     20  O   UNL d   1      25.293 -15.659  -5.054  0.00  0.00    -0.360 OA
ATOM     21  H   UNL d   1      26.146 -16.084  -5.268  0.00  0.00     0.217 HD
ENDBRANCH  15  20
ENDBRANCH   1  10
BRANCH   1  22
ATOM     22  N   UNL d   1      27.800 -16.475  -2.007  0.00  0.00    -0.324 N 
ATOM     23  C   UNL d   1      28.912 -15.978  -2.754  0.00  0.00     0.255 C 
ATOM     24  O   UNL d   1      30.089 -16.254  -2.500  0.00  0.00    -0.270 OA
BRANCH  23  25
ATOM     25  C   UNL d   1      28.696 -15.139  -4.001  0.00  0.00     0.245 C 
BRANCH  25  26
ATOM     26  O   UNL d   1      28.843 -13.724  -3.980  0.00  0.00    -0.377 OA
ATOM     27  C   UNL d   1      29.563 -13.088  -2.950  0.00  0.00     0.203 C 
ENDBRANCH  25  26
BRANCH  25  28
ATOM     28  C   UNL d   1      29.458 -15.586  -5.239  0.00  0.00    -0.020 A 
ATOM     29  C   UNL d   1      29.884 -16.904  -5.310  0.00  0.00     0.010 A 
ATOM     30  C   UNL d   1      30.775 -17.275  -6.301  0.00  0.00     0.001 A 
ATOM     31  C   UNL d   1      31.157 -16.359  -7.284  0.00  0.00     0.000 A 
ATOM     32  C   UNL d   1      30.679 -15.051  -7.267  0.00  0.00     0.001 A 
ATOM     33  C   UNL d   1      29.834 -14.657  -6.239  0.00  0.00     0.010 A 
ENDBRANCH  25  28
ENDBRANCH  23  25
BRANCH  22  34
ATOM     34  C   UNL d   1      28.149 -17.030  -0.609  0.00  0.00     0.025 C 
ATOM     35  C   UNL d   1      28.292 -15.897   0.431  0.00  0.00     0.037 C 
ATOM     36  C   UNL d   1      27.130 -18.067  -0.135  0.00  0.00     0.037 C 
ATOM     37  C   UNL d   1      29.483 -17.826  -0.520  0.00  0.00     0.037 C 
ENDBRANCH  22  34
ENDBRANCH   1  22
TORSDOF 13
ENDMDL
MODEL 3
REMARK VINA RESULT:    -6.442      0.769      1.913
REMARK INTER + INTRA:         -13.187
REMARK INTER:                 -10.320
REMARK INTRA:                  -2.867
REMARK CONF_INDEPENDENT:        3.878
REMARK UNBOUND:                -2.867
REMARK  13 active torsions:
REMARK  status: ('A' for Active; 'I' for Inactive)
REMARK    1  A    between atoms: C_2  and  C_3 
REMARK    2  A    between atoms: C_3  and  C_4 
REMARK    3  A    between atoms: C_4  and  N_5 
REMARK       I    between atoms: N_5  and  C_6 
REMARK    4  A    between atoms: C_6  and  C_8 
REMARK    5  A    between atoms: C_8  and  C_9 
REMARK    6  A    between atoms: C_8  and  N_18 
REMARK    7  A    between atoms: C_10  and  O_11 
REMARK    8  A    between atoms: C_13  and  O_14 
REMARK    9  A    between atoms: C_16  and  O_17 
REMARK       I    between atoms: N_18  and  C_19 
REMARK   10  A    between atoms: N_18  and  C_30 
REMARK   11  A    between atoms: C_19  and  C_21 
REMARK   12  A    between atoms: C_21  and  O_22 
REMARK   13  A    between atoms: C_21  and  C_24 
ROOT
ATOM      1  C   UNL d   1      26.180 -12.890  -2.088  0.00  0.00     0.219 C 
ENDROOT
BRANCH   1   2
ATOM      2  C   UNL d   1      26.515 -11.405  -2.599  0.00  0.00     0.245 C 
ATOM      3  N   UNL d   1      25.605 -10.610  -3.238  0.00  0.00    -0.359 N 
ATOM      4  H   UNL d   1      24.679 -10.927  -3.484  0.00  0.00     0.162 HD
ATOM      5  O   UNL d   1      27.633 -10.934  -2.553  0.00  0.00    -0.271 OA
BRANCH   3   6
ATOM      6  C   UNL d   1      25.947  -9.194  -3.151  0.00  0.00     0.122 C 
BRANCH   6   7
ATOM      7  C   UNL d   1      25.550  -8.493  -4.399  0.00  0.00     0.019 C 
BRANCH   7   8
ATOM      8  C   UNL d   1      25.207  -9.494  -5.485  0.00  0.00    -0.003 C 
ATOM      9  C   UNL d   1      26.506  -9.921  -6.125  0.00  0.00     0.005 C 
ENDBRANCH   7   8
ENDBRANCH   6   7
ENDBRANCH   3   6
ENDBRANCH   1   2
BRANCH   1  10
ATOM     10  C   UNL d   1      26.771 -13.662  -3.237  0.00  0.00     0.040 A 
ATOM     11  C   UNL d   1      25.907 -14.232  -4.192  0.00  0.00     0.080 A 
ATOM     12  C   UNL d   1      26.410 -14.942  -5.249  0.00  0.00     0.073 A 
ATOM     13  C   UNL d   1      27.778 -14.987  -5.434  0.00  0.00     0.071 A 
ATOM     14  C   UNL d   1      28.666 -14.427  -4.524  0.00  0.00     0.073 A 
ATOM     15  C   UNL d   1      28.162 -13.830  -3.377  0.00  0.00     0.080 A 
BRANCH  11  16
ATOM     16  O   UNL d   1      24.543 -14.154  -4.242  0.00  0.00    -0.360 OA
ATOM     17  H   UNL d   1      24.186 -13.671  -5.015  0.00  0.00     0.217 HD
ENDBRANCH  11  16
BRANCH  13  18
ATOM     18  O   UNL d   1      28.275 -15.575  -6.553  0.00  0.00    -0.361 OA
ATOM     19  H   UNL d   1      29.238 -15.642  -6.426  0.00  0.00     0.217 HD
ENDBRANCH  13  18
BRANCH  15  20
ATOM     20  O   UNL d   1      29.022 -13.272  -2.470  0.00  0.00    -0.360 OA
ATOM     21  H   UNL d   1      28.860 -12.310  -2.425  0.00  0.00     0.217 HD
ENDBRANCH  15  20
ENDBRANCH   1  10
BRANCH   1  22
ATOM     22  N   UNL d   1      26.703 -13.420  -0.677  0.00  0.00    -0.324 N 
ATOM     23  C   UNL d   1      26.835 -14.796  -0.316  0.00  0.00     0.255 C 
ATOM     24  O   UNL d   1      27.126 -15.185   0.820  0.00  0.00    -0.270 OA
BRANCH  23  25
ATOM     25  C   UNL d   1      26.516 -15.893  -1.316  0.00  0.00     0.245 C 
BRANCH  25  26
ATOM     26  O   UNL d   1      27.483 -16.871  -1.680  0.00  0.00    -0.377 OA
ATOM     27  C   UNL d   1      28.638 -17.071  -0.899  0.00  0.00     0.203 C 
ENDBRANCH  25  26
BRANCH  25  28
ATOM     28  C   UNL d   1      25.249 -16.690  -1.043  0.00  0.00    -0.020 A 
ATOM     29  C   UNL d   1      24.026 -16.101  -1.331  0.00  0.00     0.010 A 
ATOM     30  C   UNL d   1      22.865 -16.697  -0.878  0.00  0.00     0.001 A 
ATOM     31  C   UNL d   1      22.914 -17.935  -0.231  0.00  0.00     0.000 A 
ATOM     32  C   UNL d   1      24.130 -18.573  -0.001  0.00  0.00     0.001 A 
ATOM     33  C   UNL d   1      25.304 -17.949  -0.398  0.00  0.00     0.010 A 
ENDBRANCH  25  28
ENDBRANCH  23  25
BRANCH  22  34
ATOM     34  C   UNL d   1      27.354 -12.423   0.307  0.00  0.00     0.025 C 
ATOM     35  C   UNL d   1      26.905 -12.686   1.761  0.00  0.00     0.037 C 
ATOM     36  C   UNL d   1      28.881 -12.437   0.206  0.00  0.00     0.037 C 
ATOM     37  C   UNL d   1      27.030 -10.923   0.051  0.00  0.00     0.037 C 
ENDBRANCH  22  34
ENDBRANCH   1  22
TORSDOF 13
ENDMDL
MODEL 4
REMARK VINA RESULT:    -6.342      2.653      6.629
REMARK INTER + INTRA:         -13.096
REMARK INTER:                 -10.220
REMARK INTRA:                  -2.876
REMARK CONF_INDEPENDENT:        3.878
REMARK UNBOUND:                -2.876
REMARK  13 active torsions:
REMARK  status: ('A' for Active; 'I' for Inactive)
REMARK    1  A    between atoms: C_2  and  C_3 
REMARK    2  A    between atoms: C_3  and  C_4 
REMARK    3  A    between atoms: C_4  and  N_5 
REMARK       I    between atoms: N_5  and  C_6 
REMARK    4  A    between atoms: C_6  and  C_8 
REMARK    5  A    between atoms: C_8  and  C_9 
REMARK    6  A    between atoms: C_8  and  N_18 
REMARK    7  A    between atoms: C_10  and  O_11 
REMARK    8  A    between atoms: C_13  and  O_14 
REMARK    9  A    between atoms: C_16  and  O_17 
REMARK       I    between atoms: N_18  and  C_19 
REMARK   10  A    between atoms: N_18  and  C_30 
REMARK   11  A    between atoms: C_19  and  C_21 
REMARK   12  A    between atoms: C_21  and  O_22 
REMARK   13  A    between atoms: C_21  and  C_24 
ROOT
ATOM      1  C   UNL d   1      26.402 -16.024  -2.381  0.00  0.00     0.219 C 
ENDROOT
BRANCH   1   2
ATOM      2  C   UNL d   1      25.240 -16.036  -1.273  0.00  0.00     0.245 C 
ATOM      3  N   UNL d   1      23.971 -16.479  -1.523  0.00  0.00    -0.359 N 
ATOM      4  H   UNL d   1      23.664 -16.772  -2.439  0.00  0.00     0.162 HD
ATOM      5  O   UNL d   1      25.382 -15.546  -0.172  0.00  0.00    -0.271 OA
BRANCH   3   6
ATOM      6  C   UNL d   1      23.267 -16.865  -0.305  0.00  0.00     0.122 C 
BRANCH   6   7
ATOM      7  C   UNL d   1      23.191 -18.345  -0.202  0.00  0.00     0.019 C 
BRANCH   7   8
ATOM      8  C   UNL d   1      21.943 -18.861  -0.892  0.00  0.00    -0.003 C 
ATOM      9  C   UNL d   1      20.998 -19.331   0.188  0.00  0.00     0.005 C 
ENDBRANCH   7   8
ENDBRANCH   6   7
ENDBRANCH   3   6
ENDBRANCH   1   2
BRANCH   1  10
ATOM     10  C   UNL d   1      26.234 -14.611  -2.868  0.00  0.00     0.040 A 
ATOM     11  C   UNL d   1      25.672 -14.390  -4.141  0.00  0.00     0.080 A 
ATOM     12  C   UNL d   1      25.507 -13.116  -4.617  0.00  0.00     0.073 A 
ATOM     13  C   UNL d   1      25.782 -12.050  -3.783  0.00  0.00     0.071 A 
ATOM     14  C   UNL d   1      26.325 -12.223  -2.515  0.00  0.00     0.073 A 
ATOM     15  C   UNL d   1      26.627 -13.507  -2.086  0.00  0.00     0.080 A 
BRANCH  11  16
ATOM     16  O   UNL d   1      25.209 -15.322  -5.027  0.00  0.00    -0.360 OA
ATOM     17  H   UNL d   1      25.905 -15.845  -5.475  0.00  0.00     0.217 HD
ENDBRANCH  11  16
BRANCH  13  18
ATOM     18  O   UNL d   1      25.493 -10.791  -4.202  0.00  0.00    -0.361 OA
ATOM     19  H   UNL d   1      24.524 -10.738  -4.271  0.00  0.00     0.217 HD
ENDBRANCH  13  18
BRANCH  15  20
ATOM     20  O   UNL d   1      27.159 -13.697  -0.840  0.00  0.00    -0.360 OA
ATOM     21  H   UNL d   1      26.437 -13.858  -0.203  0.00  0.00     0.217 HD
ENDBRANCH  15  20
ENDBRANCH   1  10
BRANCH   1  22
ATOM     22  N   UNL d   1      27.916 -16.353  -2.000  0.00  0.00    -0.324 N 
ATOM     23  C   UNL d   1      29.057 -15.946  -2.757  0.00  0.00     0.255 C 
ATOM     24  O   UNL d   1      30.211 -16.312  -2.510  0.00  0.00    -0.270 OA
BRANCH  23  25
ATOM     25  C   UNL d   1      28.898 -15.097  -4.005  0.00  0.00     0.245 C 
BRANCH  25  26
ATOM     26  O   UNL d   1      29.125 -13.692  -3.982  0.00  0.00    -0.377 OA
ATOM     27  C   UNL d   1      30.005 -13.118  -3.044  0.00  0.00     0.203 C 
ENDBRANCH  25  26
BRANCH  25  28
ATOM     28  C   UNL d   1      29.642 -15.586  -5.238  0.00  0.00    -0.020 A 
ATOM     29  C   UNL d   1      29.910 -16.942  -5.350  0.00  0.00     0.010 A 
ATOM     30  C   UNL d   1      30.781 -17.381  -6.329  0.00  0.00     0.001 A 
ATOM     31  C   UNL d   1      31.302 -16.482  -7.264  0.00  0.00     0.000 A 
ATOM     32  C   UNL d   1      30.982 -15.127  -7.208  0.00  0.00     0.001 A 
ATOM     33  C   UNL d   1      30.157 -14.673  -6.189  0.00  0.00     0.010 A 
ENDBRANCH  25  28
ENDBRANCH  23  25
BRANCH  22  34
ATOM     34  C   UNL d   1      28.232 -16.930  -0.603  0.00  0.00     0.025 C 
ATOM     35  C   UNL d   1      28.463 -15.809   0.434  0.00  0.00     0.037 C 
ATOM     36  C   UNL d   1      27.141 -17.889  -0.121  0.00  0.00     0.037 C 
ATOM     37  C   UNL d   1      29.503 -17.821  -0.519  0.00  0.00     0.037 C 
ENDBRANCH  22  34
ENDBRANCH   1  22
TORSDOF 13
ENDMDL
MODEL 5
REMARK VINA RESULT:    -6.247      2.456      5.753
REMARK INTER + INTRA:         -13.161
REMARK INTER:                 -10.125
REMARK INTRA:                  -3.036
REMARK CONF_INDEPENDENT:        3.878
REMARK UNBOUND:                -3.036
REMARK  13 active torsions:
REMARK  status: ('A' for Active; 'I' for Inactive)
REMARK    1  A    between atoms: C_2  and  C_3 
REMARK    2  A    between atoms: C_3  and  C_4 
REMARK    3  A    between atoms: C_4  and  N_5 
REMARK       I    between atoms: N_5  and  C_6 
REMARK    4  A    between atoms: C_6  and  C_8 
REMARK    5  A    between atoms: C_8  and  C_9 
REMARK    6  A    between atoms: C_8  and  N_18 
REMARK    7  A    between atoms: C_10  and  O_11 
REMARK    8  A    between atoms: C_13  and  O_14 
REMARK    9  A    between atoms: C_16  and  O_17 
REMARK       I    between atoms: N_18  and  C_19 
REMARK   10  A    between atoms: N_18  and  C_30 
REMARK   11  A    between atoms: C_19  and  C_21 
REMARK   12  A    between atoms: C_21  and  O_22 
REMARK   13  A    between atoms: C_21  and  C_24 
ROOT
ATOM      1  C   UNL d   1      27.054 -15.622  -3.234  0.00  0.00     0.219 C 
ENDROOT
BRANCH   1   2
ATOM      2  C   UNL d   1      25.650 -15.866  -2.494  0.00  0.00     0.245 C 
ATOM      3  N   UNL d   1      25.425 -16.911  -1.642  0.00  0.00    -0.359 N 
ATOM      4  H   UNL d   1      26.108 -17.634  -1.470  0.00  0.00     0.162 HD
ATOM      5  O   UNL d   1      24.662 -15.203  -2.731  0.00  0.00    -0.271 OA
BRANCH   3   6
ATOM      6  C   UNL d   1      24.313 -16.657  -0.733  0.00  0.00     0.122 C 
BRANCH   6   7
ATOM      7  C   UNL d   1      23.694 -17.939  -0.308  0.00  0.00     0.019 C 
BRANCH   7   8
ATOM      8  C   UNL d   1      22.293 -18.065  -0.874  0.00  0.00    -0.003 C 
ATOM      9  C   UNL d   1      21.619 -19.206  -0.149  0.00  0.00     0.005 C 
ENDBRANCH   7   8
ENDBRANCH   6   7
ENDBRANCH   3   6
ENDBRANCH   1   2
BRANCH   1  10
ATOM     10  C   UNL d   1      26.770 -14.262  -3.811  0.00  0.00     0.040 A 
ATOM     11  C   UNL d   1      26.912 -14.066  -5.199  0.00  0.00     0.080 A 
ATOM     12  C   UNL d   1      26.664 -12.841  -5.757  0.00  0.00     0.073 A 
ATOM     13  C   UNL d   1      26.154 -11.834  -4.961  0.00  0.00     0.071 A 
ATOM     14  C   UNL d   1      25.987 -11.988  -3.590  0.00  0.00     0.073 A 
ATOM     15  C   UNL d   1      26.372 -13.182  -2.999  0.00  0.00     0.080 A 
BRANCH  11  16
ATOM     16  O   UNL d   1      27.259 -14.989  -6.146  0.00  0.00    -0.360 OA
ATOM     17  H   UNL d   1      28.221 -15.150  -6.230  0.00  0.00     0.217 HD
ENDBRANCH  11  16
BRANCH  13  18
ATOM     18  O   UNL d   1      25.781 -10.660  -5.535  0.00  0.00    -0.361 OA
ATOM     19  H   UNL d   1      24.808 -10.670  -5.577  0.00  0.00     0.217 HD
ENDBRANCH  13  18
BRANCH  15  20
ATOM     20  O   UNL d   1      26.212 -13.353  -1.650  0.00  0.00    -0.360 OA
ATOM     21  H   UNL d   1      25.273 -13.541  -1.460  0.00  0.00     0.217 HD
ENDBRANCH  15  20
ENDBRANCH   1  10
BRANCH   1  22
ATOM     22  N   UNL d   1      28.433 -15.659  -2.433  0.00  0.00    -0.324 N 
ATOM     23  C   UNL d   1      28.557 -15.567  -1.012  0.00  0.00     0.255 C 
ATOM     24  O   UNL d   1      29.638 -15.478  -0.420  0.00  0.00    -0.270 OA
BRANCH  23  25
ATOM     25  C   UNL d   1      27.324 -15.469  -0.131  0.00  0.00     0.245 C 
BRANCH  25  26
ATOM     26  O   UNL d   1      26.726 -16.627   0.441  0.00  0.00    -0.377 OA
ATOM     27  C   UNL d   1      27.402 -17.862   0.447  0.00  0.00     0.203 C 
ENDBRANCH  25  26
BRANCH  25  28
ATOM     28  C   UNL d   1      27.407 -14.474   1.016  0.00  0.00    -0.020 A 
ATOM     29  C   UNL d   1      28.139 -14.825   2.141  0.00  0.00     0.010 A 
ATOM     30  C   UNL d   1      28.038 -14.051   3.282  0.00  0.00     0.001 A 
ATOM     31  C   UNL d   1      27.293 -12.869   3.268  0.00  0.00     0.000 A 
ATOM     32  C   UNL d   1      26.613 -12.466   2.122  0.00  0.00     0.001 A 
ATOM     33  C   UNL d   1      26.660 -13.271   0.993  0.00  0.00     0.010 A 
ENDBRANCH  25  28
ENDBRANCH  23  25
BRANCH  22  34
ATOM     34  C   UNL d   1      29.724 -16.071  -3.174  0.00  0.00     0.025 C 
ATOM     35  C   UNL d   1      30.792 -14.957  -3.113  0.00  0.00     0.037 C 
ATOM     36  C   UNL d   1      30.292 -17.389  -2.643  0.00  0.00     0.037 C 
ATOM     37  C   UNL d   1      29.554 -16.382  -4.688  0.00  0.00     0.037 C 
ENDBRANCH  22  34
ENDBRANCH   1  22
TORSDOF 13
ENDMDL
MODEL 6
REMARK VINA RESULT:    -6.129      2.481      5.779
REMARK INTER + INTRA:         -13.316
REMARK INTER:                 -10.007
REMARK INTRA:                  -3.309
REMARK CONF_INDEPENDENT:        3.878
REMARK UNBOUND:                -3.309
REMARK  13 active torsions:
REMARK  status: ('A' for Active; 'I' for Inactive)
REMARK    1  A    between atoms: C_2  and  C_3 
REMARK    2  A    between atoms: C_3  and  C_4 
REMARK    3  A    between atoms: C_4  and  N_5 
REMARK       I    between atoms: N_5  and  C_6 
REMARK    4  A    between atoms: C_6  and  C_8 
REMARK    5  A    between atoms: C_8  and  C_9 
REMARK    6  A    between atoms: C_8  and  N_18 
REMARK    7  A    between atoms: C_10  and  O_11 
REMARK    8  A    between atoms: C_13  and  O_14 
REMARK    9  A    between atoms: C_16  and  O_17 
REMARK       I    between atoms: N_18  and  C_19 
REMARK   10  A    between atoms: N_18  and  C_30 
REMARK   11  A    between atoms: C_19  and  C_21 
REMARK   12  A    between atoms: C_21  and  O_22 
REMARK   13  A    between atoms: C_21  and  C_24 
ROOT
ATOM      1  C   UNL d   1      27.061 -15.627  -3.107  0.00  0.00     0.219 C 
ENDROOT
BRANCH   1   2
ATOM      2  C   UNL d   1      25.630 -15.834  -2.409  0.00  0.00     0.245 C 
ATOM      3  N   UNL d   1      25.335 -16.903  -1.609  0.00  0.00    -0.359 N 
ATOM      4  H   UNL d   1      25.978 -17.665  -1.455  0.00  0.00     0.162 HD
ATOM      5  O   UNL d   1      24.681 -15.114  -2.637  0.00  0.00    -0.271 OA
BRANCH   3   6
ATOM      6  C   UNL d   1      24.215 -16.635  -0.714  0.00  0.00     0.122 C 
BRANCH   6   7
ATOM      7  C   UNL d   1      23.705 -17.904  -0.134  0.00  0.00     0.019 C 
BRANCH   7   8
ATOM      8  C   UNL d   1      23.055 -18.755  -1.208  0.00  0.00    -0.003 C 
ATOM      9  C   UNL d   1      21.578 -18.815  -0.895  0.00  0.00     0.005 C 
ENDBRANCH   7   8
ENDBRANCH   6   7
ENDBRANCH   3   6
ENDBRANCH   1   2
BRANCH   1  10
ATOM     10  C   UNL d   1      26.807 -14.291  -3.749  0.00  0.00     0.040 A 
ATOM     11  C   UNL d   1      26.881 -14.183  -5.152  0.00  0.00     0.080 A 
ATOM     12  C   UNL d   1      26.657 -12.982  -5.770  0.00  0.00     0.073 A 
ATOM     13  C   UNL d   1      26.236 -11.908  -5.011  0.00  0.00     0.071 A 
ATOM     14  C   UNL d   1      26.136 -11.974  -3.626  0.00  0.00     0.073 A 
ATOM     15  C   UNL d   1      26.500 -13.148  -2.984  0.00  0.00     0.080 A 
BRANCH  11  16
ATOM     16  O   UNL d   1      27.135 -15.175  -6.057  0.00  0.00    -0.360 OA
ATOM     17  H   UNL d   1      27.504 -14.867  -6.911  0.00  0.00     0.217 HD
ENDBRANCH  11  16
BRANCH  13  18
ATOM     18  O   UNL d   1      25.883 -10.753  -5.635  0.00  0.00    -0.361 OA
ATOM     19  H   UNL d   1      24.912 -10.701  -5.591  0.00  0.00     0.217 HD
ENDBRANCH  13  18
BRANCH  15  20
ATOM     20  O   UNL d   1      26.407 -13.233  -1.622  0.00  0.00    -0.360 OA
ATOM     21  H   UNL d   1      25.530 -13.590  -1.382  0.00  0.00     0.217 HD
ENDBRANCH  15  20
ENDBRANCH   1  10
BRANCH   1  22
ATOM     22  N   UNL d   1      28.410 -15.637  -2.254  0.00  0.00    -0.324 N 
ATOM     23  C   UNL d   1      28.477 -15.599  -0.827  0.00  0.00     0.255 C 
ATOM     24  O   UNL d   1      29.530 -15.487  -0.191  0.00  0.00    -0.270 OA
BRANCH  23  25
ATOM     25  C   UNL d   1      27.209 -15.593   0.009  0.00  0.00     0.245 C 
BRANCH  25  26
ATOM     26  O   UNL d   1      26.664 -16.795   0.539  0.00  0.00    -0.377 OA
ATOM     27  C   UNL d   1      27.335 -18.024   0.385  0.00  0.00     0.203 C 
ENDBRANCH  25  26
BRANCH  25  28
ATOM     28  C   UNL d   1      27.189 -14.615   1.173  0.00  0.00    -0.020 A 
ATOM     29  C   UNL d   1      26.465 -13.440   1.034  0.00  0.00     0.010 A 
ATOM     30  C   UNL d   1      26.619 -12.435   1.970  0.00  0.00     0.001 A 
ATOM     31  C   UNL d   1      27.413 -12.641   3.101  0.00  0.00     0.000 A 
ATOM     32  C   UNL d   1      28.088 -13.845   3.291  0.00  0.00     0.001 A 
ATOM     33  C   UNL d   1      27.985 -14.834   2.323  0.00  0.00     0.010 A 
ENDBRANCH  25  28
ENDBRANCH  23  25
BRANCH  22  34
ATOM     34  C   UNL d   1      29.745 -15.959  -2.961  0.00  0.00     0.025 C 
ATOM     35  C   UNL d   1      29.527 -16.320  -4.447  0.00  0.00     0.037 C 
ATOM     36  C   UNL d   1      30.752 -14.815  -2.828  0.00  0.00     0.037 C 
ATOM     37  C   UNL d   1      30.541 -17.158  -2.370  0.00  0.00     0.037 C 
ENDBRANCH  22  34
ENDBRANCH   1  22
TORSDOF 13
ENDMDL
MODEL 7
REMARK VINA RESULT:    -5.794      2.404      5.771
REMARK INTER + INTRA:         -13.274
REMARK INTER:                  -9.672
REMARK INTRA:                  -3.602
REMARK CONF_INDEPENDENT:        3.878
REMARK UNBOUND:                -3.602
REMARK  13 active torsions:
REMARK  status: ('A' for Active; 'I' for Inactive)
REMARK    1  A    between atoms: C_2  and  C_3 
REMARK    2  A    between atoms: C_3  and  C_4 
REMARK    3  A    between atoms: C_4  and  N_5 
REMARK       I    between atoms: N_5  and  C_6 
REMARK    4  A    between atoms: C_6  and  C_8 
REMARK    5  A    between atoms: C_8  and  C_9 
REMARK    6  A    between atoms: C_8  and  N_18 
REMARK    7  A    between atoms: C_10  and  O_11 
REMARK    8  A    between atoms: C_13  and  O_14 
REMARK    9  A    between atoms: C_16  and  O_17 
REMARK       I    between atoms: N_18  and  C_19 
REMARK   10  A    between atoms: N_18  and  C_30 
REMARK   11  A    between atoms: C_19  and  C_21 
REMARK   12  A    between atoms: C_21  and  O_22 
REMARK   13  A    between atoms: C_21  and  C_24 
ROOT
ATOM      1  C   UNL d   1      26.761 -15.336  -3.145  0.00  0.00     0.219 C 
ENDROOT
BRANCH   1   2
ATOM      2  C   UNL d   1      25.360 -15.729  -2.466  0.00  0.00     0.245 C 
ATOM      3  N   UNL d   1      25.197 -16.828  -1.669  0.00  0.00    -0.359 N 
ATOM      4  H   UNL d   1      25.932 -17.500  -1.505  0.00  0.00     0.162 HD
ATOM      5  O   UNL d   1      24.328 -15.139  -2.707  0.00  0.00    -0.271 OA
BRANCH   3   6
ATOM      6  C   UNL d   1      24.039 -16.709  -0.789  0.00  0.00     0.122 C 
BRANCH   6   7
ATOM      7  C   UNL d   1      23.700 -18.032  -0.205  0.00  0.00     0.019 C 
BRANCH   7   8
ATOM      8  C   UNL d   1      22.895 -18.857  -1.190  0.00  0.00    -0.003 C 
ATOM      9  C   UNL d   1      21.481 -18.927  -0.663  0.00  0.00     0.005 C 
ENDBRANCH   7   8
ENDBRANCH   6   7
ENDBRANCH   3   6
ENDBRANCH   1   2
BRANCH   1  10
ATOM     10  C   UNL d   1      26.534 -13.856  -3.288  0.00  0.00     0.040 A 
ATOM     11  C   UNL d   1      27.270 -12.971  -2.476  0.00  0.00     0.080 A 
ATOM     12  C   UNL d   1      27.087 -11.618  -2.579  0.00  0.00     0.073 A 
ATOM     13  C   UNL d   1      26.264 -11.128  -3.574  0.00  0.00     0.071 A 
ATOM     14  C   UNL d   1      25.529 -11.965  -4.406  0.00  0.00     0.073 A 
ATOM     15  C   UNL d   1      25.604 -13.336  -4.209  0.00  0.00     0.080 A 
BRANCH  11  16
ATOM     16  O   UNL d   1      28.229 -13.280  -1.552  0.00  0.00    -0.360 OA
ATOM     17  H   UNL d   1      28.989 -13.788  -1.903  0.00  0.00     0.217 HD
ENDBRANCH  11  16
BRANCH  13  18
ATOM     18  O   UNL d   1      26.184  -9.785  -3.766  0.00  0.00    -0.361 OA
ATOM     19  H   UNL d   1      27.073  -9.491  -4.031  0.00  0.00     0.217 HD
ENDBRANCH  13  18
BRANCH  15  20
ATOM     20  O   UNL d   1      24.889 -14.176  -5.020  0.00  0.00    -0.360 OA
ATOM     21  H   UNL d   1      23.970 -14.230  -4.696  0.00  0.00     0.217 HD
ENDBRANCH  15  20
ENDBRANCH   1  10
BRANCH   1  22
ATOM     22  N   UNL d   1      28.150 -15.665  -2.432  0.00  0.00    -0.324 N 
ATOM     23  C   UNL d   1      28.321 -15.877  -1.029  0.00  0.00     0.255 C 
ATOM     24  O   UNL d   1      29.421 -16.011  -0.483  0.00  0.00    -0.270 OA
BRANCH  23  25
ATOM     25  C   UNL d   1      27.128 -15.847  -0.090  0.00  0.00     0.245 C 
BRANCH  25  26
ATOM     26  O   UNL d   1      26.689 -17.017   0.591  0.00  0.00    -0.377 OA
ATOM     27  C   UNL d   1      27.202 -18.285   0.255  0.00  0.00     0.203 C 
ENDBRANCH  25  26
BRANCH  25  28
ATOM     28  C   UNL d   1      27.155 -14.767   0.980  0.00  0.00    -0.020 A 
ATOM     29  C   UNL d   1      26.332 -13.661   0.821  0.00  0.00     0.010 A 
ATOM     30  C   UNL d   1      26.507 -12.564   1.643  0.00  0.00     0.001 A 
ATOM     31  C   UNL d   1      27.429 -12.609   2.693  0.00  0.00     0.000 A 
ATOM     32  C   UNL d   1      28.210 -13.742   2.909  0.00  0.00     0.001 A 
ATOM     33  C   UNL d   1      28.083 -14.822   2.049  0.00  0.00     0.010 A 
ENDBRANCH  25  28
ENDBRANCH  23  25
BRANCH  22  34
ATOM     34  C   UNL d   1      29.373 -16.034  -3.300  0.00  0.00     0.025 C 
ATOM     35  C   UNL d   1      29.917 -17.435  -2.946  0.00  0.00     0.037 C 
ATOM     36  C   UNL d   1      29.060 -15.943  -4.795  0.00  0.00     0.037 C 
ATOM     37  C   UNL d   1      30.597 -15.084  -3.170  0.00  0.00     0.037 C 
ENDBRANCH  22  34
ENDBRANCH   1  22
TORSDOF 13
ENDMDL
MODEL 8
REMARK VINA RESULT:    -5.331      2.625      6.370
REMARK INTER + INTRA:         -12.871
REMARK INTER:                  -9.209
REMARK INTRA:                  -3.662
REMARK CONF_INDEPENDENT:        3.878
REMARK UNBOUND:                -3.662
REMARK  13 active torsions:
REMARK  status: ('A' for Active; 'I' for Inactive)
REMARK    1  A    between atoms: C_2  and  C_3 
REMARK    2  A    between atoms: C_3  and  C_4 
REMARK    3  A    between atoms: C_4  and  N_5 
REMARK       I    between atoms: N_5  and  C_6 
REMARK    4  A    between atoms: C_6  and  C_8 
REMARK    5  A    between atoms: C_8  and  C_9 
REMARK    6  A    between atoms: C_8  and  N_18 
REMARK    7  A    between atoms: C_10  and  O_11 
REMARK    8  A    between atoms: C_13  and  O_14 
REMARK    9  A    between atoms: C_16  and  O_17 
REMARK       I    between atoms: N_18  and  C_19 
REMARK   10  A    between atoms: N_18  and  C_30 
REMARK   11  A    between atoms: C_19  and  C_21 
REMARK   12  A    between atoms: C_21  and  O_22 
REMARK   13  A    between atoms: C_21  and  C_24 
ROOT
ATOM      1  C   UNL d   1      26.610 -15.883  -2.864  0.00  0.00     0.219 C 
ENDROOT
BRANCH   1   2
ATOM      2  C   UNL d   1      25.116 -16.118  -2.328  0.00  0.00     0.245 C 
ATOM      3  N   UNL d   1      24.626 -17.349  -1.989  0.00  0.00    -0.359 N 
ATOM      4  H   UNL d   1      25.154 -18.200  -2.112  0.00  0.00     0.162 HD
ATOM      5  O   UNL d   1      24.286 -15.233  -2.296  0.00  0.00    -0.271 OA
BRANCH   3   6
ATOM      6  C   UNL d   1      23.484 -17.263  -1.086  0.00  0.00     0.122 C 
BRANCH   6   7
ATOM      7  C   UNL d   1      23.250 -18.575  -0.429  0.00  0.00     0.019 C 
BRANCH   7   8
ATOM      8  C   UNL d   1      21.871 -18.614   0.201  0.00  0.00    -0.003 C 
ATOM      9  C   UNL d   1      20.890 -18.954  -0.896  0.00  0.00     0.005 C 
ENDBRANCH   7   8
ENDBRANCH   6   7
ENDBRANCH   3   6
ENDBRANCH   1   2
BRANCH   1  10
ATOM     10  C   UNL d   1      26.445 -14.481  -3.384  0.00  0.00     0.040 A 
ATOM     11  C   UNL d   1      26.431 -14.266  -4.776  0.00  0.00     0.080 A 
ATOM     12  C   UNL d   1      26.284 -13.003  -5.283  0.00  0.00     0.073 A 
ATOM     13  C   UNL d   1      26.026 -11.960  -4.416  0.00  0.00     0.071 A 
ATOM     14  C   UNL d   1      26.018 -12.129  -3.036  0.00  0.00     0.073 A 
ATOM     15  C   UNL d   1      26.308 -13.381  -2.514  0.00  0.00     0.080 A 
BRANCH  11  16
ATOM     16  O   UNL d   1      26.521 -15.200  -5.770  0.00  0.00    -0.360 OA
ATOM     17  H   UNL d   1      27.417 -15.573  -5.903  0.00  0.00     0.217 HD
ENDBRANCH  11  16
BRANCH  13  18
ATOM     18  O   UNL d   1      25.747 -10.730  -4.923  0.00  0.00    -0.361 OA
ATOM     19  H   UNL d   1      24.780 -10.688  -5.030  0.00  0.00     0.217 HD
ENDBRANCH  13  18
BRANCH  15  20
ATOM     20  O   UNL d   1      26.302 -13.567  -1.158  0.00  0.00    -0.360 OA
ATOM     21  H   UNL d   1      25.495 -14.055  -0.905  0.00  0.00     0.217 HD
ENDBRANCH  15  20
ENDBRANCH   1  10
BRANCH   1  22
ATOM     22  N   UNL d   1      27.871 -16.021  -1.896  0.00  0.00    -0.324 N 
ATOM     23  C   UNL d   1      29.218 -15.708  -2.256  0.00  0.00     0.255 C 
ATOM     24  O   UNL d   1      30.193 -15.934  -1.532  0.00  0.00    -0.270 OA
BRANCH  23  25
ATOM     25  C   UNL d   1      29.544 -15.155  -3.632  0.00  0.00     0.245 C 
BRANCH  25  26
ATOM     26  O   UNL d   1      28.917 -15.662  -4.804  0.00  0.00    -0.377 OA
ATOM     27  C   UNL d   1      29.655 -16.377  -5.767  0.00  0.00     0.203 C 
ENDBRANCH  25  26
BRANCH  25  28
ATOM     28  C   UNL d   1      29.461 -13.643  -3.774  0.00  0.00    -0.020 A 
ATOM     29  C   UNL d   1      29.531 -13.096  -5.048  0.00  0.00     0.010 A 
ATOM     30  C   UNL d   1      29.696 -11.731  -5.189  0.00  0.00     0.001 A 
ATOM     31  C   UNL d   1      29.683 -10.899  -4.067  0.00  0.00     0.000 A 
ATOM     32  C   UNL d   1      29.538 -11.428  -2.787  0.00  0.00     0.001 A 
ATOM     33  C   UNL d   1      29.435 -12.803  -2.635  0.00  0.00     0.010 A 
ENDBRANCH  25  28
ENDBRANCH  23  25
BRANCH  22  34
ATOM     34  C   UNL d   1      27.639 -16.265  -0.389  0.00  0.00     0.025 C 
ATOM     35  C   UNL d   1      27.784 -17.759  -0.028  0.00  0.00     0.037 C 
ATOM     36  C   UNL d   1      28.567 -15.411   0.478  0.00  0.00     0.037 C 
ATOM     37  C   UNL d   1      26.236 -15.857   0.146  0.00  0.00     0.037 C 
ENDBRANCH  22  34
ENDBRANCH   1  22
TORSDOF 13
ENDMDL
MODEL 9
REMARK VINA RESULT:    -4.756      2.932      6.205
REMARK INTER + INTRA:         -12.496
REMARK INTER:                  -8.634
REMARK INTRA:                  -3.862
REMARK CONF_INDEPENDENT:        3.878
REMARK UNBOUND:                -3.862
REMARK  13 active torsions:
REMARK  status: ('A' for Active; 'I' for Inactive)
REMARK    1  A    between atoms: C_2  and  C_3 
REMARK    2  A    between atoms: C_3  and  C_4 
REMARK    3  A    between atoms: C_4  and  N_5 
REMARK       I    between atoms: N_5  and  C_6 
REMARK    4  A    between atoms: C_6  and  C_8 
REMARK    5  A    between atoms: C_8  and  C_9 
REMARK    6  A    between atoms: C_8  and  N_18 
REMARK    7  A    between atoms: C_10  and  O_11 
REMARK    8  A    between atoms: C_13  and  O_14 
REMARK    9  A    between atoms: C_16  and  O_17 
REMARK       I    between atoms: N_18  and  C_19 
REMARK   10  A    between atoms: N_18  and  C_30 
REMARK   11  A    between atoms: C_19  and  C_21 
REMARK   12  A    between atoms: C_21  and  O_22 
REMARK   13  A    between atoms: C_21  and  C_24 
ROOT
ATOM      1  C   UNL d   1      28.988 -13.410  -0.748  0.00  0.00     0.219 C 
ENDROOT
BRANCH   1   2
ATOM      2  C   UNL d   1      27.776 -13.116   0.264  0.00  0.00     0.245 C 
ATOM      3  N   UNL d   1      27.394 -13.986   1.248  0.00  0.00    -0.359 N 
ATOM      4  H   UNL d   1      27.811 -14.897   1.363  0.00  0.00     0.162 HD
ATOM      5  O   UNL d   1      27.047 -12.153   0.149  0.00  0.00    -0.271 OA
BRANCH   3   6
ATOM      6  C   UNL d   1      26.655 -13.324   2.317  0.00  0.00     0.122 C 
BRANCH   6   7
ATOM      7  C   UNL d   1      27.548 -13.068   3.476  0.00  0.00     0.019 C 
BRANCH   7   8
ATOM      8  C   UNL d   1      27.602 -14.281   4.384  0.00  0.00    -0.003 C 
ATOM      9  C   UNL d   1      28.930 -14.243   5.102  0.00  0.00     0.005 C 
ENDBRANCH   7   8
ENDBRANCH   6   7
ENDBRANCH   3   6
ENDBRANCH   1   2
BRANCH   1  10
ATOM     10  C   UNL d   1      30.081 -13.617   0.265  0.00  0.00     0.040 A 
ATOM     11  C   UNL d   1      30.231 -14.887   0.856  0.00  0.00     0.080 A 
ATOM     12  C   UNL d   1      31.214 -15.111   1.783  0.00  0.00     0.073 A 
ATOM     13  C   UNL d   1      32.133 -14.111   2.038  0.00  0.00     0.071 A 
ATOM     14  C   UNL d   1      32.030 -12.848   1.467  0.00  0.00     0.073 A 
ATOM     15  C   UNL d   1      30.952 -12.575   0.637  0.00  0.00     0.080 A 
BRANCH  11  16
ATOM     16  O   UNL d   1      29.508 -16.020   0.607  0.00  0.00    -0.360 OA
ATOM     17  H   UNL d   1      29.614 -16.731   1.272  0.00  0.00     0.217 HD
ENDBRANCH  11  16
BRANCH  13  18
ATOM     18  O   UNL d   1      33.187 -14.373   2.854  0.00  0.00    -0.361 OA
ATOM     19  H   UNL d   1      32.840 -14.368   3.764  0.00  0.00     0.217 HD
ENDBRANCH  13  18
BRANCH  15  20
ATOM     20  O   UNL d   1      30.836 -11.338   0.064  0.00  0.00    -0.360 OA
ATOM     21  H   UNL d   1      29.905 -11.047   0.115  0.00  0.00     0.217 HD
ENDBRANCH  15  20
ENDBRANCH   1  10
BRANCH   1  22
ATOM     22  N   UNL d   1      28.915 -14.601  -1.806  0.00  0.00    -0.324 N 
ATOM     23  C   UNL d   1      27.730 -15.325  -2.144  0.00  0.00     0.255 C 
ATOM     24  O   UNL d   1      27.718 -16.321  -2.875  0.00  0.00    -0.270 OA
BRANCH  23  25
ATOM     25  C   UNL d   1      26.394 -14.959  -1.521  0.00  0.00     0.245 C 
BRANCH  25  26
ATOM     26  O   UNL d   1      25.427 -14.196  -2.233  0.00  0.00    -0.377 OA
ATOM     27  C   UNL d   1      25.630 -13.850  -3.583  0.00  0.00     0.203 C 
ENDBRANCH  25  26
BRANCH  25  28
ATOM     28  C   UNL d   1      25.606 -16.113  -0.920  0.00  0.00    -0.020 A 
ATOM     29  C   UNL d   1      26.282 -17.031  -0.130  0.00  0.00     0.010 A 
ATOM     30  C   UNL d   1      25.652 -18.207   0.230  0.00  0.00     0.001 A 
ATOM     31  C   UNL d   1      24.313 -18.422  -0.106  0.00  0.00     0.000 A 
ATOM     32  C   UNL d   1      23.599 -17.474  -0.837  0.00  0.00     0.001 A 
ATOM     33  C   UNL d   1      24.246 -16.320  -1.254  0.00  0.00     0.010 A 
ENDBRANCH  25  28
ENDBRANCH  23  25
BRANCH  22  34
ATOM     34  C   UNL d   1      30.122 -14.859  -2.734  0.00  0.00     0.025 C 
ATOM     35  C   UNL d   1      30.740 -16.252  -2.486  0.00  0.00     0.037 C 
ATOM     36  C   UNL d   1      29.755 -14.689  -4.209  0.00  0.00     0.037 C 
ATOM     37  C   UNL d   1      31.307 -13.862  -2.581  0.00  0.00     0.037 C 
ENDBRANCH  22  34
ENDBRANCH   1  22
TORSDOF 13
ENDMDL
