MODEL 1
REMARK VINA RESULT:    -8.275      0.000      0.000
REMARK INTER + INTRA:         -15.034
REMARK INTER:                 -12.152
REMARK INTRA:                  -2.881
REMARK CONF_INDEPENDENT:        3.878
REMARK UNBOUND:                -2.881
REMARK  13 active torsions:
REMARK  status: ('A' for Active; 'I' for Inactive)
REMARK    1  A    between atoms: C_2  and  C_3 
REMARK    2  A    between atoms: C_3  and  C_4 
REMARK    3  A    between atoms: C_4  and  N_5 
REMARK       I    between atoms: N_5  and  C_6 
REMARK    4  A    between atoms: C_6  and  C_8 
REMARK    5  A    between atoms: C_8  and  C_9 
REMARK    6  A    between atoms: C_8  and  N_16 
REMARK    7  A    between atoms: C_13  and  O_14 
REMARK    8  A    between atoms: N_16  and  C_17 
REMARK       I    between atoms: N_16  and  C_20 
REMARK    9  A    between atoms: C_17  and  C_18 
REMARK   10  A    between atoms: C_20  and  C_22 
REMARK   11  A    between atoms: C_22  and  O_23 
REMARK   12  A    between atoms: C_22  and  C_24 
REMARK   13  A    between atoms: C_22  and  C_30 
ROOT
ATOM      1  N   UNL d   1      27.927 -15.294  -0.132  0.00  0.00    -0.331 N 
ATOM      2  C   UNL d   1      27.386 -14.050   0.343  0.00  0.00     0.265 C 
ATOM      3  O   UNL d   1      26.255 -13.689   0.001  0.00  0.00    -0.269 OA
ENDROOT
BRANCH   1   4
ATOM      4  C   UNL d   1      26.961 -16.196  -0.961  0.00  0.00     0.212 C 
BRANCH   4   5
ATOM      5  C   UNL d   1      25.549 -16.728  -0.400  0.00  0.00     0.245 C 
ATOM      6  N   UNL d   1      25.192 -17.997  -0.106  0.00  0.00    -0.359 N 
ATOM      7  H   UNL d   1      25.791 -18.804  -0.147  0.00  0.00     0.162 HD
ATOM      8  O   UNL d   1      24.557 -16.019  -0.136  0.00  0.00    -0.271 OA
BRANCH   6   9
ATOM      9  C   UNL d   1      23.777 -18.122   0.228  0.00  0.00     0.122 C 
BRANCH   9  10
ATOM     10  C   UNL d   1      23.025 -18.805  -0.838  0.00  0.00     0.019 C 
BRANCH  10  11
ATOM     11  C   UNL d   1      21.625 -18.229  -0.896  0.00  0.00    -0.003 C 
ATOM     12  C   UNL d   1      20.680 -19.375  -0.655  0.00  0.00     0.005 C 
ENDBRANCH  10  11
ENDBRANCH   9  10
ENDBRANCH   6   9
ENDBRANCH   4   5
BRANCH   4  13
ATOM     13  C   UNL d   1      26.726 -15.565  -2.345  0.00  0.00    -0.024 A 
ATOM     14  C   UNL d   1      27.766 -15.466  -3.279  0.00  0.00     0.010 A 
ATOM     15  C   UNL d   1      27.536 -14.964  -4.557  0.00  0.00     0.003 A 
ATOM     16  C   UNL d   1      26.288 -14.444  -4.889  0.00  0.00     0.036 A 
ATOM     17  C   UNL d   1      25.273 -14.461  -3.947  0.00  0.00     0.066 A 
ATOM     18  C   UNL d   1      25.476 -15.039  -2.708  0.00  0.00     0.046 A 
BRANCH  17  19
ATOM     19  O   UNL d   1      24.036 -13.938  -4.176  0.00  0.00    -0.361 OA
ATOM     20  H   UNL d   1      24.032 -13.518  -5.048  0.00  0.00     0.217 HD
ENDBRANCH  17  19
ENDBRANCH   4  13
ENDBRANCH   1   4
BRANCH   1  21
ATOM     21  C   UNL d   1      29.307 -15.687   0.279  0.00  0.00     0.127 C 
BRANCH  21  22
ATOM     22  C   UNL d   1      30.129 -16.299  -0.762  0.00  0.00     0.015 C 
ATOM     23  C   UNL d   1      30.545 -17.719  -0.867  0.00  0.00     0.006 C 
ENDBRANCH  21  22
ENDBRANCH   1  21
BRANCH   2  24
ATOM     24  C   UNL d   1      28.328 -13.113   1.259  0.00  0.00     0.194 C 
BRANCH  24  25
ATOM     25  O   UNL d   1      29.666 -12.987   0.759  0.00  0.00    -0.371 OA
ATOM     26  H   UNL d   1      29.657 -12.568  -0.105  0.00  0.00     0.212 HD
ENDBRANCH  24  25
BRANCH  24  27
ATOM     27  C   UNL d   1      27.651 -11.729   1.416  0.00  0.00    -0.010 C 
ATOM     28  C   UNL d   1      27.459 -10.896   0.309  0.00  0.00     0.011 C 
ATOM     29  C   UNL d   1      27.023  -9.588   0.507  0.00  0.00     0.001 C 
ATOM     30  C   UNL d   1      26.576  -9.166   1.762  0.00  0.00     0.000 C 
ATOM     31  C   UNL d   1      26.690  -9.998   2.857  0.00  0.00     0.001 C 
ATOM     32  C   UNL d   1      27.327 -11.212   2.695  0.00  0.00     0.011 C 
ENDBRANCH  24  27
BRANCH  24  33
ATOM     33  C   UNL d   1      28.514 -13.784   2.631  0.00  0.00    -0.010 A 
ATOM     34  C   UNL d   1      27.405 -14.111   3.431  0.00  0.00     0.011 A 
ATOM     35  C   UNL d   1      27.594 -14.514   4.750  0.00  0.00     0.001 A 
ATOM     36  C   UNL d   1      28.884 -14.697   5.250  0.00  0.00     0.000 A 
ATOM     37  C   UNL d   1      29.989 -14.456   4.446  0.00  0.00     0.001 A 
ATOM     38  C   UNL d   1      29.802 -13.984   3.159  0.00  0.00     0.011 A 
ENDBRANCH  24  33
ENDBRANCH   2  24
TORSDOF 13
ENDMDL
MODEL 2
REMARK VINA RESULT:    -8.163      2.718      5.400
REMARK INTER + INTRA:         -15.255
REMARK INTER:                 -12.041
REMARK INTRA:                  -3.215
REMARK CONF_INDEPENDENT:        3.878
REMARK UNBOUND:                -3.215
REMARK  13 active torsions:
REMARK  status: ('A' for Active; 'I' for Inactive)
REMARK    1  A    between atoms: C_2  and  C_3 
REMARK    2  A    between atoms: C_3  and  C_4 
REMARK    3  A    between atoms: C_4  and  N_5 
REMARK       I    between atoms: N_5  and  C_6 
REMARK    4  A    between atoms: C_6  and  C_8 
REMARK    5  A    between atoms: C_8  and  C_9 
REMARK    6  A    between atoms: C_8  and  N_16 
REMARK    7  A    between atoms: C_13  and  O_14 
REMARK    8  A    between atoms: N_16  and  C_17 
REMARK       I    between atoms: N_16  and  C_20 
REMARK    9  A    between atoms: C_17  and  C_18 
REMARK   10  A    between atoms: C_20  and  C_22 
REMARK   11  A    between atoms: C_22  and  O_23 
REMARK   12  A    between atoms: C_22  and  C_24 
REMARK   13  A    between atoms: C_22  and  C_30 
ROOT
ATOM      1  N   UNL d   1      28.750 -15.500  -2.442  0.00  0.00    -0.331 N 
ATOM      2  C   UNL d   1      28.276 -14.717  -1.335  0.00  0.00     0.265 C 
ATOM      3  O   UNL d   1      28.146 -13.492  -1.446  0.00  0.00    -0.269 OA
ENDROOT
BRANCH   1   4
ATOM      4  C   UNL d   1      28.940 -14.745  -3.793  0.00  0.00     0.212 C 
BRANCH   4   5
ATOM      5  C   UNL d   1      29.307 -15.484  -5.175  0.00  0.00     0.245 C 
ATOM      6  N   UNL d   1      30.441 -16.145  -5.493  0.00  0.00    -0.359 N 
ATOM      7  H   UNL d   1      31.217 -16.318  -4.877  0.00  0.00     0.162 HD
ATOM      8  O   UNL d   1      28.566 -15.566  -6.176  0.00  0.00    -0.271 OA
BRANCH   6   9
ATOM      9  C   UNL d   1      30.484 -16.550  -6.894  0.00  0.00     0.122 C 
BRANCH   9  10
ATOM     10  C   UNL d   1      31.181 -17.835  -7.067  0.00  0.00     0.019 C 
BRANCH  10  11
ATOM     11  C   UNL d   1      30.724 -18.790  -5.984  0.00  0.00    -0.003 C 
ATOM     12  C   UNL d   1      30.411 -20.094  -6.667  0.00  0.00     0.005 C 
ENDBRANCH  10  11
ENDBRANCH   9  10
ENDBRANCH   6   9
ENDBRANCH   4   5
BRANCH   4  13
ATOM     13  C   UNL d   1      27.734 -13.822  -4.043  0.00  0.00    -0.024 A 
ATOM     14  C   UNL d   1      27.903 -12.441  -4.208  0.00  0.00     0.010 A 
ATOM     15  C   UNL d   1      26.822 -11.616  -4.508  0.00  0.00     0.003 A 
ATOM     16  C   UNL d   1      25.532 -12.139  -4.535  0.00  0.00     0.036 A 
ATOM     17  C   UNL d   1      25.341 -13.489  -4.293  0.00  0.00     0.066 A 
ATOM     18  C   UNL d   1      26.423 -14.323  -4.082  0.00  0.00     0.046 A 
BRANCH  17  19
ATOM     19  O   UNL d   1      24.111 -14.073  -4.262  0.00  0.00    -0.361 OA
ATOM     20  H   UNL d   1      23.594 -13.752  -5.015  0.00  0.00     0.217 HD
ENDBRANCH  17  19
ENDBRANCH   4  13
ENDBRANCH   1   4
BRANCH   1  21
ATOM     21  C   UNL d   1      28.920 -16.973  -2.265  0.00  0.00     0.127 C 
BRANCH  21  22
ATOM     22  C   UNL d   1      30.295 -17.435  -2.083  0.00  0.00     0.015 C 
ATOM     23  C   UNL d   1      30.761 -18.590  -1.278  0.00  0.00     0.006 C 
ENDBRANCH  21  22
ENDBRANCH   1  21
BRANCH   2  24
ATOM     24  C   UNL d   1      28.003 -15.468   0.067  0.00  0.00     0.194 C 
BRANCH  24  25
ATOM     25  O   UNL d   1      29.012 -16.428   0.405  0.00  0.00    -0.371 OA
ATOM     26  H   UNL d   1      29.231 -16.362   1.338  0.00  0.00     0.212 HD
ENDBRANCH  24  25
BRANCH  24  27
ATOM     27  C   UNL d   1      27.841 -14.403   1.180  0.00  0.00    -0.010 C 
ATOM     28  C   UNL d   1      28.634 -14.443   2.330  0.00  0.00     0.011 C 
ATOM     29  C   UNL d   1      28.340 -13.591   3.392  0.00  0.00     0.001 C 
ATOM     30  C   UNL d   1      27.406 -12.561   3.244  0.00  0.00     0.000 C 
ATOM     31  C   UNL d   1      26.660 -12.459   2.087  0.00  0.00     0.001 C 
ATOM     32  C   UNL d   1      26.802 -13.440   1.127  0.00  0.00     0.011 C 
ENDBRANCH  24  27
BRANCH  24  33
ATOM     33  C   UNL d   1      26.725 -16.315  -0.064  0.00  0.00    -0.010 A 
ATOM     34  C   UNL d   1      26.627 -17.576   0.549  0.00  0.00     0.011 A 
ATOM     35  C   UNL d   1      25.560 -18.417   0.244  0.00  0.00     0.001 A 
ATOM     36  C   UNL d   1      24.531 -17.973  -0.586  0.00  0.00     0.000 A 
ATOM     37  C   UNL d   1      24.574 -16.698  -1.135  0.00  0.00     0.001 A 
ATOM     38  C   UNL d   1      25.670 -15.890  -0.892  0.00  0.00     0.011 A 
ENDBRANCH  24  33
ENDBRANCH   2  24
TORSDOF 13
ENDMDL
MODEL 3
REMARK VINA RESULT:    -7.729      3.302      6.847
REMARK INTER + INTRA:         -14.897
REMARK INTER:                 -11.607
REMARK INTRA:                  -3.290
REMARK CONF_INDEPENDENT:        3.878
REMARK UNBOUND:                -3.290
REMARK  13 active torsions:
REMARK  status: ('A' for Active; 'I' for Inactive)
REMARK    1  A    between atoms: C_2  and  C_3 
REMARK    2  A    between atoms: C_3  and  C_4 
REMARK    3  A    between atoms: C_4  and  N_5 
REMARK       I    between atoms: N_5  and  C_6 
REMARK    4  A    between atoms: C_6  and  C_8 
REMARK    5  A    between atoms: C_8  and  C_9 
REMARK    6  A    between atoms: C_8  and  N_16 
REMARK    7  A    between atoms: C_13  and  O_14 
REMARK    8  A    between atoms: N_16  and  C_17 
REMARK       I    between atoms: N_16  and  C_20 
REMARK    9  A    between atoms: C_17  and  C_18 
REMARK   10  A    between atoms: C_20  and  C_22 
REMARK   11  A    between atoms: C_22  and  O_23 
REMARK   12  A    between atoms: C_22  and  C_24 
REMARK   13  A    between atoms: C_22  and  C_30 
ROOT
ATOM      1  N   UNL d   1      26.109 -13.317  -2.309  0.00  0.00    -0.331 N 
ATOM      2  C   UNL d   1      25.462 -14.597  -2.233  0.00  0.00     0.265 C 
ATOM      3  O   UNL d   1      24.643 -14.937  -3.095  0.00  0.00    -0.269 OA
ENDROOT
BRANCH   1   4
ATOM      4  C   UNL d   1      25.829 -12.476  -3.592  0.00  0.00     0.212 C 
BRANCH   4   5
ATOM      5  C   UNL d   1      25.760 -10.868  -3.597  0.00  0.00     0.245 C 
ATOM      6  N   UNL d   1      25.231 -10.057  -4.540  0.00  0.00    -0.359 N 
ATOM      7  H   UNL d   1      24.744 -10.353  -5.368  0.00  0.00     0.162 HD
ATOM      8  O   UNL d   1      26.189 -10.117  -2.697  0.00  0.00    -0.271 OA
BRANCH   6   9
ATOM      9  C   UNL d   1      25.493  -8.646  -4.282  0.00  0.00     0.122 C 
BRANCH   9  10
ATOM     10  C   UNL d   1      25.053  -7.797  -5.402  0.00  0.00     0.019 C 
BRANCH  10  11
ATOM     11  C   UNL d   1      23.627  -8.161  -5.761  0.00  0.00    -0.003 C 
ATOM     12  C   UNL d   1      22.777  -6.974  -5.395  0.00  0.00     0.005 C 
ENDBRANCH  10  11
ENDBRANCH   9  10
ENDBRANCH   6   9
ENDBRANCH   4   5
BRANCH   4  13
ATOM     13  C   UNL d   1      26.776 -12.924  -4.720  0.00  0.00    -0.024 A 
ATOM     14  C   UNL d   1      27.131 -12.048  -5.755  0.00  0.00     0.010 A 
ATOM     15  C   UNL d   1      28.046 -12.428  -6.734  0.00  0.00     0.003 A 
ATOM     16  C   UNL d   1      28.536 -13.731  -6.763  0.00  0.00     0.036 A 
ATOM     17  C   UNL d   1      28.130 -14.631  -5.792  0.00  0.00     0.066 A 
ATOM     18  C   UNL d   1      27.290 -14.229  -4.771  0.00  0.00     0.046 A 
BRANCH  17  19
ATOM     19  O   UNL d   1      28.530 -15.933  -5.770  0.00  0.00    -0.361 OA
ATOM     20  H   UNL d   1      28.538 -16.241  -4.852  0.00  0.00     0.217 HD
ENDBRANCH  17  19
ENDBRANCH   4  13
ENDBRANCH   1   4
BRANCH   1  21
ATOM     21  C   UNL d   1      27.073 -12.929  -1.237  0.00  0.00     0.127 C 
BRANCH  21  22
ATOM     22  C   UNL d   1      28.409 -12.551  -1.692  0.00  0.00     0.015 C 
ATOM     23  C   UNL d   1      29.644 -13.371  -1.648  0.00  0.00     0.006 C 
ENDBRANCH  21  22
ENDBRANCH   1  21
BRANCH   2  24
ATOM     24  C   UNL d   1      25.772 -15.531  -0.953  0.00  0.00     0.194 C 
BRANCH  24  25
ATOM     25  O   UNL d   1      25.904 -14.796   0.270  0.00  0.00    -0.371 OA
ATOM     26  H   UNL d   1      26.259 -15.363   0.960  0.00  0.00     0.212 HD
ENDBRANCH  24  25
BRANCH  24  27
ATOM     27  C   UNL d   1      24.669 -16.612  -0.846  0.00  0.00    -0.010 C 
ATOM     28  C   UNL d   1      23.316 -16.263  -0.898  0.00  0.00     0.011 C 
ATOM     29  C   UNL d   1      22.351 -17.226  -0.612  0.00  0.00     0.001 C 
ATOM     30  C   UNL d   1      22.702 -18.573  -0.483  0.00  0.00     0.000 C 
ATOM     31  C   UNL d   1      24.029 -18.951  -0.499  0.00  0.00     0.001 C 
ATOM     32  C   UNL d   1      24.992 -17.963  -0.563  0.00  0.00     0.011 C 
ENDBRANCH  24  27
BRANCH  24  33
ATOM     33  C   UNL d   1      27.154 -16.182  -1.137  0.00  0.00    -0.010 A 
ATOM     34  C   UNL d   1      27.898 -16.624  -0.030  0.00  0.00     0.011 A 
ATOM     35  C   UNL d   1      29.227 -17.008  -0.192  0.00  0.00     0.001 A 
ATOM     36  C   UNL d   1      29.792 -17.057  -1.466  0.00  0.00     0.000 A 
ATOM     37  C   UNL d   1      29.044 -16.700  -2.580  0.00  0.00     0.001 A 
ATOM     38  C   UNL d   1      27.748 -16.248  -2.411  0.00  0.00     0.011 A 
ENDBRANCH  24  33
ENDBRANCH   2  24
TORSDOF 13
ENDMDL
MODEL 4
REMARK VINA RESULT:    -7.665      2.176      6.280
REMARK INTER + INTRA:         -15.161
REMARK INTER:                 -11.542
REMARK INTRA:                  -3.619
REMARK CONF_INDEPENDENT:        3.878
REMARK UNBOUND:                -3.619
REMARK  13 active torsions:
REMARK  status: ('A' for Active; 'I' for Inactive)
REMARK    1  A    between atoms: C_2  and  C_3 
REMARK    2  A    between atoms: C_3  and  C_4 
REMARK    3  A    between atoms: C_4  and  N_5 
REMARK       I    between atoms: N_5  and  C_6 
REMARK    4  A    between atoms: C_6  and  C_8 
REMARK    5  A    between atoms: C_8  and  C_9 
REMARK    6  A    between atoms: C_8  and  N_16 
REMARK    7  A    between atoms: C_13  and  O_14 
REMARK    8  A    between atoms: N_16  and  C_17 
REMARK       I    between atoms: N_16  and  C_20 
REMARK    9  A    between atoms: C_17  and  C_18 
REMARK   10  A    between atoms: C_20  and  C_22 
REMARK   11  A    between atoms: C_22  and  O_23 
REMARK   12  A    between atoms: C_22  and  C_24 
REMARK   13  A    between atoms: C_22  and  C_30 
ROOT
ATOM      1  N   UNL d   1      26.894 -14.662  -2.370  0.00  0.00    -0.331 N 
ATOM      2  C   UNL d   1      26.316 -15.227  -3.558  0.00  0.00     0.265 C 
ATOM      3  O   UNL d   1      25.339 -15.981  -3.481  0.00  0.00    -0.269 OA
ENDROOT
BRANCH   1   4
ATOM      4  C   UNL d   1      26.137 -14.937  -1.035  0.00  0.00     0.212 C 
BRANCH   4   5
ATOM      5  C   UNL d   1      25.504 -16.368  -0.656  0.00  0.00     0.245 C 
ATOM      6  N   UNL d   1      24.445 -16.988  -1.222  0.00  0.00    -0.359 N 
ATOM      7  H   UNL d   1      23.922 -16.660  -2.015  0.00  0.00     0.162 HD
ATOM      8  O   UNL d   1      25.921 -17.137   0.233  0.00  0.00    -0.271 OA
BRANCH   6   9
ATOM      9  C   UNL d   1      24.059 -18.203  -0.512  0.00  0.00     0.122 C 
BRANCH   9  10
ATOM     10  C   UNL d   1      22.896 -18.853  -1.140  0.00  0.00     0.019 C 
BRANCH  10  11
ATOM     11  C   UNL d   1      21.762 -18.901  -0.136  0.00  0.00    -0.003 C 
ATOM     12  C   UNL d   1      20.534 -19.323  -0.897  0.00  0.00     0.005 C 
ENDBRANCH  10  11
ENDBRANCH   9  10
ENDBRANCH   6   9
ENDBRANCH   4   5
BRANCH   4  13
ATOM     13  C   UNL d   1      26.992 -14.456   0.151  0.00  0.00    -0.024 A 
ATOM     14  C   UNL d   1      26.544 -13.432   0.996  0.00  0.00     0.010 A 
ATOM     15  C   UNL d   1      27.282 -13.049   2.113  0.00  0.00     0.003 A 
ATOM     16  C   UNL d   1      28.539 -13.602   2.342  0.00  0.00     0.036 A 
ATOM     17  C   UNL d   1      29.030 -14.558   1.469  0.00  0.00     0.066 A 
ATOM     18  C   UNL d   1      28.260 -15.001   0.410  0.00  0.00     0.046 A 
BRANCH  17  19
ATOM     19  O   UNL d   1      30.263 -15.120   1.597  0.00  0.00    -0.361 OA
ATOM     20  H   UNL d   1      30.179 -15.950   2.088  0.00  0.00     0.217 HD
ENDBRANCH  17  19
ENDBRANCH   4  13
ENDBRANCH   1   4
BRANCH   1  21
ATOM     21  C   UNL d   1      28.090 -13.777  -2.498  0.00  0.00     0.127 C 
BRANCH  21  22
ATOM     22  C   UNL d   1      27.909 -12.398  -2.051  0.00  0.00     0.015 C 
ATOM     23  C   UNL d   1      26.655 -11.605  -2.051  0.00  0.00     0.006 C 
ENDBRANCH  21  22
ENDBRANCH   1  21
BRANCH   2  24
ATOM     24  C   UNL d   1      27.029 -14.916  -4.972  0.00  0.00     0.194 C 
BRANCH  24  25
ATOM     25  O   UNL d   1      26.406 -15.575  -6.082  0.00  0.00    -0.371 OA
ATOM     26  H   UNL d   1      25.653 -16.090  -5.780  0.00  0.00     0.212 HD
ENDBRANCH  24  25
BRANCH  24  27
ATOM     27  C   UNL d   1      27.078 -13.382  -5.180  0.00  0.00    -0.010 C 
ATOM     28  C   UNL d   1      25.929 -12.602  -5.021  0.00  0.00     0.011 C 
ATOM     29  C   UNL d   1      25.958 -11.260  -5.396  0.00  0.00     0.001 C 
ATOM     30  C   UNL d   1      27.164 -10.637  -5.725  0.00  0.00     0.000 C 
ATOM     31  C   UNL d   1      28.327 -11.375  -5.819  0.00  0.00     0.001 C 
ATOM     32  C   UNL d   1      28.248 -12.745  -5.661  0.00  0.00     0.011 C 
ENDBRANCH  24  27
BRANCH  24  33
ATOM     33  C   UNL d   1      28.451 -15.506  -4.952  0.00  0.00    -0.010 A 
ATOM     34  C   UNL d   1      29.277 -15.439  -6.087  0.00  0.00     0.011 A 
ATOM     35  C   UNL d   1      30.467 -16.162  -6.124  0.00  0.00     0.001 A 
ATOM     36  C   UNL d   1      30.895 -16.868  -5.000  0.00  0.00     0.000 A 
ATOM     37  C   UNL d   1      30.128 -16.876  -3.843  0.00  0.00     0.001 A 
ATOM     38  C   UNL d   1      28.911 -16.220  -3.830  0.00  0.00     0.011 A 
ENDBRANCH  24  33
ENDBRANCH   2  24
TORSDOF 13
ENDMDL
MODEL 5
REMARK VINA RESULT:    -7.414      1.541      2.133
REMARK INTER + INTRA:         -14.506
REMARK INTER:                 -11.292
REMARK INTRA:                  -3.214
REMARK CONF_INDEPENDENT:        3.878
REMARK UNBOUND:                -3.214
REMARK  13 active torsions:
REMARK  status: ('A' for Active; 'I' for Inactive)
REMARK    1  A    between atoms: C_2  and  C_3 
REMARK    2  A    between atoms: C_3  and  C_4 
REMARK    3  A    between atoms: C_4  and  N_5 
REMARK       I    between atoms: N_5  and  C_6 
REMARK    4  A    between atoms: C_6  and  C_8 
REMARK    5  A    between atoms: C_8  and  C_9 
REMARK    6  A    between atoms: C_8  and  N_16 
REMARK    7  A    between atoms: C_13  and  O_14 
REMARK    8  A    between atoms: N_16  and  C_17 
REMARK       I    between atoms: N_16  and  C_20 
REMARK    9  A    between atoms: C_17  and  C_18 
REMARK   10  A    between atoms: C_20  and  C_22 
REMARK   11  A    between atoms: C_22  and  O_23 
REMARK   12  A    between atoms: C_22  and  C_24 
REMARK   13  A    between atoms: C_22  and  C_30 
ROOT
ATOM      1  N   UNL d   1      28.303 -15.660  -0.504  0.00  0.00    -0.331 N 
ATOM      2  C   UNL d   1      27.843 -14.892   0.619  0.00  0.00     0.265 C 
ATOM      3  O   UNL d   1      26.635 -14.820   0.874  0.00  0.00    -0.269 OA
ENDROOT
BRANCH   1   4
ATOM      4  C   UNL d   1      27.223 -16.491  -1.264  0.00  0.00     0.212 C 
BRANCH   4   5
ATOM      5  C   UNL d   1      26.044 -17.297  -0.521  0.00  0.00     0.245 C 
ATOM      6  N   UNL d   1      24.788 -17.530  -0.959  0.00  0.00    -0.359 N 
ATOM      7  H   UNL d   1      24.418 -17.273  -1.858  0.00  0.00     0.162 HD
ATOM      8  O   UNL d   1      26.129 -17.848   0.595  0.00  0.00    -0.271 OA
BRANCH   6   9
ATOM      9  C   UNL d   1      23.945 -18.158   0.053  0.00  0.00     0.122 C 
BRANCH   9  10
ATOM     10  C   UNL d   1      22.520 -17.850  -0.158  0.00  0.00     0.019 C 
BRANCH  10  11
ATOM     11  C   UNL d   1      21.908 -18.932  -1.024  0.00  0.00    -0.003 C 
ATOM     12  C   UNL d   1      20.623 -19.340  -0.355  0.00  0.00     0.005 C 
ENDBRANCH  10  11
ENDBRANCH   9  10
ENDBRANCH   6   9
ENDBRANCH   4   5
BRANCH   4  13
ATOM     13  C   UNL d   1      26.596 -15.630  -2.374  0.00  0.00    -0.024 A 
ATOM     14  C   UNL d   1      25.439 -14.876  -2.137  0.00  0.00     0.010 A 
ATOM     15  C   UNL d   1      24.915 -14.039  -3.118  0.00  0.00     0.003 A 
ATOM     16  C   UNL d   1      25.471 -14.025  -4.394  0.00  0.00     0.036 A 
ATOM     17  C   UNL d   1      26.566 -14.827  -4.667  0.00  0.00     0.066 A 
ATOM     18  C   UNL d   1      27.140 -15.592  -3.668  0.00  0.00     0.046 A 
BRANCH  17  19
ATOM     19  O   UNL d   1      27.145 -14.904  -5.896  0.00  0.00    -0.361 OA
ATOM     20  H   UNL d   1      26.680 -15.573  -6.419  0.00  0.00     0.217 HD
ENDBRANCH  17  19
ENDBRANCH   4  13
ENDBRANCH   1   4
BRANCH   1  21
ATOM     21  C   UNL d   1      29.766 -15.704  -0.800  0.00  0.00     0.127 C 
BRANCH  21  22
ATOM     22  C   UNL d   1      30.226 -16.866  -1.557  0.00  0.00     0.015 C 
ATOM     23  C   UNL d   1      30.151 -17.078  -3.023  0.00  0.00     0.006 C 
ENDBRANCH  21  22
ENDBRANCH   1  21
BRANCH   2  24
ATOM     24  C   UNL d   1      28.934 -14.066   1.474  0.00  0.00     0.194 C 
BRANCH  24  25
ATOM     25  O   UNL d   1      30.128 -14.811   1.744  0.00  0.00    -0.371 OA
ATOM     26  H   UNL d   1      29.913 -15.733   1.906  0.00  0.00     0.212 HD
ENDBRANCH  24  25
BRANCH  24  27
ATOM     27  C   UNL d   1      29.249 -12.742   0.735  0.00  0.00    -0.010 C 
ATOM     28  C   UNL d   1      30.451 -12.066   0.959  0.00  0.00     0.011 C 
ATOM     29  C   UNL d   1      30.626 -10.790   0.428  0.00  0.00     0.001 C 
ATOM     30  C   UNL d   1      29.713 -10.268  -0.492  0.00  0.00     0.000 C 
ATOM     31  C   UNL d   1      28.550 -10.952  -0.784  0.00  0.00     0.001 C 
ATOM     32  C   UNL d   1      28.280 -12.113  -0.086  0.00  0.00     0.011 C 
ENDBRANCH  24  27
BRANCH  24  33
ATOM     33  C   UNL d   1      28.357 -13.783   2.873  0.00  0.00    -0.010 A 
ATOM     34  C   UNL d   1      28.092 -12.468   3.292  0.00  0.00     0.011 A 
ATOM     35  C   UNL d   1      27.780 -12.212   4.624  0.00  0.00     0.001 A 
ATOM     36  C   UNL d   1      27.625 -13.267   5.524  0.00  0.00     0.000 A 
ATOM     37  C   UNL d   1      27.805 -14.578   5.105  0.00  0.00     0.001 A 
ATOM     38  C   UNL d   1      28.188 -14.827   3.799  0.00  0.00     0.011 A 
ENDBRANCH  24  33
ENDBRANCH   2  24
TORSDOF 13
ENDMDL
MODEL 6
REMARK VINA RESULT:    -7.050      1.768      7.566
REMARK INTER + INTRA:         -14.622
REMARK INTER:                 -10.928
REMARK INTRA:                  -3.694
REMARK CONF_INDEPENDENT:        3.878
REMARK UNBOUND:                -3.694
REMARK  13 active torsions:
REMARK  status: ('A' for Active; 'I' for Inactive)
REMARK    1  A    between atoms: C_2  and  C_3 
REMARK    2  A    between atoms: C_3  and  C_4 
REMARK    3  A    between atoms: C_4  and  N_5 
REMARK       I    between atoms: N_5  and  C_6 
REMARK    4  A    between atoms: C_6  and  C_8 
REMARK    5  A    between atoms: C_8  and  C_9 
REMARK    6  A    between atoms: C_8  and  N_16 
REMARK    7  A    between atoms: C_13  and  O_14 
REMARK    8  A    between atoms: N_16  and  C_17 
REMARK       I    between atoms: N_16  and  C_20 
REMARK    9  A    between atoms: C_17  and  C_18 
REMARK   10  A    between atoms: C_20  and  C_22 
REMARK   11  A    between atoms: C_22  and  O_23 
REMARK   12  A    between atoms: C_22  and  C_24 
REMARK   13  A    between atoms: C_22  and  C_30 
ROOT
ATOM      1  N   UNL d   1      28.563 -14.205   0.303  0.00  0.00    -0.331 N 
ATOM      2  C   UNL d   1      27.183 -14.512   0.051  0.00  0.00     0.265 C 
ATOM      3  O   UNL d   1      26.291 -13.987   0.727  0.00  0.00    -0.269 OA
ENDROOT
BRANCH   1   4
ATOM      4  C   UNL d   1      28.842 -13.086   1.353  0.00  0.00     0.212 C 
BRANCH   4   5
ATOM      5  C   UNL d   1      28.225 -11.603   1.251  0.00  0.00     0.245 C 
ATOM      6  N   UNL d   1      26.926 -11.244   1.154  0.00  0.00    -0.359 N 
ATOM      7  H   UNL d   1      26.137 -11.866   1.187  0.00  0.00     0.162 HD
ATOM      8  O   UNL d   1      28.879 -10.540   1.259  0.00  0.00    -0.271 OA
BRANCH   6   9
ATOM      9  C   UNL d   1      26.753  -9.815   0.918  0.00  0.00     0.122 C 
BRANCH   9  10
ATOM     10  C   UNL d   1      26.023  -9.167   2.021  0.00  0.00     0.019 C 
BRANCH  10  11
ATOM     11  C   UNL d   1      26.279  -9.940   3.298  0.00  0.00    -0.003 C 
ATOM     12  C   UNL d   1      27.529  -9.362   3.905  0.00  0.00     0.005 C 
ENDBRANCH  10  11
ENDBRANCH   9  10
ENDBRANCH   6   9
ENDBRANCH   4   5
BRANCH   4  13
ATOM     13  C   UNL d   1      28.569 -13.628   2.768  0.00  0.00    -0.024 A 
ATOM     14  C   UNL d   1      27.298 -13.519   3.349  0.00  0.00     0.010 A 
ATOM     15  C   UNL d   1      27.030 -14.075   4.597  0.00  0.00     0.003 A 
ATOM     16  C   UNL d   1      28.057 -14.651   5.340  0.00  0.00     0.036 A 
ATOM     17  C   UNL d   1      29.337 -14.692   4.812  0.00  0.00     0.066 A 
ATOM     18  C   UNL d   1      29.584 -14.219   3.537  0.00  0.00     0.046 A 
BRANCH  17  19
ATOM     19  O   UNL d   1      30.405 -15.200   5.486  0.00  0.00    -0.361 OA
ATOM     20  H   UNL d   1      31.218 -14.918   5.042  0.00  0.00     0.217 HD
ENDBRANCH  17  19
ENDBRANCH   4  13
ENDBRANCH   1   4
BRANCH   1  21
ATOM     21  C   UNL d   1      29.615 -14.878  -0.516  0.00  0.00     0.127 C 
BRANCH  21  22
ATOM     22  C   UNL d   1      30.397 -15.902   0.175  0.00  0.00     0.015 C 
ATOM     23  C   UNL d   1      31.808 -15.812   0.624  0.00  0.00     0.006 C 
ENDBRANCH  21  22
ENDBRANCH   1  21
BRANCH   2  24
ATOM     24  C   UNL d   1      26.843 -15.618  -1.075  0.00  0.00     0.194 C 
BRANCH  24  25
ATOM     25  O   UNL d   1      27.917 -16.536  -1.314  0.00  0.00    -0.371 OA
ATOM     26  H   UNL d   1      28.084 -17.062  -0.527  0.00  0.00     0.212 HD
ENDBRANCH  24  25
BRANCH  24  27
ATOM     27  C   UNL d   1      25.546 -16.360  -0.669  0.00  0.00    -0.010 C 
ATOM     28  C   UNL d   1      25.588 -17.452   0.202  0.00  0.00     0.011 C 
ATOM     29  C   UNL d   1      24.437 -18.213   0.399  0.00  0.00     0.001 C 
ATOM     30  C   UNL d   1      23.202 -17.779  -0.089  0.00  0.00     0.000 C 
ATOM     31  C   UNL d   1      23.126 -16.660  -0.895  0.00  0.00     0.001 C 
ATOM     32  C   UNL d   1      24.301 -16.038  -1.266  0.00  0.00     0.011 C 
ENDBRANCH  24  27
BRANCH  24  33
ATOM     33  C   UNL d   1      26.662 -14.909  -2.429  0.00  0.00    -0.010 A 
ATOM     34  C   UNL d   1      26.087 -13.629  -2.503  0.00  0.00     0.011 A 
ATOM     35  C   UNL d   1      25.732 -13.096  -3.739  0.00  0.00     0.001 A 
ATOM     36  C   UNL d   1      26.043 -13.782  -4.914  0.00  0.00     0.000 A 
ATOM     37  C   UNL d   1      26.685 -15.011  -4.860  0.00  0.00     0.001 A 
ATOM     38  C   UNL d   1      26.970 -15.575  -3.629  0.00  0.00     0.011 A 
ENDBRANCH  24  33
ENDBRANCH   2  24
TORSDOF 13
ENDMDL
MODEL 7
REMARK VINA RESULT:    -7.049      1.444      3.292
REMARK INTER + INTRA:         -14.689
REMARK INTER:                 -10.926
REMARK INTRA:                  -3.763
REMARK CONF_INDEPENDENT:        3.878
REMARK UNBOUND:                -3.763
REMARK  13 active torsions:
REMARK  status: ('A' for Active; 'I' for Inactive)
REMARK    1  A    between atoms: C_2  and  C_3 
REMARK    2  A    between atoms: C_3  and  C_4 
REMARK    3  A    between atoms: C_4  and  N_5 
REMARK       I    between atoms: N_5  and  C_6 
REMARK    4  A    between atoms: C_6  and  C_8 
REMARK    5  A    between atoms: C_8  and  C_9 
REMARK    6  A    between atoms: C_8  and  N_16 
REMARK    7  A    between atoms: C_13  and  O_14 
REMARK    8  A    between atoms: N_16  and  C_17 
REMARK       I    between atoms: N_16  and  C_20 
REMARK    9  A    between atoms: C_17  and  C_18 
REMARK   10  A    between atoms: C_20  and  C_22 
REMARK   11  A    between atoms: C_22  and  O_23 
REMARK   12  A    between atoms: C_22  and  C_24 
REMARK   13  A    between atoms: C_22  and  C_30 
ROOT
ATOM      1  N   UNL d   1      27.988 -15.218   0.025  0.00  0.00    -0.331 N 
ATOM      2  C   UNL d   1      27.072 -14.231   0.526  0.00  0.00     0.265 C 
ATOM      3  O   UNL d   1      25.898 -14.214   0.139  0.00  0.00    -0.269 OA
ENDROOT
BRANCH   1   4
ATOM      4  C   UNL d   1      27.381 -16.321  -0.896  0.00  0.00     0.212 C 
BRANCH   4   5
ATOM      5  C   UNL d   1      26.099 -17.205  -0.489  0.00  0.00     0.245 C 
ATOM      6  N   UNL d   1      24.847 -16.781  -0.209  0.00  0.00    -0.359 N 
ATOM      7  H   UNL d   1      24.517 -15.834  -0.268  0.00  0.00     0.162 HD
ATOM      8  O   UNL d   1      26.075 -18.448  -0.385  0.00  0.00    -0.271 OA
BRANCH   6   9
ATOM      9  C   UNL d   1      23.984 -17.853   0.276  0.00  0.00     0.122 C 
BRANCH   9  10
ATOM     10  C   UNL d   1      22.641 -17.783  -0.322  0.00  0.00     0.019 C 
BRANCH  10  11
ATOM     11  C   UNL d   1      22.120 -19.192  -0.522  0.00  0.00    -0.003 C 
ATOM     12  C   UNL d   1      20.669 -19.062  -0.901  0.00  0.00     0.005 C 
ENDBRANCH  10  11
ENDBRANCH   9  10
ENDBRANCH   6   9
ENDBRANCH   4   5
BRANCH   4  13
ATOM     13  C   UNL d   1      27.144 -15.744  -2.304  0.00  0.00    -0.024 A 
ATOM     14  C   UNL d   1      28.202 -15.599  -3.211  0.00  0.00     0.010 A 
ATOM     15  C   UNL d   1      27.977 -15.149  -4.510  0.00  0.00     0.003 A 
ATOM     16  C   UNL d   1      26.706 -14.724  -4.891  0.00  0.00     0.036 A 
ATOM     17  C   UNL d   1      25.667 -14.786  -3.977  0.00  0.00     0.066 A 
ATOM     18  C   UNL d   1      25.873 -15.315  -2.717  0.00  0.00     0.046 A 
BRANCH  17  19
ATOM     19  O   UNL d   1      24.406 -14.355  -4.254  0.00  0.00    -0.361 OA
ATOM     20  H   UNL d   1      24.427 -13.833  -5.070  0.00  0.00     0.217 HD
ENDBRANCH  17  19
ENDBRANCH   4  13
ENDBRANCH   1   4
BRANCH   1  21
ATOM     21  C   UNL d   1      29.405 -15.193   0.493  0.00  0.00     0.127 C 
BRANCH  21  22
ATOM     22  C   UNL d   1      30.375 -15.843  -0.386  0.00  0.00     0.015 C 
ATOM     23  C   UNL d   1      31.229 -17.016  -0.080  0.00  0.00     0.006 C 
ENDBRANCH  21  22
ENDBRANCH   1  21
BRANCH   2  24
ATOM     24  C   UNL d   1      27.642 -13.108   1.534  0.00  0.00     0.194 C 
BRANCH  24  25
ATOM     25  O   UNL d   1      26.665 -12.127   1.906  0.00  0.00    -0.371 OA
ATOM     26  H   UNL d   1      25.827 -12.315   1.474  0.00  0.00     0.212 HD
ENDBRANCH  24  25
BRANCH  24  27
ATOM     27  C   UNL d   1      28.239 -13.810   2.778  0.00  0.00    -0.010 C 
ATOM     28  C   UNL d   1      27.407 -14.371   3.752  0.00  0.00     0.011 C 
ATOM     29  C   UNL d   1      27.963 -14.827   4.945  0.00  0.00     0.001 C 
ATOM     30  C   UNL d   1      29.349 -14.926   5.095  0.00  0.00     0.000 C 
ATOM     31  C   UNL d   1      30.191 -14.443   4.114  0.00  0.00     0.001 C 
ATOM     32  C   UNL d   1      29.633 -13.793   3.032  0.00  0.00     0.011 C 
ENDBRANCH  24  27
BRANCH  24  33
ATOM     33  C   UNL d   1      28.721 -12.287   0.805  0.00  0.00    -0.010 A 
ATOM     34  C   UNL d   1      29.491 -11.333   1.492  0.00  0.00     0.011 A 
ATOM     35  C   UNL d   1      30.303 -10.453   0.782  0.00  0.00     0.001 A 
ATOM     36  C   UNL d   1      30.438 -10.582  -0.600  0.00  0.00     0.000 A 
ATOM     37  C   UNL d   1      29.746 -11.573  -1.283  0.00  0.00     0.001 A 
ATOM     38  C   UNL d   1      28.882 -12.400  -0.588  0.00  0.00     0.011 A 
ENDBRANCH  24  33
ENDBRANCH   2  24
TORSDOF 13
ENDMDL
MODEL 8
REMARK VINA RESULT:    -7.039      2.316      7.194
REMARK INTER + INTRA:         -14.620
REMARK INTER:                 -10.917
REMARK INTRA:                  -3.702
REMARK CONF_INDEPENDENT:        3.878
REMARK UNBOUND:                -3.702
REMARK  13 active torsions:
REMARK  status: ('A' for Active; 'I' for Inactive)
REMARK    1  A    between atoms: C_2  and  C_3 
REMARK    2  A    between atoms: C_3  and  C_4 
REMARK    3  A    between atoms: C_4  and  N_5 
REMARK       I    between atoms: N_5  and  C_6 
REMARK    4  A    between atoms: C_6  and  C_8 
REMARK    5  A    between atoms: C_8  and  C_9 
REMARK    6  A    between atoms: C_8  and  N_16 
REMARK    7  A    between atoms: C_13  and  O_14 
REMARK    8  A    between atoms: N_16  and  C_17 
REMARK       I    between atoms: N_16  and  C_20 
REMARK    9  A    between atoms: C_17  and  C_18 
REMARK   10  A    between atoms: C_20  and  C_22 
REMARK   11  A    between atoms: C_22  and  O_23 
REMARK   12  A    between atoms: C_22  and  C_24 
REMARK   13  A    between atoms: C_22  and  C_30 
ROOT
ATOM      1  N   UNL d   1      28.695 -14.660  -0.528  0.00  0.00    -0.331 N 
ATOM      2  C   UNL d   1      27.452 -15.329  -0.257  0.00  0.00     0.265 C 
ATOM      3  O   UNL d   1      27.072 -15.493   0.908  0.00  0.00    -0.269 OA
ENDROOT
BRANCH   1   4
ATOM      4  C   UNL d   1      29.432 -14.046   0.702  0.00  0.00     0.212 C 
BRANCH   4   5
ATOM      5  C   UNL d   1      28.678 -13.597   2.051  0.00  0.00     0.245 C 
ATOM      6  N   UNL d   1      28.039 -14.377   2.950  0.00  0.00    -0.359 N 
ATOM      7  H   UNL d   1      27.988 -15.381   2.930  0.00  0.00     0.162 HD
ATOM      8  O   UNL d   1      28.584 -12.428   2.479  0.00  0.00    -0.271 OA
BRANCH   6   9
ATOM      9  C   UNL d   1      27.334 -13.605   3.967  0.00  0.00     0.122 C 
BRANCH   9  10
ATOM     10  C   UNL d   1      27.794 -13.946   5.324  0.00  0.00     0.019 C 
BRANCH  10  11
ATOM     11  C   UNL d   1      28.944 -14.927   5.219  0.00  0.00    -0.003 C 
ATOM     12  C   UNL d   1      30.003 -14.450   6.175  0.00  0.00     0.005 C 
ENDBRANCH  10  11
ENDBRANCH   9  10
ENDBRANCH   6   9
ENDBRANCH   4   5
BRANCH   4  13
ATOM     13  C   UNL d   1      30.624 -14.939   1.088  0.00  0.00    -0.024 A 
ATOM     14  C   UNL d   1      31.630 -14.470   1.943  0.00  0.00     0.010 A 
ATOM     15  C   UNL d   1      32.669 -15.303   2.353  0.00  0.00     0.003 A 
ATOM     16  C   UNL d   1      32.786 -16.585   1.824  0.00  0.00     0.036 A 
ATOM     17  C   UNL d   1      31.843 -17.033   0.914  0.00  0.00     0.066 A 
ATOM     18  C   UNL d   1      30.764 -16.238   0.575  0.00  0.00     0.046 A 
BRANCH  17  19
ATOM     19  O   UNL d   1      31.905 -18.256   0.319  0.00  0.00    -0.361 OA
ATOM     20  H   UNL d   1      31.142 -18.781   0.605  0.00  0.00     0.217 HD
ENDBRANCH  17  19
ENDBRANCH   4  13
ENDBRANCH   1   4
BRANCH   1  21
ATOM     21  C   UNL d   1      29.137 -14.502  -1.945  0.00  0.00     0.127 C 
BRANCH  21  22
ATOM     22  C   UNL d   1      30.276 -15.324  -2.349  0.00  0.00     0.015 C 
ATOM     23  C   UNL d   1      30.246 -16.606  -3.095  0.00  0.00     0.006 C 
ENDBRANCH  21  22
ENDBRANCH   1  21
BRANCH   2  24
ATOM     24  C   UNL d   1      26.622 -15.925  -1.505  0.00  0.00     0.194 C 
BRANCH  24  25
ATOM     25  O   UNL d   1      27.405 -16.767  -2.361  0.00  0.00    -0.371 OA
ATOM     26  H   UNL d   1      28.136 -17.149  -1.869  0.00  0.00     0.212 HD
ENDBRANCH  24  25
BRANCH  24  27
ATOM     27  C   UNL d   1      25.377 -16.671  -0.965  0.00  0.00    -0.010 C 
ATOM     28  C   UNL d   1      25.515 -17.822  -0.184  0.00  0.00     0.011 C 
ATOM     29  C   UNL d   1      24.385 -18.575   0.128  0.00  0.00     0.001 C 
ATOM     30  C   UNL d   1      23.104 -18.087  -0.145  0.00  0.00     0.000 C 
ATOM     31  C   UNL d   1      22.943 -16.914  -0.854  0.00  0.00     0.001 C 
ATOM     32  C   UNL d   1      24.068 -16.288  -1.351  0.00  0.00     0.011 C 
ENDBRANCH  24  27
BRANCH  24  33
ATOM     33  C   UNL d   1      26.202 -14.763  -2.423  0.00  0.00    -0.010 A 
ATOM     34  C   UNL d   1      25.970 -14.972  -3.793  0.00  0.00     0.011 A 
ATOM     35  C   UNL d   1      25.806 -13.883  -4.645  0.00  0.00     0.001 A 
ATOM     36  C   UNL d   1      25.765 -12.588  -4.129  0.00  0.00     0.000 A 
ATOM     37  C   UNL d   1      25.912 -12.372  -2.765  0.00  0.00     0.001 A 
ATOM     38  C   UNL d   1      26.149 -13.447  -1.929  0.00  0.00     0.011 A 
ENDBRANCH  24  33
ENDBRANCH   2  24
TORSDOF 13
ENDMDL
MODEL 9
REMARK VINA RESULT:    -6.678      2.215      6.158
REMARK INTER + INTRA:         -14.481
REMARK INTER:                 -10.556
REMARK INTRA:                  -3.925
REMARK CONF_INDEPENDENT:        3.878
REMARK UNBOUND:                -3.925
REMARK  13 active torsions:
REMARK  status: ('A' for Active; 'I' for Inactive)
REMARK    1  A    between atoms: C_2  and  C_3 
REMARK    2  A    between atoms: C_3  and  C_4 
REMARK    3  A    between atoms: C_4  and  N_5 
REMARK       I    between atoms: N_5  and  C_6 
REMARK    4  A    between atoms: C_6  and  C_8 
REMARK    5  A    between atoms: C_8  and  C_9 
REMARK    6  A    between atoms: C_8  and  N_16 
REMARK    7  A    between atoms: C_13  and  O_14 
REMARK    8  A    between atoms: N_16  and  C_17 
REMARK       I    between atoms: N_16  and  C_20 
REMARK    9  A    between atoms: C_17  and  C_18 
REMARK   10  A    between atoms: C_20  and  C_22 
REMARK   11  A    between atoms: C_22  and  O_23 
REMARK   12  A    between atoms: C_22  and  C_24 
REMARK   13  A    between atoms: C_22  and  C_30 
ROOT
ATOM      1  N   UNL d   1      27.520 -16.025  -0.649  0.00  0.00    -0.331 N 
ATOM      2  C   UNL d   1      28.929 -15.753  -0.725  0.00  0.00     0.265 C 
ATOM      3  O   UNL d   1      29.354 -14.605  -0.552  0.00  0.00    -0.269 OA
ENDROOT
BRANCH   1   4
ATOM      4  C   UNL d   1      26.610 -14.841  -0.200  0.00  0.00     0.212 C 
BRANCH   4   5
ATOM      5  C   UNL d   1      26.955 -13.885   1.049  0.00  0.00     0.245 C 
ATOM      6  N   UNL d   1      28.098 -13.831   1.767  0.00  0.00    -0.359 N 
ATOM      7  H   UNL d   1      28.936 -14.356   1.587  0.00  0.00     0.162 HD
ATOM      8  O   UNL d   1      26.198 -13.022   1.537  0.00  0.00    -0.271 OA
BRANCH   6   9
ATOM      9  C   UNL d   1      27.992 -12.953   2.928  0.00  0.00     0.122 C 
BRANCH   9  10
ATOM     10  C   UNL d   1      27.406 -13.650   4.085  0.00  0.00     0.019 C 
BRANCH  10  11
ATOM     11  C   UNL d   1      28.253 -14.864   4.407  0.00  0.00    -0.003 C 
ATOM     12  C   UNL d   1      28.738 -14.687   5.820  0.00  0.00     0.005 C 
ENDBRANCH  10  11
ENDBRANCH   9  10
ENDBRANCH   6   9
ENDBRANCH   4   5
BRANCH   4  13
ATOM     13  C   UNL d   1      26.282 -13.953  -1.413  0.00  0.00    -0.024 A 
ATOM     14  C   UNL d   1      26.826 -12.668  -1.536  0.00  0.00     0.010 A 
ATOM     15  C   UNL d   1      26.591 -11.894  -2.669  0.00  0.00     0.003 A 
ATOM     16  C   UNL d   1      25.712 -12.343  -3.651  0.00  0.00     0.036 A 
ATOM     17  C   UNL d   1      25.103 -13.578  -3.503  0.00  0.00     0.066 A 
ATOM     18  C   UNL d   1      25.405 -14.384  -2.421  0.00  0.00     0.046 A 
BRANCH  17  19
ATOM     19  O   UNL d   1      24.202 -14.075  -4.395  0.00  0.00    -0.361 OA
ATOM     20  H   UNL d   1      23.962 -13.374  -5.020  0.00  0.00     0.217 HD
ENDBRANCH  17  19
ENDBRANCH   4  13
ENDBRANCH   1   4
BRANCH   1  21
ATOM     21  C   UNL d   1      27.039 -17.418  -0.890  0.00  0.00     0.127 C 
BRANCH  21  22
ATOM     22  C   UNL d   1      25.744 -17.752  -0.301  0.00  0.00     0.015 C 
ATOM     23  C   UNL d   1      24.402 -17.573  -0.906  0.00  0.00     0.006 C 
ENDBRANCH  21  22
ENDBRANCH   1  21
BRANCH   2  24
ATOM     24  C   UNL d   1      29.917 -16.964  -1.124  0.00  0.00     0.194 C 
BRANCH  24  25
ATOM     25  O   UNL d   1      29.560 -18.214  -0.520  0.00  0.00    -0.371 OA
ATOM     26  H   UNL d   1      29.623 -18.148   0.436  0.00  0.00     0.212 HD
ENDBRANCH  24  25
BRANCH  24  27
ATOM     27  C   UNL d   1      29.969 -17.078  -2.668  0.00  0.00    -0.010 C 
ATOM     28  C   UNL d   1      30.777 -18.035  -3.289  0.00  0.00     0.011 C 
ATOM     29  C   UNL d   1      30.948 -17.991  -4.671  0.00  0.00     0.001 C 
ATOM     30  C   UNL d   1      30.165 -17.146  -5.461  0.00  0.00     0.000 C 
ATOM     31  C   UNL d   1      29.307 -16.239  -4.871  0.00  0.00     0.001 C 
ATOM     32  C   UNL d   1      29.305 -16.137  -3.495  0.00  0.00     0.011 C 
ENDBRANCH  24  27
BRANCH  24  33
ATOM     33  C   UNL d   1      31.317 -16.672  -0.555  0.00  0.00    -0.010 A 
ATOM     34  C   UNL d   1      31.785 -17.339   0.590  0.00  0.00     0.011 A 
ATOM     35  C   UNL d   1      32.953 -16.911   1.216  0.00  0.00     0.001 A 
ATOM     36  C   UNL d   1      33.718 -15.890   0.651  0.00  0.00     0.000 A 
ATOM     37  C   UNL d   1      33.309 -15.276  -0.524  0.00  0.00     0.001 A 
ATOM     38  C   UNL d   1      32.111 -15.650  -1.106  0.00  0.00     0.011 A 
ENDBRANCH  24  33
ENDBRANCH   2  24
TORSDOF 13
ENDMDL
