MODEL 1
REMARK VINA RESULT:   -28.554      0.000      0.000
REMARK INTER + INTRA:         -30.990
REMARK INTER:                 -30.046
REMARK INTRA:                  -0.944
REMARK CONF_INDEPENDENT:        1.492
REMARK UNBOUND:                -0.944
REMARK  5 active torsions:
REMARK  status: ('A' for Active; 'I' for Inactive)
REMARK    1  A    between atoms: C_2  and  C_3 
REMARK    2  A    between atoms: C_2  and  C_12 
REMARK    3  A    between atoms: C_3  and  N_4 
REMARK    4  A    between atoms: N_4  and  C_5 
REMARK       I    between atoms: C_12  and  N_14 
REMARK    5  A    between atoms: N_14  and  N_15 
ROOT
ATOM      1  C   UNL d   1      24.227 -18.118  -0.049  0.00  0.00     0.133 C 
ENDROOT
BRANCH   1   2
ATOM      2  C   UNL d   1      23.019 -17.717  -0.906  0.00  0.00     0.093 C 
ATOM      3  C   UNL d   1      22.519 -16.321  -0.514  0.00  0.00     0.021 C 
BRANCH   2   4
ATOM      4  C   UNL d   1      21.880 -18.731  -0.736  0.00  0.00     0.237 C 
ATOM      5  O   UNL d   1      22.026 -19.808  -0.147  0.00  0.00    -0.272 OA
ATOM      6  N   UNL d   1      20.650 -18.366  -1.272  0.00  0.00    -0.294 N 
ATOM      7  H   UNL d   1      20.478 -17.423  -1.615  0.00  0.00     0.183 HD
BRANCH   6   8
ATOM      8  N   UNL d   1      19.530 -19.210  -1.057  0.00  0.00    -0.247 NA
ATOM      9  H   UNL d   1      19.898 -20.131  -0.772  0.00  0.00     0.143 HD
ATOM     10  H   UNL d   1      19.074 -19.387  -1.955  0.00  0.00     0.143 HD
ENDBRANCH   6   8
ENDBRANCH   2   4
ENDBRANCH   1   2
BRANCH   1  11
ATOM     11  N   UNL d   1      25.494 -17.784  -0.692  0.00  0.00    -0.389 N 
ATOM     12  H   UNL d   1      26.197 -18.501  -0.838  0.00  0.00     0.159 HD
BRANCH  11  13
ATOM     13  C   UNL d   1      25.800 -16.510  -1.134  0.00  0.00     0.029 A 
ATOM     14  C   UNL d   1      26.335 -15.542  -0.278  0.00  0.00     0.029 A 
ATOM     15  C   UNL d   1      26.679 -14.271  -0.742  0.00  0.00     0.004 A 
ATOM     16  C   UNL d   1      26.437 -13.925  -2.067  0.00  0.00     0.024 A 
ATOM     17  C   UNL d   1      25.850 -14.857  -2.919  0.00  0.00     0.036 A 
ATOM     18 CL   UNL d   1      25.510 -14.413  -4.548  0.00  0.00    -0.084 Cl
ATOM     19  C   UNL d   1      25.540 -16.142  -2.462  0.00  0.00     0.052 A 
ENDBRANCH  11  13
ENDBRANCH   1  11
TORSDOF 5
ENDMDL
MODEL 2
REMARK VINA RESULT:   -28.267      1.299      1.791
REMARK INTER + INTRA:         -30.629
REMARK INTER:                 -29.758
REMARK INTRA:                  -0.871
REMARK CONF_INDEPENDENT:        1.492
REMARK UNBOUND:                -0.871
REMARK  5 active torsions:
REMARK  status: ('A' for Active; 'I' for Inactive)
REMARK    1  A    between atoms: C_2  and  C_3 
REMARK    2  A    between atoms: C_2  and  C_12 
REMARK    3  A    between atoms: C_3  and  N_4 
REMARK    4  A    between atoms: N_4  and  C_5 
REMARK       I    between atoms: C_12  and  N_14 
REMARK    5  A    between atoms: N_14  and  N_15 
ROOT
ATOM      1  C   UNL d   1      24.150 -18.192   0.135  0.00  0.00     0.133 C 
ENDROOT
BRANCH   1   2
ATOM      2  C   UNL d   1      23.012 -17.830  -0.828  0.00  0.00     0.093 C 
ATOM      3  C   UNL d   1      22.474 -16.425  -0.523  0.00  0.00     0.021 C 
BRANCH   2   4
ATOM      4  C   UNL d   1      21.869 -18.846  -0.713  0.00  0.00     0.237 C 
ATOM      5  O   UNL d   1      21.996 -19.936  -0.143  0.00  0.00    -0.272 OA
ATOM      6  N   UNL d   1      20.655 -18.470  -1.280  0.00  0.00    -0.294 N 
ATOM      7  H   UNL d   1      20.494 -17.521  -1.608  0.00  0.00     0.183 HD
BRANCH   6   8
ATOM      8  N   UNL d   1      19.530 -19.319  -1.117  0.00  0.00    -0.247 NA
ATOM      9  H   UNL d   1      19.891 -20.257  -0.886  0.00  0.00     0.143 HD
ATOM     10  H   UNL d   1      19.074 -19.440  -2.024  0.00  0.00     0.143 HD
ENDBRANCH   6   8
ENDBRANCH   2   4
ENDBRANCH   1   2
BRANCH   1  11
ATOM     11  N   UNL d   1      25.459 -17.822  -0.395  0.00  0.00    -0.389 N 
ATOM     12  H   UNL d   1      26.245 -18.457  -0.305  0.00  0.00     0.159 HD
BRANCH  11  13
ATOM     13  C   UNL d   1      25.697 -16.622  -1.040  0.00  0.00     0.029 A 
ATOM     14  C   UNL d   1      25.396 -16.441  -2.393  0.00  0.00     0.029 A 
ATOM     15  C   UNL d   1      25.600 -15.214  -3.027  0.00  0.00     0.004 A 
ATOM     16  C   UNL d   1      26.168 -14.156  -2.326  0.00  0.00     0.024 A 
ATOM     17  C   UNL d   1      26.528 -14.335  -0.993  0.00  0.00     0.036 A 
ATOM     18 CL   UNL d   1      27.272 -13.038  -0.138  0.00  0.00    -0.084 Cl
ATOM     19  C   UNL d   1      26.289 -15.554  -0.350  0.00  0.00     0.052 A 
ENDBRANCH  11  13
ENDBRANCH   1  11
TORSDOF 5
ENDMDL
MODEL 3
REMARK VINA RESULT:   -28.138      1.379      1.721
REMARK INTER + INTRA:         -31.007
REMARK INTER:                 -29.629
REMARK INTRA:                  -1.378
REMARK CONF_INDEPENDENT:        1.492
REMARK UNBOUND:                -1.378
REMARK  5 active torsions:
REMARK  status: ('A' for Active; 'I' for Inactive)
REMARK    1  A    between atoms: C_2  and  C_3 
REMARK    2  A    between atoms: C_2  and  C_12 
REMARK    3  A    between atoms: C_3  and  N_4 
REMARK    4  A    between atoms: N_4  and  C_5 
REMARK       I    between atoms: C_12  and  N_14 
REMARK    5  A    between atoms: N_14  and  N_15 
ROOT
ATOM      1  C   UNL d   1      23.520 -16.442  -0.627  0.00  0.00     0.133 C 
ENDROOT
BRANCH   1   2
ATOM      2  C   UNL d   1      23.118 -17.796  -0.029  0.00  0.00     0.093 C 
ATOM      3  C   UNL d   1      24.354 -18.682   0.180  0.00  0.00     0.021 C 
BRANCH   2   4
ATOM      4  C   UNL d   1      22.127 -18.518  -0.950  0.00  0.00     0.237 C 
ATOM      5  O   UNL d   1      22.463 -19.030  -2.025  0.00  0.00    -0.272 OA
ATOM      6  N   UNL d   1      20.811 -18.581  -0.505  0.00  0.00    -0.294 N 
ATOM      7  H   UNL d   1      20.556 -18.306   0.440  0.00  0.00     0.183 HD
BRANCH   6   8
ATOM      8  N   UNL d   1      19.867 -19.325  -1.259  0.00  0.00    -0.247 NA
ATOM      9  H   UNL d   1      20.294 -19.507  -2.181  0.00  0.00     0.143 HD
ATOM     10  H   UNL d   1      19.065 -18.726  -1.467  0.00  0.00     0.143 HD
ENDBRANCH   6   8
ENDBRANCH   2   4
ENDBRANCH   1   2
BRANCH   1  11
ATOM     11  N   UNL d   1      24.139 -16.582  -1.942  0.00  0.00    -0.389 N 
ATOM     12  H   UNL d   1      23.766 -17.244  -2.614  0.00  0.00     0.159 HD
BRANCH  11  13
ATOM     13  C   UNL d   1      25.234 -15.836  -2.340  0.00  0.00     0.029 A 
ATOM     14  C   UNL d   1      26.531 -16.155  -1.927  0.00  0.00     0.029 A 
ATOM     15  C   UNL d   1      27.635 -15.422  -2.366  0.00  0.00     0.004 A 
ATOM     16  C   UNL d   1      27.452 -14.313  -3.186  0.00  0.00     0.024 A 
ATOM     17  C   UNL d   1      26.162 -13.946  -3.559  0.00  0.00     0.036 A 
ATOM     18 CL   UNL d   1      25.933 -12.547  -4.537  0.00  0.00    -0.084 Cl
ATOM     19  C   UNL d   1      25.060 -14.703  -3.148  0.00  0.00     0.052 A 
ENDBRANCH  11  13
ENDBRANCH   1  11
TORSDOF 5
ENDMDL
MODEL 4
REMARK VINA RESULT:   -28.098      2.074      2.624
REMARK INTER + INTRA:         -30.481
REMARK INTER:                 -29.590
REMARK INTRA:                  -0.892
REMARK CONF_INDEPENDENT:        1.492
REMARK UNBOUND:                -0.892
REMARK  5 active torsions:
REMARK  status: ('A' for Active; 'I' for Inactive)
REMARK    1  A    between atoms: C_2  and  C_3 
REMARK    2  A    between atoms: C_2  and  C_12 
REMARK    3  A    between atoms: C_3  and  N_4 
REMARK    4  A    between atoms: N_4  and  C_5 
REMARK       I    between atoms: C_12  and  N_14 
REMARK    5  A    between atoms: N_14  and  N_15 
ROOT
ATOM      1  C   UNL d   1      23.432 -16.650  -0.754  0.00  0.00     0.133 C 
ENDROOT
BRANCH   1   2
ATOM      2  C   UNL d   1      22.991 -17.964  -0.097  0.00  0.00     0.093 C 
ATOM      3  C   UNL d   1      24.191 -18.903   0.089  0.00  0.00     0.021 C 
BRANCH   2   4
ATOM      4  C   UNL d   1      21.929 -18.664  -0.955  0.00  0.00     0.237 C 
ATOM      5  O   UNL d   1      22.202 -19.261  -2.003  0.00  0.00    -0.272 OA
ATOM      6  N   UNL d   1      20.623 -18.604  -0.482  0.00  0.00    -0.294 N 
ATOM      7  H   UNL d   1      20.411 -18.257   0.451  0.00  0.00     0.183 HD
BRANCH   6   8
ATOM      8  N   UNL d   1      19.610 -19.319  -1.172  0.00  0.00    -0.247 NA
ATOM      9  H   UNL d   1      19.999 -19.581  -2.091  0.00  0.00     0.143 HD
ATOM     10  H   UNL d   1      18.846 -18.677  -1.394  0.00  0.00     0.143 HD
ENDBRANCH   6   8
ENDBRANCH   2   4
ENDBRANCH   1   2
BRANCH   1  11
ATOM     11  N   UNL d   1      24.728 -16.770  -1.414  0.00  0.00    -0.389 N 
ATOM     12  H   UNL d   1      24.791 -17.154  -2.351  0.00  0.00     0.159 HD
BRANCH  11  13
ATOM     13  C   UNL d   1      25.913 -16.371  -0.821  0.00  0.00     0.029 A 
ATOM     14  C   UNL d   1      27.053 -17.180  -0.836  0.00  0.00     0.029 A 
ATOM     15  C   UNL d   1      28.256 -16.753  -0.272  0.00  0.00     0.004 A 
ATOM     16  C   UNL d   1      28.323 -15.523   0.373  0.00  0.00     0.024 A 
ATOM     17  C   UNL d   1      27.182 -14.729   0.450  0.00  0.00     0.036 A 
ATOM     18 CL   UNL d   1      27.254 -13.227   1.289  0.00  0.00    -0.084 Cl
ATOM     19  C   UNL d   1      25.987 -15.143  -0.148  0.00  0.00     0.052 A 
ENDBRANCH  11  13
ENDBRANCH   1  11
TORSDOF 5
ENDMDL
MODEL 5
REMARK VINA RESULT:   -27.971      1.562      1.927
REMARK INTER + INTRA:         -30.182
REMARK INTER:                 -29.463
REMARK INTRA:                  -0.719
REMARK CONF_INDEPENDENT:        1.492
REMARK UNBOUND:                -0.719
REMARK  5 active torsions:
REMARK  status: ('A' for Active; 'I' for Inactive)
REMARK    1  A    between atoms: C_2  and  C_3 
REMARK    2  A    between atoms: C_2  and  C_12 
REMARK    3  A    between atoms: C_3  and  N_4 
REMARK    4  A    between atoms: N_4  and  C_5 
REMARK       I    between atoms: C_12  and  N_14 
REMARK    5  A    between atoms: N_14  and  N_15 
ROOT
ATOM      1  C   UNL d   1      22.883 -16.825  -0.322  0.00  0.00     0.133 C 
ENDROOT
BRANCH   1   2
ATOM      2  C   UNL d   1      22.874 -18.265   0.207  0.00  0.00     0.093 C 
ATOM      3  C   UNL d   1      23.833 -19.144  -0.606  0.00  0.00     0.021 C 
BRANCH   2   4
ATOM      4  C   UNL d   1      21.459 -18.855   0.133  0.00  0.00     0.237 C 
ATOM      5  O   UNL d   1      20.855 -19.271   1.128  0.00  0.00    -0.272 OA
ATOM      6  N   UNL d   1      20.875 -18.888  -1.129  0.00  0.00    -0.294 N 
ATOM      7  H   UNL d   1      21.294 -18.408  -1.922  0.00  0.00     0.183 HD
BRANCH   6   8
ATOM      8  N   UNL d   1      19.530 -19.324  -1.250  0.00  0.00    -0.247 NA
ATOM      9  H   UNL d   1      18.992 -18.536  -1.645  0.00  0.00     0.143 HD
ATOM     10  H   UNL d   1      19.139 -19.452  -0.314  0.00  0.00     0.143 HD
ENDBRANCH   6   8
ENDBRANCH   2   4
ENDBRANCH   1   2
BRANCH   1  11
ATOM     11  N   UNL d   1      23.805 -16.654  -1.441  0.00  0.00    -0.389 N 
ATOM     12  H   UNL d   1      23.455 -16.633  -2.392  0.00  0.00     0.159 HD
BRANCH  11  13
ATOM     13  C   UNL d   1      25.170 -16.506  -1.273  0.00  0.00     0.029 A 
ATOM     14  C   UNL d   1      25.791 -16.747  -0.044  0.00  0.00     0.029 A 
ATOM     15  C   UNL d   1      27.175 -16.635   0.106  0.00  0.00     0.004 A 
ATOM     16  C   UNL d   1      27.959 -16.219  -0.965  0.00  0.00     0.024 A 
ATOM     17  C   UNL d   1      27.350 -15.917  -2.180  0.00  0.00     0.036 A 
ATOM     18 CL   UNL d   1      28.316 -15.359  -3.492  0.00  0.00    -0.084 Cl
ATOM     19  C   UNL d   1      25.968 -16.066  -2.339  0.00  0.00     0.052 A 
ENDBRANCH  11  13
ENDBRANCH   1  11
TORSDOF 5
ENDMDL
MODEL 6
REMARK VINA RESULT:   -27.923      2.299      2.634
REMARK INTER + INTRA:         -30.236
REMARK INTER:                 -29.414
REMARK INTRA:                  -0.822
REMARK CONF_INDEPENDENT:        1.492
REMARK UNBOUND:                -0.822
REMARK  5 active torsions:
REMARK  status: ('A' for Active; 'I' for Inactive)
REMARK    1  A    between atoms: C_2  and  C_3 
REMARK    2  A    between atoms: C_2  and  C_12 
REMARK    3  A    between atoms: C_3  and  N_4 
REMARK    4  A    between atoms: N_4  and  C_5 
REMARK       I    between atoms: C_12  and  N_14 
REMARK    5  A    between atoms: N_14  and  N_15 
ROOT
ATOM      1  C   UNL d   1      24.057 -18.048   0.481  0.00  0.00     0.133 C 
ENDROOT
BRANCH   1   2
ATOM      2  C   UNL d   1      23.373 -18.426  -0.839  0.00  0.00     0.093 C 
ATOM      3  C   UNL d   1      24.114 -17.801  -2.028  0.00  0.00     0.021 C 
BRANCH   2   4
ATOM      4  C   UNL d   1      21.915 -17.949  -0.843  0.00  0.00     0.237 C 
ATOM      5  O   UNL d   1      21.601 -16.754  -0.903  0.00  0.00    -0.272 OA
ATOM      6  N   UNL d   1      20.944 -18.944  -0.788  0.00  0.00    -0.294 N 
ATOM      7  H   UNL d   1      21.184 -19.926  -0.898  0.00  0.00     0.183 HD
BRANCH   6   8
ATOM      8  N   UNL d   1      19.578 -18.576  -0.895  0.00  0.00    -0.247 NA
ATOM      9  H   UNL d   1      19.198 -19.065  -1.720  0.00  0.00     0.143 HD
ATOM     10  H   UNL d   1      19.522 -17.585  -1.142  0.00  0.00     0.143 HD
ENDBRANCH   6   8
ENDBRANCH   2   4
ENDBRANCH   1   2
BRANCH   1  11
ATOM     11  N   UNL d   1      25.504 -18.229   0.424  0.00  0.00    -0.389 N 
ATOM     12  H   UNL d   1      25.914 -19.134   0.630  0.00  0.00     0.159 HD
BRANCH  11  13
ATOM     13  C   UNL d   1      26.376 -17.210   0.085  0.00  0.00     0.029 A 
ATOM     14  C   UNL d   1      25.930 -15.906  -0.146  0.00  0.00     0.029 A 
ATOM     15  C   UNL d   1      26.821 -14.874  -0.447  0.00  0.00     0.004 A 
ATOM     16  C   UNL d   1      28.178 -15.145  -0.580  0.00  0.00     0.024 A 
ATOM     17  C   UNL d   1      28.634 -16.450  -0.411  0.00  0.00     0.036 A 
ATOM     18 CL   UNL d   1      30.309 -16.792  -0.620  0.00  0.00    -0.084 Cl
ATOM     19  C   UNL d   1      27.744 -17.475  -0.073  0.00  0.00     0.052 A 
ENDBRANCH  11  13
ENDBRANCH   1  11
TORSDOF 5
ENDMDL
MODEL 7
REMARK VINA RESULT:   -27.897      1.924      2.281
REMARK INTER + INTRA:         -30.836
REMARK INTER:                 -29.388
REMARK INTRA:                  -1.448
REMARK CONF_INDEPENDENT:        1.492
REMARK UNBOUND:                -1.448
REMARK  5 active torsions:
REMARK  status: ('A' for Active; 'I' for Inactive)
REMARK    1  A    between atoms: C_2  and  C_3 
REMARK    2  A    between atoms: C_2  and  C_12 
REMARK    3  A    between atoms: C_3  and  N_4 
REMARK    4  A    between atoms: N_4  and  C_5 
REMARK       I    between atoms: C_12  and  N_14 
REMARK    5  A    between atoms: N_14  and  N_15 
ROOT
ATOM      1  C   UNL d   1      23.816 -17.219  -0.021  0.00  0.00     0.133 C 
ENDROOT
BRANCH   1   2
ATOM      2  C   UNL d   1      22.957 -18.480   0.138  0.00  0.00     0.093 C 
ATOM      3  C   UNL d   1      23.656 -19.691  -0.495  0.00  0.00     0.021 C 
BRANCH   2   4
ATOM      4  C   UNL d   1      21.587 -18.283  -0.522  0.00  0.00     0.237 C 
ATOM      5  O   UNL d   1      21.220 -17.200  -0.993  0.00  0.00    -0.272 OA
ATOM      6  N   UNL d   1      20.767 -19.406  -0.579  0.00  0.00    -0.294 N 
ATOM      7  H   UNL d   1      21.116 -20.331  -0.341  0.00  0.00     0.183 HD
BRANCH   6   8
ATOM      8  N   UNL d   1      19.531 -19.318  -1.270  0.00  0.00    -0.247 NA
ATOM      9  H   UNL d   1      19.613 -19.910  -2.111  0.00  0.00     0.143 HD
ATOM     10  H   UNL d   1      19.426 -18.369  -1.638  0.00  0.00     0.143 HD
ENDBRANCH   6   8
ENDBRANCH   2   4
ENDBRANCH   1   2
BRANCH   1  11
ATOM     11  N   UNL d   1      23.891 -16.774  -1.409  0.00  0.00    -0.389 N 
ATOM     12  H   UNL d   1      23.109 -16.924  -2.037  0.00  0.00     0.159 HD
BRANCH  11  13
ATOM     13  C   UNL d   1      24.999 -16.132  -1.933  0.00  0.00     0.029 A 
ATOM     14  C   UNL d   1      24.877 -15.003  -2.749  0.00  0.00     0.029 A 
ATOM     15  C   UNL d   1      26.001 -14.336  -3.240  0.00  0.00     0.004 A 
ATOM     16  C   UNL d   1      27.274 -14.825  -2.969  0.00  0.00     0.024 A 
ATOM     17  C   UNL d   1      27.412 -15.982  -2.207  0.00  0.00     0.036 A 
ATOM     18 CL   UNL d   1      28.986 -16.614  -1.909  0.00  0.00    -0.084 Cl
ATOM     19  C   UNL d   1      26.286 -16.628  -1.685  0.00  0.00     0.052 A 
ENDBRANCH  11  13
ENDBRANCH   1  11
TORSDOF 5
ENDMDL
MODEL 8
REMARK VINA RESULT:   -27.854      1.732      2.323
REMARK INTER + INTRA:         -30.621
REMARK INTER:                 -29.346
REMARK INTRA:                  -1.275
REMARK CONF_INDEPENDENT:        1.492
REMARK UNBOUND:                -1.275
REMARK  5 active torsions:
REMARK  status: ('A' for Active; 'I' for Inactive)
REMARK    1  A    between atoms: C_2  and  C_3 
REMARK    2  A    between atoms: C_2  and  C_12 
REMARK    3  A    between atoms: C_3  and  N_4 
REMARK    4  A    between atoms: N_4  and  C_5 
REMARK       I    between atoms: C_12  and  N_14 
REMARK    5  A    between atoms: N_14  and  N_15 
ROOT
ATOM      1  C   UNL d   1      23.349 -16.405  -0.501  0.00  0.00     0.133 C 
ENDROOT
BRANCH   1   2
ATOM      2  C   UNL d   1      22.994 -17.794   0.045  0.00  0.00     0.093 C 
ATOM      3  C   UNL d   1      24.260 -18.645   0.218  0.00  0.00     0.021 C 
BRANCH   2   4
ATOM      4  C   UNL d   1      22.027 -18.512  -0.905  0.00  0.00     0.237 C 
ATOM      5  O   UNL d   1      22.389 -19.015  -1.975  0.00  0.00    -0.272 OA
ATOM      6  N   UNL d   1      20.701 -18.584  -0.489  0.00  0.00    -0.294 N 
ATOM      7  H   UNL d   1      20.424 -18.317   0.452  0.00  0.00     0.183 HD
BRANCH   6   8
ATOM      8  N   UNL d   1      19.777 -19.325  -1.270  0.00  0.00    -0.247 NA
ATOM      9  H   UNL d   1      20.223 -19.494  -2.185  0.00  0.00     0.143 HD
ATOM     10  H   UNL d   1      18.975 -18.728  -1.486  0.00  0.00     0.143 HD
ENDBRANCH   6   8
ENDBRANCH   2   4
ENDBRANCH   1   2
BRANCH   1  11
ATOM     11  N   UNL d   1      24.052 -16.477  -1.778  0.00  0.00    -0.389 N 
ATOM     12  H   UNL d   1      23.720 -17.095  -2.510  0.00  0.00     0.159 HD
BRANCH  11  13
ATOM     13  C   UNL d   1      25.176 -15.721  -2.061  0.00  0.00     0.029 A 
ATOM     14  C   UNL d   1      25.555 -15.430  -3.375  0.00  0.00     0.029 A 
ATOM     15  C   UNL d   1      26.667 -14.632  -3.651  0.00  0.00     0.004 A 
ATOM     16  C   UNL d   1      27.458 -14.157  -2.610  0.00  0.00     0.024 A 
ATOM     17  C   UNL d   1      27.129 -14.486  -1.298  0.00  0.00     0.036 A 
ATOM     18 CL   UNL d   1      28.134 -13.935  -0.013  0.00  0.00    -0.084 Cl
ATOM     19  C   UNL d   1      25.994 -15.255  -1.021  0.00  0.00     0.052 A 
ENDBRANCH  11  13
ENDBRANCH   1  11
TORSDOF 5
ENDMDL
