MODEL 1
REMARK VINA RESULT:    -7.869      0.000      0.000
REMARK INTER + INTRA:         -12.540
REMARK INTER:                 -10.554
REMARK INTRA:                  -1.986
REMARK CONF_INDEPENDENT:        2.685
REMARK UNBOUND:                -1.986
REMARK  9 active torsions:
REMARK  status: ('A' for Active; 'I' for Inactive)
REMARK    1  A    between atoms: C_2  and  C_3 
REMARK    2  A    between atoms: C_3  and  C_4 
REMARK    3  A    between atoms: C_4  and  N_5 
REMARK       I    between atoms: N_5  and  C_6 
REMARK       I    between atoms: C_6  and  N_8 
REMARK    4  A    between atoms: N_8  and  N_9 
REMARK       I    between atoms: N_9  and  C_10 
REMARK    5  A    between atoms: C_10  and  C_12 
REMARK    6  A    between atoms: C_12  and  C_13 
REMARK    7  A    between atoms: C_15  and  C_16 
REMARK    8  A    between atoms: C_21  and  C_22 
REMARK    9  A    between atoms: C_22  and  O_24 
ROOT
ATOM      1  C   UNL d   1      25.280 -15.684  -1.635  0.00  0.00     0.162 C 
ENDROOT
BRANCH   1   2
ATOM      2  C   UNL d   1      24.751 -16.978  -0.954  0.00  0.00     0.241 C 
ATOM      3  N   UNL d   1      23.382 -17.228  -1.057  0.00  0.00    -0.266 N 
ATOM      4  H   UNL d   1      22.709 -16.602  -1.495  0.00  0.00     0.190 HD
ATOM      5  O   UNL d   1      25.490 -17.782  -0.379  0.00  0.00    -0.271 OA
BRANCH   3   6
ATOM      6  N   UNL d   1      22.834 -18.418  -0.451  0.00  0.00    -0.249 N 
ATOM      7  C   UNL d   1      21.487 -18.718  -0.606  0.00  0.00     0.334 C 
ATOM      8  N   UNL d   1      21.069 -19.882   0.019  0.00  0.00    -0.342 N 
ATOM      9  O   UNL d   1      20.730 -18.004  -1.260  0.00  0.00    -0.246 OA
ATOM     10  H   UNL d   1      21.727 -20.432   0.552  0.00  0.00     0.164 HD
ATOM     11  H   UNL d   1      23.483 -18.967   0.106  0.00  0.00     0.192 HD
BRANCH   8  12
ATOM     12  C   UNL d   1      19.675 -20.336  -0.063  0.00  0.00     0.124 C 
BRANCH  12  13
ATOM     13  C   UNL d   1      18.755 -19.759   1.026  0.00  0.00     0.019 C 
BRANCH  13  14
ATOM     14  C   UNL d   1      18.948 -20.457   2.383  0.00  0.00    -0.003 C 
ATOM     15  C   UNL d   1      20.282 -20.086   3.020  0.00  0.00     0.005 C 
ENDBRANCH  13  14
ENDBRANCH  12  13
ENDBRANCH   8  12
ENDBRANCH   3   6
ENDBRANCH   1   2
BRANCH   1  16
ATOM     16  C   UNL d   1      26.706 -15.877  -2.152  0.00  0.00     0.035 A 
ATOM     17  N   UNL d   1      27.750 -16.296  -1.346  0.00  0.00    -0.355 N 
ATOM     18  C   UNL d   1      28.961 -16.255  -2.022  0.00  0.00     0.085 A 
ATOM     19  H   UNL d   1      27.646 -16.552  -0.374  0.00  0.00     0.166 HD
ATOM     20  C   UNL d   1      28.654 -15.857  -3.328  0.00  0.00    -0.013 A 
ATOM     21  C   UNL d   1      29.620 -15.647  -4.453  0.00  0.00     0.052 C 
ATOM     22  C   UNL d   1      27.227 -15.637  -3.423  0.00  0.00     0.070 A 
BRANCH  18  23
ATOM     23  C   UNL d   1      30.291 -16.553  -1.460  0.00  0.00     0.172 C 
ATOM     24  C   UNL d   1      30.486 -16.668   0.032  0.00  0.00     0.098 C 
ATOM     25  O   UNL d   1      31.292 -16.721  -2.161  0.00  0.00    -0.291 OA
ENDBRANCH  18  23
BRANCH  22  26
ATOM     26  C   UNL d   1      26.430 -15.194  -4.584  0.00  0.00     0.295 C 
ATOM     27  O   UNL d   1      26.865 -15.193  -5.735  0.00  0.00    -0.259 OA
BRANCH  26  28
ATOM     28  O   UNL d   1      25.173 -14.769  -4.262  0.00  0.00    -0.322 OA
ATOM     29  C   UNL d   1      24.989 -13.351  -4.286  0.00  0.00     0.213 C 
ENDBRANCH  26  28
ENDBRANCH  22  26
ENDBRANCH   1  16
TORSDOF 9
ENDMDL
MODEL 2
REMARK VINA RESULT:    -7.445      1.980      2.752
REMARK INTER + INTRA:         -12.405
REMARK INTER:                 -10.130
REMARK INTRA:                  -2.275
REMARK CONF_INDEPENDENT:        2.685
REMARK UNBOUND:                -2.275
REMARK  9 active torsions:
REMARK  status: ('A' for Active; 'I' for Inactive)
REMARK    1  A    between atoms: C_2  and  C_3 
REMARK    2  A    between atoms: C_3  and  C_4 
REMARK    3  A    between atoms: C_4  and  N_5 
REMARK       I    between atoms: N_5  and  C_6 
REMARK       I    between atoms: C_6  and  N_8 
REMARK    4  A    between atoms: N_8  and  N_9 
REMARK       I    between atoms: N_9  and  C_10 
REMARK    5  A    between atoms: C_10  and  C_12 
REMARK    6  A    between atoms: C_12  and  C_13 
REMARK    7  A    between atoms: C_15  and  C_16 
REMARK    8  A    between atoms: C_21  and  C_22 
REMARK    9  A    between atoms: C_22  and  O_24 
ROOT
ATOM      1  C   UNL d   1      24.874 -17.167  -2.296  0.00  0.00     0.162 C 
ENDROOT
BRANCH   1   2
ATOM      2  C   UNL d   1      24.112 -17.872  -1.139  0.00  0.00     0.241 C 
ATOM      3  N   UNL d   1      22.961 -18.580  -1.484  0.00  0.00    -0.266 N 
ATOM      4  H   UNL d   1      22.563 -18.622  -2.421  0.00  0.00     0.190 HD
ATOM      5  O   UNL d   1      24.507 -17.855   0.031  0.00  0.00    -0.271 OA
BRANCH   3   6
ATOM      6  N   UNL d   1      22.216 -19.263  -0.454  0.00  0.00    -0.249 N 
ATOM      7  C   UNL d   1      20.923 -19.702  -0.707  0.00  0.00     0.334 C 
ATOM      8  N   UNL d   1      20.302 -20.342   0.354  0.00  0.00    -0.342 N 
ATOM      9  O   UNL d   1      20.381 -19.541  -1.798  0.00  0.00    -0.246 OA
ATOM     10  H   UNL d   1      20.785 -20.444   1.234  0.00  0.00     0.164 HD
ATOM     11  H   UNL d   1      22.685 -19.351   0.443  0.00  0.00     0.192 HD
BRANCH   8  12
ATOM     12  C   UNL d   1      18.937 -20.871   0.234  0.00  0.00     0.124 C 
BRANCH  12  13
ATOM     13  C   UNL d   1      18.244 -21.151   1.578  0.00  0.00     0.019 C 
BRANCH  13  14
ATOM     14  C   UNL d   1      18.585 -20.093   2.641  0.00  0.00    -0.003 C 
ATOM     15  C   UNL d   1      19.858 -20.451   3.401  0.00  0.00     0.005 C 
ENDBRANCH  13  14
ENDBRANCH  12  13
ENDBRANCH   8  12
ENDBRANCH   3   6
ENDBRANCH   1   2
BRANCH   1  16
ATOM     16  C   UNL d   1      25.608 -15.922  -1.795  0.00  0.00     0.035 A 
ATOM     17  N   UNL d   1      25.994 -15.754  -0.476  0.00  0.00    -0.355 N 
ATOM     18  C   UNL d   1      26.513 -14.486  -0.258  0.00  0.00     0.085 A 
ATOM     19  H   UNL d   1      25.866 -16.452   0.243  0.00  0.00     0.166 HD
ATOM     20  C   UNL d   1      26.515 -13.855  -1.506  0.00  0.00    -0.013 A 
ATOM     21  C   UNL d   1      26.969 -12.461  -1.807  0.00  0.00     0.052 C 
ATOM     22  C   UNL d   1      25.965 -14.765  -2.487  0.00  0.00     0.070 A 
BRANCH  18  23
ATOM     23  C   UNL d   1      26.949 -13.927   1.035  0.00  0.00     0.172 C 
ATOM     24  C   UNL d   1      28.277 -14.322   1.634  0.00  0.00     0.098 C 
ATOM     25  O   UNL d   1      26.269 -13.125   1.681  0.00  0.00    -0.291 OA
ENDBRANCH  18  23
BRANCH  22  26
ATOM     26  C   UNL d   1      25.745 -14.555  -3.932  0.00  0.00     0.295 C 
ATOM     27  O   UNL d   1      24.710 -14.072  -4.389  0.00  0.00    -0.259 OA
BRANCH  26  28
ATOM     28  O   UNL d   1      26.787 -14.961  -4.714  0.00  0.00    -0.322 OA
ATOM     29  C   UNL d   1      28.012 -15.199  -4.016  0.00  0.00     0.213 C 
ENDBRANCH  26  28
ENDBRANCH  22  26
ENDBRANCH   1  16
TORSDOF 9
ENDMDL
MODEL 3
REMARK VINA RESULT:    -7.391      1.662      3.801
REMARK INTER + INTRA:         -11.939
REMARK INTER:                 -10.076
REMARK INTRA:                  -1.863
REMARK CONF_INDEPENDENT:        2.685
REMARK UNBOUND:                -1.863
REMARK  9 active torsions:
REMARK  status: ('A' for Active; 'I' for Inactive)
REMARK    1  A    between atoms: C_2  and  C_3 
REMARK    2  A    between atoms: C_3  and  C_4 
REMARK    3  A    between atoms: C_4  and  N_5 
REMARK       I    between atoms: N_5  and  C_6 
REMARK       I    between atoms: C_6  and  N_8 
REMARK    4  A    between atoms: N_8  and  N_9 
REMARK       I    between atoms: N_9  and  C_10 
REMARK    5  A    between atoms: C_10  and  C_12 
REMARK    6  A    between atoms: C_12  and  C_13 
REMARK    7  A    between atoms: C_15  and  C_16 
REMARK    8  A    between atoms: C_21  and  C_22 
REMARK    9  A    between atoms: C_22  and  O_24 
ROOT
ATOM      1  C   UNL d   1      27.346 -16.547   0.119  0.00  0.00     0.162 C 
ENDROOT
BRANCH   1   2
ATOM      2  C   UNL d   1      26.309 -17.693   0.296  0.00  0.00     0.241 C 
ATOM      3  N   UNL d   1      24.996 -17.417  -0.085  0.00  0.00    -0.266 N 
ATOM      4  H   UNL d   1      24.665 -16.513  -0.417  0.00  0.00     0.190 HD
ATOM      5  O   UNL d   1      26.616 -18.814   0.713  0.00  0.00    -0.271 OA
BRANCH   3   6
ATOM      6  N   UNL d   1      23.991 -18.445   0.048  0.00  0.00    -0.249 N 
ATOM      7  C   UNL d   1      22.701 -18.217  -0.410  0.00  0.00     0.334 C 
ATOM      8  N   UNL d   1      21.818 -19.270  -0.229  0.00  0.00    -0.342 N 
ATOM      9  O   UNL d   1      22.375 -17.160  -0.946  0.00  0.00    -0.246 OA
ATOM     10  H   UNL d   1      22.130 -20.116   0.224  0.00  0.00     0.164 HD
ATOM     11  H   UNL d   1      24.289 -19.292   0.522  0.00  0.00     0.192 HD
BRANCH   8  12
ATOM     12  C   UNL d   1      20.421 -19.181  -0.671  0.00  0.00     0.124 C 
BRANCH  12  13
ATOM     13  C   UNL d   1      19.386 -19.393   0.447  0.00  0.00     0.019 C 
BRANCH  13  14
ATOM     14  C   UNL d   1      19.415 -20.826   1.004  0.00  0.00    -0.003 C 
ATOM     15  C   UNL d   1      18.030 -21.463   0.985  0.00  0.00     0.005 C 
ENDBRANCH  13  14
ENDBRANCH  12  13
ENDBRANCH   8  12
ENDBRANCH   3   6
ENDBRANCH   1   2
BRANCH   1  16
ATOM     16  C   UNL d   1      27.208 -15.888  -1.254  0.00  0.00     0.035 A 
ATOM     17  N   UNL d   1      26.145 -15.069  -1.595  0.00  0.00    -0.355 N 
ATOM     18  C   UNL d   1      26.187 -14.715  -2.936  0.00  0.00     0.085 A 
ATOM     19  H   UNL d   1      25.408 -14.805  -0.956  0.00  0.00     0.166 HD
ATOM     20  C   UNL d   1      27.362 -15.281  -3.442  0.00  0.00    -0.013 A 
ATOM     21  C   UNL d   1      27.862 -15.201  -4.851  0.00  0.00     0.052 C 
ATOM     22  C   UNL d   1      28.024 -16.006  -2.379  0.00  0.00     0.070 A 
BRANCH  18  23
ATOM     23  C   UNL d   1      25.181 -13.923  -3.666  0.00  0.00     0.172 C 
ATOM     24  C   UNL d   1      25.605 -12.809  -4.592  0.00  0.00     0.098 C 
ATOM     25  O   UNL d   1      23.968 -14.123  -3.563  0.00  0.00    -0.291 OA
ENDBRANCH  18  23
BRANCH  22  26
ATOM     26  C   UNL d   1      29.280 -16.780  -2.423  0.00  0.00     0.295 C 
ATOM     27  O   UNL d   1      30.044 -16.763  -3.387  0.00  0.00    -0.259 OA
BRANCH  26  28
ATOM     28  O   UNL d   1      29.507 -17.530  -1.306  0.00  0.00    -0.322 OA
ATOM     29  C   UNL d   1      30.884 -17.706  -0.962  0.00  0.00     0.213 C 
ENDBRANCH  26  28
ENDBRANCH  22  26
ENDBRANCH   1  16
TORSDOF 9
ENDMDL
MODEL 4
REMARK VINA RESULT:    -7.387      1.877      3.840
REMARK INTER + INTRA:         -12.210
REMARK INTER:                 -10.072
REMARK INTRA:                  -2.138
REMARK CONF_INDEPENDENT:        2.685
REMARK UNBOUND:                -2.138
REMARK  9 active torsions:
REMARK  status: ('A' for Active; 'I' for Inactive)
REMARK    1  A    between atoms: C_2  and  C_3 
REMARK    2  A    between atoms: C_3  and  C_4 
REMARK    3  A    between atoms: C_4  and  N_5 
REMARK       I    between atoms: N_5  and  C_6 
REMARK       I    between atoms: C_6  and  N_8 
REMARK    4  A    between atoms: N_8  and  N_9 
REMARK       I    between atoms: N_9  and  C_10 
REMARK    5  A    between atoms: C_10  and  C_12 
REMARK    6  A    between atoms: C_12  and  C_13 
REMARK    7  A    between atoms: C_15  and  C_16 
REMARK    8  A    between atoms: C_21  and  C_22 
REMARK    9  A    between atoms: C_22  and  O_24 
ROOT
ATOM      1  C   UNL d   1      24.550 -17.525  -0.100  0.00  0.00     0.162 C 
ENDROOT
BRANCH   1   2
ATOM      2  C   UNL d   1      23.041 -17.523  -0.474  0.00  0.00     0.241 C 
ATOM      3  N   UNL d   1      22.341 -18.712  -0.270  0.00  0.00    -0.266 N 
ATOM      4  H   UNL d   1      22.758 -19.584   0.052  0.00  0.00     0.190 HD
ATOM      5  O   UNL d   1      22.457 -16.519  -0.894  0.00  0.00    -0.271 OA
BRANCH   3   6
ATOM      6  N   UNL d   1      20.935 -18.768  -0.591  0.00  0.00    -0.249 N 
ATOM      7  C   UNL d   1      20.168 -19.845  -0.168  0.00  0.00     0.334 C 
ATOM      8  N   UNL d   1      18.832 -19.796  -0.534  0.00  0.00    -0.342 N 
ATOM      9  O   UNL d   1      20.645 -20.766   0.492  0.00  0.00    -0.246 OA
ATOM     10  H   UNL d   1      18.489 -19.023  -1.084  0.00  0.00     0.164 HD
ATOM     11  H   UNL d   1      20.583 -18.005  -1.163  0.00  0.00     0.192 HD
BRANCH   8  12
ATOM     12  C   UNL d   1      17.895 -20.860  -0.150  0.00  0.00     0.124 C 
BRANCH  12  13
ATOM     13  C   UNL d   1      18.011 -21.309   1.316  0.00  0.00     0.019 C 
BRANCH  13  14
ATOM     14  C   UNL d   1      18.335 -20.140   2.261  0.00  0.00    -0.003 C 
ATOM     15  C   UNL d   1      19.535 -20.450   3.148  0.00  0.00     0.005 C 
ENDBRANCH  13  14
ENDBRANCH  12  13
ENDBRANCH   8  12
ENDBRANCH   3   6
ENDBRANCH   1   2
BRANCH   1  16
ATOM     16  C   UNL d   1      25.361 -16.669  -1.074  0.00  0.00     0.035 A 
ATOM     17  N   UNL d   1      24.800 -16.038  -2.170  0.00  0.00    -0.355 N 
ATOM     18  C   UNL d   1      25.770 -15.445  -2.965  0.00  0.00     0.085 A 
ATOM     19  H   UNL d   1      23.813 -16.053  -2.387  0.00  0.00     0.166 HD
ATOM     20  C   UNL d   1      26.985 -15.655  -2.304  0.00  0.00    -0.013 A 
ATOM     21  C   UNL d   1      28.342 -15.219  -2.759  0.00  0.00     0.052 C 
ATOM     22  C   UNL d   1      26.731 -16.410  -1.095  0.00  0.00     0.070 A 
BRANCH  18  23
ATOM     23  C   UNL d   1      25.551 -14.757  -4.251  0.00  0.00     0.172 C 
ATOM     24  C   UNL d   1      26.594 -14.815  -5.340  0.00  0.00     0.098 C 
ATOM     25  O   UNL d   1      24.529 -14.114  -4.500  0.00  0.00    -0.291 OA
ENDBRANCH  18  23
BRANCH  22  26
ATOM     26  C   UNL d   1      27.689 -16.888  -0.079  0.00  0.00     0.295 C 
ATOM     27  O   UNL d   1      28.233 -17.990  -0.137  0.00  0.00    -0.259 OA
BRANCH  26  28
ATOM     28  O   UNL d   1      27.900 -16.006   0.941  0.00  0.00    -0.322 OA
ATOM     29  C   UNL d   1      27.220 -14.754   0.809  0.00  0.00     0.213 C 
ENDBRANCH  26  28
ENDBRANCH  22  26
ENDBRANCH   1  16
TORSDOF 9
ENDMDL
MODEL 5
REMARK VINA RESULT:    -7.372      2.494      4.012
REMARK INTER + INTRA:         -11.930
REMARK INTER:                 -10.056
REMARK INTRA:                  -1.874
REMARK CONF_INDEPENDENT:        2.685
REMARK UNBOUND:                -1.874
REMARK  9 active torsions:
REMARK  status: ('A' for Active; 'I' for Inactive)
REMARK    1  A    between atoms: C_2  and  C_3 
REMARK    2  A    between atoms: C_3  and  C_4 
REMARK    3  A    between atoms: C_4  and  N_5 
REMARK       I    between atoms: N_5  and  C_6 
REMARK       I    between atoms: C_6  and  N_8 
REMARK    4  A    between atoms: N_8  and  N_9 
REMARK       I    between atoms: N_9  and  C_10 
REMARK    5  A    between atoms: C_10  and  C_12 
REMARK    6  A    between atoms: C_12  and  C_13 
REMARK    7  A    between atoms: C_15  and  C_16 
REMARK    8  A    between atoms: C_21  and  C_22 
REMARK    9  A    between atoms: C_22  and  O_24 
ROOT
ATOM      1  C   UNL d   1      27.290 -16.700   0.117  0.00  0.00     0.162 C 
ENDROOT
BRANCH   1   2
ATOM      2  C   UNL d   1      26.234 -17.824   0.315  0.00  0.00     0.241 C 
ATOM      3  N   UNL d   1      24.921 -17.522  -0.044  0.00  0.00    -0.266 N 
ATOM      4  H   UNL d   1      24.603 -16.611  -0.373  0.00  0.00     0.190 HD
ATOM      5  O   UNL d   1      26.524 -18.950   0.730  0.00  0.00    -0.271 OA
BRANCH   3   6
ATOM      6  N   UNL d   1      23.897 -18.528   0.109  0.00  0.00    -0.249 N 
ATOM      7  C   UNL d   1      22.609 -18.283  -0.348  0.00  0.00     0.334 C 
ATOM      8  N   UNL d   1      21.708 -19.317  -0.147  0.00  0.00    -0.342 N 
ATOM      9  O   UNL d   1      22.301 -17.229  -0.899  0.00  0.00    -0.246 OA
ATOM     10  H   UNL d   1      22.006 -20.162   0.318  0.00  0.00     0.164 HD
ATOM     11  H   UNL d   1      24.181 -19.374   0.595  0.00  0.00     0.192 HD
BRANCH   8  12
ATOM     12  C   UNL d   1      20.310 -19.209  -0.586  0.00  0.00     0.124 C 
BRANCH  12  13
ATOM     13  C   UNL d   1      19.277 -19.405   0.536  0.00  0.00     0.019 C 
BRANCH  13  14
ATOM     14  C   UNL d   1      19.317 -20.825   1.125  0.00  0.00    -0.003 C 
ATOM     15  C   UNL d   1      17.980 -21.539   0.961  0.00  0.00     0.005 C 
ENDBRANCH  13  14
ENDBRANCH  12  13
ENDBRANCH   8  12
ENDBRANCH   3   6
ENDBRANCH   1   2
BRANCH   1  16
ATOM     16  C   UNL d   1      26.793 -15.645  -0.872  0.00  0.00     0.035 A 
ATOM     17  N   UNL d   1      26.259 -15.962  -2.109  0.00  0.00    -0.355 N 
ATOM     18  C   UNL d   1      26.018 -14.824  -2.864  0.00  0.00     0.085 A 
ATOM     19  H   UNL d   1      26.112 -16.908  -2.435  0.00  0.00     0.166 HD
ATOM     20  C   UNL d   1      26.352 -13.743  -2.041  0.00  0.00    -0.013 A 
ATOM     21  C   UNL d   1      26.281 -12.290  -2.394  0.00  0.00     0.052 C 
ATOM     22  C   UNL d   1      26.822 -14.254  -0.771  0.00  0.00     0.070 A 
BRANCH  18  23
ATOM     23  C   UNL d   1      25.529 -14.780  -4.254  0.00  0.00     0.172 C 
ATOM     24  C   UNL d   1      26.288 -15.477  -5.357  0.00  0.00     0.098 C 
ATOM     25  O   UNL d   1      24.498 -14.188  -4.583  0.00  0.00    -0.291 OA
ENDBRANCH  18  23
BRANCH  22  26
ATOM     26  C   UNL d   1      27.303 -13.511   0.410  0.00  0.00     0.295 C 
ATOM     27  O   UNL d   1      28.437 -13.641   0.868  0.00  0.00    -0.259 OA
BRANCH  26  28
ATOM     28  O   UNL d   1      26.368 -12.682   0.959  0.00  0.00    -0.322 OA
ATOM     29  C   UNL d   1      26.809 -11.946   2.104  0.00  0.00     0.213 C 
ENDBRANCH  26  28
ENDBRANCH  22  26
ENDBRANCH   1  16
TORSDOF 9
ENDMDL
MODEL 6
REMARK VINA RESULT:    -7.224      1.329      1.760
REMARK INTER + INTRA:         -12.465
REMARK INTER:                  -9.909
REMARK INTRA:                  -2.556
REMARK CONF_INDEPENDENT:        2.685
REMARK UNBOUND:                -2.556
REMARK  9 active torsions:
REMARK  status: ('A' for Active; 'I' for Inactive)
REMARK    1  A    between atoms: C_2  and  C_3 
REMARK    2  A    between atoms: C_3  and  C_4 
REMARK    3  A    between atoms: C_4  and  N_5 
REMARK       I    between atoms: N_5  and  C_6 
REMARK       I    between atoms: C_6  and  N_8 
REMARK    4  A    between atoms: N_8  and  N_9 
REMARK       I    between atoms: N_9  and  C_10 
REMARK    5  A    between atoms: C_10  and  C_12 
REMARK    6  A    between atoms: C_12  and  C_13 
REMARK    7  A    between atoms: C_15  and  C_16 
REMARK    8  A    between atoms: C_21  and  C_22 
REMARK    9  A    between atoms: C_22  and  O_24 
ROOT
ATOM      1  C   UNL d   1      26.623 -15.992  -0.072  0.00  0.00     0.162 C 
ENDROOT
BRANCH   1   2
ATOM      2  C   UNL d   1      25.784 -17.282   0.144  0.00  0.00     0.241 C 
ATOM      3  N   UNL d   1      24.436 -17.222  -0.210  0.00  0.00    -0.266 N 
ATOM      4  H   UNL d   1      23.960 -16.386  -0.547  0.00  0.00     0.190 HD
ATOM      5  O   UNL d   1      26.270 -18.334   0.570  0.00  0.00    -0.271 OA
BRANCH   3   6
ATOM      6  N   UNL d   1      23.607 -18.391  -0.040  0.00  0.00    -0.249 N 
ATOM      7  C   UNL d   1      22.255 -18.336  -0.350  0.00  0.00     0.334 C 
ATOM      8  N   UNL d   1      21.557 -19.515  -0.146  0.00  0.00    -0.342 N 
ATOM      9  O   UNL d   1      21.727 -17.314  -0.784  0.00  0.00    -0.246 OA
ATOM     10  H   UNL d   1      22.033 -20.326   0.219  0.00  0.00     0.164 HD
ATOM     11  H   UNL d   1      24.072 -19.207   0.349  0.00  0.00     0.192 HD
BRANCH   8  12
ATOM     12  C   UNL d   1      20.121 -19.613  -0.439  0.00  0.00     0.124 C 
BRANCH  12  13
ATOM     13  C   UNL d   1      19.426 -20.832   0.191  0.00  0.00     0.019 C 
BRANCH  13  14
ATOM     14  C   UNL d   1      18.826 -20.512   1.571  0.00  0.00    -0.003 C 
ATOM     15  C   UNL d   1      19.898 -20.072   2.561  0.00  0.00     0.005 C 
ENDBRANCH  13  14
ENDBRANCH  12  13
ENDBRANCH   8  12
ENDBRANCH   3   6
ENDBRANCH   1   2
BRANCH   1  16
ATOM     16  C   UNL d   1      27.288 -15.991  -1.450  0.00  0.00     0.035 A 
ATOM     17  N   UNL d   1      28.602 -16.374  -1.654  0.00  0.00    -0.355 N 
ATOM     18  C   UNL d   1      28.999 -16.148  -2.964  0.00  0.00     0.085 A 
ATOM     19  H   UNL d   1      29.207 -16.726  -0.925  0.00  0.00     0.166 HD
ATOM     20  C   UNL d   1      27.865 -15.666  -3.627  0.00  0.00    -0.013 A 
ATOM     21  C   UNL d   1      27.771 -15.259  -5.064  0.00  0.00     0.052 C 
ATOM     22  C   UNL d   1      26.773 -15.585  -2.681  0.00  0.00     0.070 A 
BRANCH  18  23
ATOM     23  C   UNL d   1      30.347 -16.359  -3.521  0.00  0.00     0.172 C 
ATOM     24  C   UNL d   1      30.600 -17.456  -4.527  0.00  0.00     0.098 C 
ATOM     25  O   UNL d   1      31.318 -15.667  -3.205  0.00  0.00    -0.291 OA
ENDBRANCH  18  23
BRANCH  22  26
ATOM     26  C   UNL d   1      25.388 -15.122  -2.896  0.00  0.00     0.295 C 
ATOM     27  O   UNL d   1      24.532 -15.136  -2.013  0.00  0.00    -0.259 OA
BRANCH  26  28
ATOM     28  O   UNL d   1      25.139 -14.695  -4.168  0.00  0.00    -0.322 OA
ATOM     29  C   UNL d   1      24.777 -13.317  -4.285  0.00  0.00     0.213 C 
ENDBRANCH  26  28
ENDBRANCH  22  26
ENDBRANCH   1  16
TORSDOF 9
ENDMDL
MODEL 7
REMARK VINA RESULT:    -7.089      3.483      4.214
REMARK INTER + INTRA:         -12.442
REMARK INTER:                  -9.774
REMARK INTRA:                  -2.668
REMARK CONF_INDEPENDENT:        2.685
REMARK UNBOUND:                -2.668
REMARK  9 active torsions:
REMARK  status: ('A' for Active; 'I' for Inactive)
REMARK    1  A    between atoms: C_2  and  C_3 
REMARK    2  A    between atoms: C_3  and  C_4 
REMARK    3  A    between atoms: C_4  and  N_5 
REMARK       I    between atoms: N_5  and  C_6 
REMARK       I    between atoms: C_6  and  N_8 
REMARK    4  A    between atoms: N_8  and  N_9 
REMARK       I    between atoms: N_9  and  C_10 
REMARK    5  A    between atoms: C_10  and  C_12 
REMARK    6  A    between atoms: C_12  and  C_13 
REMARK    7  A    between atoms: C_15  and  C_16 
REMARK    8  A    between atoms: C_21  and  C_22 
REMARK    9  A    between atoms: C_22  and  O_24 
ROOT
ATOM      1  C   UNL d   1      27.970 -16.628   0.150  0.00  0.00     0.162 C 
ENDROOT
BRANCH   1   2
ATOM      2  C   UNL d   1      26.832 -17.654   0.412  0.00  0.00     0.241 C 
ATOM      3  N   UNL d   1      25.617 -17.423  -0.234  0.00  0.00    -0.266 N 
ATOM      4  H   UNL d   1      25.412 -16.612  -0.814  0.00  0.00     0.190 HD
ATOM      5  O   UNL d   1      26.982 -18.654   1.119  0.00  0.00    -0.271 OA
BRANCH   3   6
ATOM      6  N   UNL d   1      24.525 -18.347  -0.037  0.00  0.00    -0.249 N 
ATOM      7  C   UNL d   1      23.281 -18.080  -0.592  0.00  0.00     0.334 C 
ATOM      8  N   UNL d   1      22.307 -19.033  -0.337  0.00  0.00    -0.342 N 
ATOM      9  O   UNL d   1      23.070 -17.076  -1.268  0.00  0.00    -0.246 OA
ATOM     10  H   UNL d   1      22.527 -19.838   0.231  0.00  0.00     0.164 HD
ATOM     11  H   UNL d   1      24.729 -19.150   0.552  0.00  0.00     0.192 HD
BRANCH   8  12
ATOM     12  C   UNL d   1      20.944 -18.893  -0.866  0.00  0.00     0.124 C 
BRANCH  12  13
ATOM     13  C   UNL d   1      19.994 -20.039  -0.481  0.00  0.00     0.019 C 
BRANCH  13  14
ATOM     14  C   UNL d   1      19.145 -19.701   0.757  0.00  0.00    -0.003 C 
ATOM     15  C   UNL d   1      19.853 -20.097   2.048  0.00  0.00     0.005 C 
ENDBRANCH  13  14
ENDBRANCH  12  13
ENDBRANCH   8  12
ENDBRANCH   3   6
ENDBRANCH   1   2
BRANCH   1  16
ATOM     16  C   UNL d   1      27.738 -15.336   0.937  0.00  0.00     0.035 A 
ATOM     17  N   UNL d   1      28.070 -15.198   2.274  0.00  0.00    -0.355 N 
ATOM     18  C   UNL d   1      27.630 -13.984   2.782  0.00  0.00     0.085 A 
ATOM     19  H   UNL d   1      28.530 -15.914   2.819  0.00  0.00     0.166 HD
ATOM     20  C   UNL d   1      27.058 -13.304   1.701  0.00  0.00    -0.013 A 
ATOM     21  C   UNL d   1      26.424 -11.949   1.728  0.00  0.00     0.052 C 
ATOM     22  C   UNL d   1      27.143 -14.144   0.526  0.00  0.00     0.070 A 
BRANCH  18  23
ATOM     23  C   UNL d   1      27.734 -13.529   4.180  0.00  0.00     0.172 C 
ATOM     24  C   UNL d   1      28.252 -14.456   5.254  0.00  0.00     0.098 C 
ATOM     25  O   UNL d   1      27.414 -12.393   4.540  0.00  0.00    -0.291 OA
ENDBRANCH  18  23
BRANCH  22  26
ATOM     26  C   UNL d   1      26.665 -13.877  -0.845  0.00  0.00     0.295 C 
ATOM     27  O   UNL d   1      26.757 -12.775  -1.383  0.00  0.00    -0.259 OA
BRANCH  26  28
ATOM     28  O   UNL d   1      26.096 -14.958  -1.452  0.00  0.00    -0.322 OA
ATOM     29  C   UNL d   1      25.224 -14.651  -2.544  0.00  0.00     0.213 C 
ENDBRANCH  26  28
ENDBRANCH  22  26
ENDBRANCH   1  16
TORSDOF 9
ENDMDL
MODEL 8
REMARK VINA RESULT:    -6.541      1.706      2.047
REMARK INTER + INTRA:         -11.901
REMARK INTER:                  -9.226
REMARK INTRA:                  -2.675
REMARK CONF_INDEPENDENT:        2.685
REMARK UNBOUND:                -2.675
REMARK  9 active torsions:
REMARK  status: ('A' for Active; 'I' for Inactive)
REMARK    1  A    between atoms: C_2  and  C_3 
REMARK    2  A    between atoms: C_3  and  C_4 
REMARK    3  A    between atoms: C_4  and  N_5 
REMARK       I    between atoms: N_5  and  C_6 
REMARK       I    between atoms: C_6  and  N_8 
REMARK    4  A    between atoms: N_8  and  N_9 
REMARK       I    between atoms: N_9  and  C_10 
REMARK    5  A    between atoms: C_10  and  C_12 
REMARK    6  A    between atoms: C_12  and  C_13 
REMARK    7  A    between atoms: C_15  and  C_16 
REMARK    8  A    between atoms: C_21  and  C_22 
REMARK    9  A    between atoms: C_22  and  O_24 
ROOT
ATOM      1  C   UNL d   1      27.357 -16.535   0.446  0.00  0.00     0.162 C 
ENDROOT
BRANCH   1   2
ATOM      2  C   UNL d   1      26.302 -17.670   0.580  0.00  0.00     0.241 C 
ATOM      3  N   UNL d   1      25.039 -17.419   0.044  0.00  0.00    -0.266 N 
ATOM      4  H   UNL d   1      24.750 -16.537  -0.375  0.00  0.00     0.190 HD
ATOM      5  O   UNL d   1      26.556 -18.763   1.094  0.00  0.00    -0.271 OA
BRANCH   3   6
ATOM      6  N   UNL d   1      24.020 -18.439   0.131  0.00  0.00    -0.249 N 
ATOM      7  C   UNL d   1      22.744 -18.188  -0.355  0.00  0.00     0.334 C 
ATOM      8  N   UNL d   1      21.847 -19.235  -0.219  0.00  0.00    -0.342 N 
ATOM      9  O   UNL d   1      22.444 -17.117  -0.878  0.00  0.00    -0.246 OA
ATOM     10  H   UNL d   1      22.138 -20.094   0.225  0.00  0.00     0.164 HD
ATOM     11  H   UNL d   1      24.297 -19.299   0.595  0.00  0.00     0.192 HD
BRANCH   8  12
ATOM     12  C   UNL d   1      20.462 -19.123  -0.695  0.00  0.00     0.124 C 
BRANCH  12  13
ATOM     13  C   UNL d   1      19.498 -20.160  -0.095  0.00  0.00     0.019 C 
BRANCH  13  14
ATOM     14  C   UNL d   1      18.956 -19.727   1.277  0.00  0.00    -0.003 C 
ATOM     15  C   UNL d   1      19.924 -20.080   2.400  0.00  0.00     0.005 C 
ENDBRANCH  13  14
ENDBRANCH  12  13
ENDBRANCH   8  12
ENDBRANCH   3   6
ENDBRANCH   1   2
BRANCH   1  16
ATOM     16  C   UNL d   1      28.299 -16.794  -0.731  0.00  0.00     0.035 A 
ATOM     17  N   UNL d   1      29.497 -17.475  -0.603  0.00  0.00    -0.355 N 
ATOM     18  C   UNL d   1      30.223 -17.450  -1.785  0.00  0.00     0.085 A 
ATOM     19  H   UNL d   1      29.820 -17.893   0.259  0.00  0.00     0.166 HD
ATOM     20  C   UNL d   1      29.416 -16.784  -2.713  0.00  0.00    -0.013 A 
ATOM     21  C   UNL d   1      29.751 -16.483  -4.141  0.00  0.00     0.052 C 
ATOM     22  C   UNL d   1      28.188 -16.385  -2.060  0.00  0.00     0.070 A 
BRANCH  18  23
ATOM     23  C   UNL d   1      31.574 -18.001  -1.996  0.00  0.00     0.172 C 
ATOM     24  C   UNL d   1      31.774 -19.258  -2.807  0.00  0.00     0.098 C 
ATOM     25  O   UNL d   1      32.590 -17.475  -1.535  0.00  0.00    -0.291 OA
ENDBRANCH  18  23
BRANCH  22  26
ATOM     26  C   UNL d   1      27.038 -15.644  -2.614  0.00  0.00     0.295 C 
ATOM     27  O   UNL d   1      27.161 -14.688  -3.378  0.00  0.00    -0.259 OA
BRANCH  26  28
ATOM     28  O   UNL d   1      25.826 -16.104  -2.185  0.00  0.00    -0.322 OA
ATOM     29  C   UNL d   1      24.735 -15.199  -2.370  0.00  0.00     0.213 C 
ENDBRANCH  26  28
ENDBRANCH  22  26
ENDBRANCH   1  16
TORSDOF 9
ENDMDL
MODEL 9
REMARK VINA RESULT:    -6.494      2.870      3.272
REMARK INTER + INTRA:         -11.905
REMARK INTER:                  -9.179
REMARK INTRA:                  -2.726
REMARK CONF_INDEPENDENT:        2.685
REMARK UNBOUND:                -2.726
REMARK  9 active torsions:
REMARK  status: ('A' for Active; 'I' for Inactive)
REMARK    1  A    between atoms: C_2  and  C_3 
REMARK    2  A    between atoms: C_3  and  C_4 
REMARK    3  A    between atoms: C_4  and  N_5 
REMARK       I    between atoms: N_5  and  C_6 
REMARK       I    between atoms: C_6  and  N_8 
REMARK    4  A    between atoms: N_8  and  N_9 
REMARK       I    between atoms: N_9  and  C_10 
REMARK    5  A    between atoms: C_10  and  C_12 
REMARK    6  A    between atoms: C_12  and  C_13 
REMARK    7  A    between atoms: C_15  and  C_16 
REMARK    8  A    between atoms: C_21  and  C_22 
REMARK    9  A    between atoms: C_22  and  O_24 
ROOT
ATOM      1  C   UNL d   1      28.174 -17.453  -0.204  0.00  0.00     0.162 C 
ENDROOT
BRANCH   1   2
ATOM      2  C   UNL d   1      26.881 -18.162   0.292  0.00  0.00     0.241 C 
ATOM      3  N   UNL d   1      25.711 -17.903  -0.421  0.00  0.00    -0.266 N 
ATOM      4  H   UNL d   1      25.636 -17.250  -1.200  0.00  0.00     0.190 HD
ATOM      5  O   UNL d   1      26.873 -18.950   1.242  0.00  0.00    -0.271 OA
BRANCH   3   6
ATOM      6  N   UNL d   1      24.480 -18.539  -0.013  0.00  0.00    -0.249 N 
ATOM      7  C   UNL d   1      23.299 -18.262  -0.688  0.00  0.00     0.334 C 
ATOM      8  N   UNL d   1      22.180 -18.926  -0.210  0.00  0.00    -0.342 N 
ATOM      9  O   UNL d   1      23.259 -17.493  -1.645  0.00  0.00    -0.246 OA
ATOM     10  H   UNL d   1      22.261 -19.543   0.585  0.00  0.00     0.164 HD
ATOM     11  H   UNL d   1      24.547 -19.145   0.800  0.00  0.00     0.192 HD
BRANCH   8  12
ATOM     12  C   UNL d   1      20.861 -18.743  -0.829  0.00  0.00     0.124 C 
BRANCH  12  13
ATOM     13  C   UNL d   1      19.853 -19.862  -0.517  0.00  0.00     0.019 C 
BRANCH  13  14
ATOM     14  C   UNL d   1      19.730 -20.133   0.992  0.00  0.00    -0.003 C 
ATOM     15  C   UNL d   1      18.434 -20.861   1.328  0.00  0.00     0.005 C 
ENDBRANCH  13  14
ENDBRANCH  12  13
ENDBRANCH   8  12
ENDBRANCH   3   6
ENDBRANCH   1   2
BRANCH   1  16
ATOM     16  C   UNL d   1      28.029 -15.932  -0.136  0.00  0.00     0.035 A 
ATOM     17  N   UNL d   1      28.388 -15.189   0.975  0.00  0.00    -0.355 N 
ATOM     18  C   UNL d   1      28.027 -13.857   0.833  0.00  0.00     0.085 A 
ATOM     19  H   UNL d   1      28.815 -15.582   1.803  0.00  0.00     0.166 HD
ATOM     20  C   UNL d   1      27.479 -13.746  -0.450  0.00  0.00    -0.013 A 
ATOM     21  C   UNL d   1      26.923 -12.510  -1.084  0.00  0.00     0.052 C 
ATOM     22  C   UNL d   1      27.497 -15.050  -1.077  0.00  0.00     0.070 A 
BRANCH  18  23
ATOM     23  C   UNL d   1      28.178 -12.794   1.843  0.00  0.00     0.172 C 
ATOM     24  C   UNL d   1      27.807 -13.046   3.284  0.00  0.00     0.098 C 
ATOM     25  O   UNL d   1      28.607 -11.670   1.572  0.00  0.00    -0.291 OA
ENDBRANCH  18  23
BRANCH  22  26
ATOM     26  C   UNL d   1      27.014 -15.446  -2.414  0.00  0.00     0.295 C 
ATOM     27  O   UNL d   1      27.767 -15.642  -3.368  0.00  0.00    -0.259 OA
BRANCH  26  28
ATOM     28  O   UNL d   1      25.657 -15.556  -2.502  0.00  0.00    -0.322 OA
ATOM     29  C   UNL d   1      25.002 -14.466  -3.158  0.00  0.00     0.213 C 
ENDBRANCH  26  28
ENDBRANCH  22  26
ENDBRANCH   1  16
TORSDOF 9
ENDMDL
