MODEL 1
REMARK VINA RESULT:   -10.218      0.000      0.000
REMARK INTER + INTRA:         -14.058
REMARK INTER:                 -12.306
REMARK INTRA:                  -1.752
REMARK CONF_INDEPENDENT:        2.088
REMARK UNBOUND:                -1.752
REMARK  7 active torsions:
REMARK  status: ('A' for Active; 'I' for Inactive)
REMARK    1  A    between atoms: O_2  and  C_3 
REMARK    2  A    between atoms: C_6  and  N_7 
REMARK       I    between atoms: N_7  and  C_8 
REMARK       I    between atoms: C_8  and  N_21 
REMARK       I    between atoms: N_9  and  C_10 
REMARK    3  A    between atoms: C_10  and  C_12 
REMARK    4  A    between atoms: C_16  and  N_17 
REMARK    5  A    between atoms: N_21  and  C_22 
REMARK    6  A    between atoms: C_22  and  C_23 
REMARK    7  A    between atoms: C_23  and  C_24 
ROOT
ATOM      1  N   UNL d   1      25.990 -17.616   0.148  0.00  0.00    -0.190 N 
ATOM      2  C   UNL d   1      27.050 -16.733  -0.162  0.00  0.00     0.704 C 
ATOM      3  N   UNL d   1      27.096 -15.705  -0.964  0.00  0.00    -0.023 NA
ATOM      4  C   UNL d   1      26.257 -15.728  -2.047  0.00  0.00     0.294 C 
ATOM      5  O   UNL d   1      26.136 -16.697  -2.764  0.00  0.00    -0.265 OA
ATOM      6  N   UNL d   1      28.271 -16.979   0.488  0.00  0.00    -0.224 N 
ATOM      7  H   UNL d   1      26.243 -18.501   0.565  0.00  0.00     0.184 HD
ATOM      8  H   UNL d   1      28.448 -17.893   0.890  0.00  0.00     0.177 HD
ENDROOT
BRANCH   1   9
ATOM      9  C   UNL d   1      24.636 -17.607  -0.332  0.00  0.00     0.049 C 
ATOM     10  C   UNL d   1      23.801 -16.495  -0.388  0.00  0.00     0.033 C 
ATOM     11  C   UNL d   1      22.391 -16.641  -0.595  0.00  0.00     0.039 C 
ATOM     12  C   UNL d   1      21.780 -17.895  -0.642  0.00  0.00     0.068 C 
ATOM     13  C   UNL d   1      22.615 -18.973  -0.658  0.00  0.00     0.039 C 
ATOM     14  C   UNL d   1      23.998 -18.750  -0.775  0.00  0.00     0.033 C 
BRANCH  12  15
ATOM     15  O   UNL d   1      20.443 -17.991  -0.897  0.00  0.00    -0.356 OA
ATOM     16  C   UNL d   1      19.850 -19.288  -0.775  0.00  0.00     0.210 C 
ENDBRANCH  12  15
ENDBRANCH   1   9
BRANCH   6  17
ATOM     17  C   UNL d   1      29.464 -16.181   0.095  0.00  0.00     0.142 C 
BRANCH  17  18
ATOM     18  C   UNL d   1      29.432 -14.728   0.544  0.00  0.00     0.057 C 
BRANCH  18  19
ATOM     19  C   UNL d   1      29.958 -14.391   1.923  0.00  0.00    -0.048 A 
ATOM     20  C   UNL d   1      29.099 -14.143   2.913  0.00  0.00    -0.006 A 
ATOM     21  C   UNL d   1      27.681 -14.145   2.917  0.00  0.00     0.014 A 
ATOM     22  C   UNL d   1      29.885 -13.777   4.097  0.00  0.00     0.038 A 
ATOM     23  C   UNL d   1      27.047 -13.711   4.008  0.00  0.00     0.001 A 
ATOM     24  C   UNL d   1      27.779 -13.366   5.215  0.00  0.00     0.002 A 
ATOM     25  C   UNL d   1      29.128 -13.381   5.308  0.00  0.00     0.030 A 
ATOM     26  N   UNL d   1      31.141 -13.861   3.861  0.00  0.00    -0.385 N 
ATOM     27  C   UNL d   1      31.373 -14.240   2.423  0.00  0.00     0.155 A 
ATOM     28  H   UNL d   1      31.847 -13.689   4.578  0.00  0.00     0.160 HD
ENDBRANCH  18  19
ENDBRANCH  17  18
ENDBRANCH   6  17
BRANCH   4  29
ATOM     29  C   UNL d   1      25.767 -14.419  -2.579  0.00  0.00     0.036 A 
ATOM     30  C   UNL d   1      25.062 -14.080  -3.741  0.00  0.00     0.017 A 
ATOM     31  C   UNL d   1      25.160 -12.784  -4.238  0.00  0.00     0.003 A 
ATOM     32  C   UNL d   1      25.859 -11.822  -3.508  0.00  0.00     0.029 A 
ATOM     33  C   UNL d   1      26.543 -12.133  -2.323  0.00  0.00     0.030 A 
ATOM     34  C   UNL d   1      26.465 -13.448  -1.909  0.00  0.00     0.046 A 
BRANCH  33  35
ATOM     35  N   UNL d   1      27.298 -11.253  -1.586  0.00  0.00    -0.390 N 
ATOM     36  C   UNL d   1      27.805 -11.599  -0.273  0.00  0.00     0.149 C 
ATOM     37  C   UNL d   1      27.602  -9.897  -2.049  0.00  0.00     0.149 C 
ENDBRANCH  33  35
ENDBRANCH   4  29
TORSDOF 7
ENDMDL
MODEL 2
REMARK VINA RESULT:    -9.967      0.974      1.512
REMARK INTER + INTRA:         -13.878
REMARK INTER:                 -12.055
REMARK INTRA:                  -1.822
REMARK CONF_INDEPENDENT:        2.088
REMARK UNBOUND:                -1.822
REMARK  7 active torsions:
REMARK  status: ('A' for Active; 'I' for Inactive)
REMARK    1  A    between atoms: O_2  and  C_3 
REMARK    2  A    between atoms: C_6  and  N_7 
REMARK       I    between atoms: N_7  and  C_8 
REMARK       I    between atoms: C_8  and  N_21 
REMARK       I    between atoms: N_9  and  C_10 
REMARK    3  A    between atoms: C_10  and  C_12 
REMARK    4  A    between atoms: C_16  and  N_17 
REMARK    5  A    between atoms: N_21  and  C_22 
REMARK    6  A    between atoms: C_22  and  C_23 
REMARK    7  A    between atoms: C_23  and  C_24 
ROOT
ATOM      1  N   UNL d   1      26.089 -17.408   0.192  0.00  0.00    -0.190 N 
ATOM      2  C   UNL d   1      27.129 -16.513  -0.148  0.00  0.00     0.704 C 
ATOM      3  N   UNL d   1      27.160 -15.526  -1.001  0.00  0.00    -0.023 NA
ATOM      4  C   UNL d   1      26.338 -15.626  -2.092  0.00  0.00     0.294 C 
ATOM      5  O   UNL d   1      26.254 -16.633  -2.761  0.00  0.00    -0.265 OA
ATOM      6  N   UNL d   1      28.346 -16.692   0.531  0.00  0.00    -0.224 N 
ATOM      7  H   UNL d   1      26.359 -18.265   0.656  0.00  0.00     0.184 HD
ATOM      8  H   UNL d   1      28.542 -17.580   0.981  0.00  0.00     0.177 HD
ENDROOT
BRANCH   1   9
ATOM      9  C   UNL d   1      24.742 -17.461  -0.307  0.00  0.00     0.049 C 
ATOM     10  C   UNL d   1      23.895 -16.370  -0.476  0.00  0.00     0.033 C 
ATOM     11  C   UNL d   1      22.490 -16.553  -0.689  0.00  0.00     0.039 C 
ATOM     12  C   UNL d   1      21.895 -17.814  -0.630  0.00  0.00     0.068 C 
ATOM     13  C   UNL d   1      22.744 -18.878  -0.537  0.00  0.00     0.039 C 
ATOM     14  C   UNL d   1      24.126 -18.648  -0.653  0.00  0.00     0.033 C 
BRANCH  12  15
ATOM     15  O   UNL d   1      20.564 -17.951  -0.895  0.00  0.00    -0.356 OA
ATOM     16  C   UNL d   1      20.015 -19.270  -0.799  0.00  0.00     0.210 C 
ENDBRANCH  12  15
ENDBRANCH   1   9
BRANCH   6  17
ATOM     17  C   UNL d   1      29.524 -15.883   0.114  0.00  0.00     0.142 C 
BRANCH  17  18
ATOM     18  C   UNL d   1      29.852 -14.719   1.038  0.00  0.00     0.057 C 
BRANCH  18  19
ATOM     19  C   UNL d   1      28.728 -14.102   1.841  0.00  0.00    -0.048 A 
ATOM     20  C   UNL d   1      28.822 -14.043   3.171  0.00  0.00    -0.006 A 
ATOM     21  C   UNL d   1      29.861 -14.475   4.035  0.00  0.00     0.014 A 
ATOM     22  C   UNL d   1      27.569 -13.471   3.676  0.00  0.00     0.038 A 
ATOM     23  C   UNL d   1      29.648 -14.443   5.352  0.00  0.00     0.001 A 
ATOM     24  C   UNL d   1      28.436 -13.858   5.902  0.00  0.00     0.002 A 
ATOM     25  C   UNL d   1      27.419 -13.384   5.148  0.00  0.00     0.030 A 
ATOM     26  N   UNL d   1      26.790 -13.143   2.715  0.00  0.00    -0.385 N 
ATOM     27  C   UNL d   1      27.407 -13.524   1.396  0.00  0.00     0.155 A 
ATOM     28  H   UNL d   1      25.890 -12.686   2.869  0.00  0.00     0.160 HD
ENDBRANCH  18  19
ENDBRANCH  17  18
ENDBRANCH   6  17
BRANCH   4  29
ATOM     29  C   UNL d   1      25.821 -14.360  -2.696  0.00  0.00     0.036 A 
ATOM     30  C   UNL d   1      25.096 -14.103  -3.867  0.00  0.00     0.017 A 
ATOM     31  C   UNL d   1      25.167 -12.839  -4.444  0.00  0.00     0.003 A 
ATOM     32  C   UNL d   1      25.861 -11.823  -3.784  0.00  0.00     0.029 A 
ATOM     33  C   UNL d   1      26.564 -12.051  -2.591  0.00  0.00     0.030 A 
ATOM     34  C   UNL d   1      26.512 -13.339  -2.096  0.00  0.00     0.046 A 
BRANCH  33  35
ATOM     35  N   UNL d   1      27.315 -11.116  -1.919  0.00  0.00    -0.390 N 
ATOM     36  C   UNL d   1      27.059  -9.696  -2.053  0.00  0.00     0.149 C 
ATOM     37  C   UNL d   1      28.446 -11.482  -1.065  0.00  0.00     0.149 C 
ENDBRANCH  33  35
ENDBRANCH   4  29
TORSDOF 7
ENDMDL
MODEL 3
REMARK VINA RESULT:    -9.210      3.587      7.900
REMARK INTER + INTRA:         -13.345
REMARK INTER:                 -11.298
REMARK INTRA:                  -2.047
REMARK CONF_INDEPENDENT:        2.088
REMARK UNBOUND:                -2.047
REMARK  7 active torsions:
REMARK  status: ('A' for Active; 'I' for Inactive)
REMARK    1  A    between atoms: O_2  and  C_3 
REMARK    2  A    between atoms: C_6  and  N_7 
REMARK       I    between atoms: N_7  and  C_8 
REMARK       I    between atoms: C_8  and  N_21 
REMARK       I    between atoms: N_9  and  C_10 
REMARK    3  A    between atoms: C_10  and  C_12 
REMARK    4  A    between atoms: C_16  and  N_17 
REMARK    5  A    between atoms: N_21  and  C_22 
REMARK    6  A    between atoms: C_22  and  C_23 
REMARK    7  A    between atoms: C_23  and  C_24 
ROOT
ATOM      1  N   UNL d   1      29.515 -14.577   3.542  0.00  0.00    -0.190 N 
ATOM      2  C   UNL d   1      28.956 -14.167   2.311  0.00  0.00     0.704 C 
ATOM      3  N   UNL d   1      28.198 -13.146   2.017  0.00  0.00    -0.023 NA
ATOM      4  C   UNL d   1      27.379 -12.678   3.010  0.00  0.00     0.294 C 
ATOM      5  O   UNL d   1      26.695 -13.406   3.696  0.00  0.00    -0.265 OA
ATOM      6  N   UNL d   1      29.250 -14.973   1.199  0.00  0.00    -0.224 N 
ATOM      7  H   UNL d   1      29.826 -15.537   3.604  0.00  0.00     0.184 HD
ATOM      8  H   UNL d   1      29.566 -15.926   1.342  0.00  0.00     0.177 HD
ENDROOT
BRANCH   1   9
ATOM      9  C   UNL d   1      29.415 -13.954   4.834  0.00  0.00     0.049 C 
ATOM     10  C   UNL d   1      28.475 -14.259   5.813  0.00  0.00     0.033 C 
ATOM     11  C   UNL d   1      28.266 -13.390   6.932  0.00  0.00     0.039 C 
ATOM     12  C   UNL d   1      28.910 -12.157   7.037  0.00  0.00     0.068 C 
ATOM     13  C   UNL d   1      29.880 -11.902   6.112  0.00  0.00     0.039 C 
ATOM     14  C   UNL d   1      30.256 -12.932   5.231  0.00  0.00     0.033 C 
BRANCH  12  15
ATOM     15  O   UNL d   1      28.727 -11.385   8.147  0.00  0.00    -0.356 OA
ATOM     16  C   UNL d   1      28.471 -12.068   9.378  0.00  0.00     0.210 C 
ENDBRANCH  12  15
ENDBRANCH   1   9
BRANCH   6  17
ATOM     17  C   UNL d   1      28.573 -14.682  -0.095  0.00  0.00     0.142 C 
BRANCH  17  18
ATOM     18  C   UNL d   1      27.083 -14.991  -0.114  0.00  0.00     0.057 C 
BRANCH  18  19
ATOM     19  C   UNL d   1      26.651 -16.440  -0.047  0.00  0.00    -0.048 A 
ATOM     20  C   UNL d   1      25.396 -16.769  -0.361  0.00  0.00    -0.006 A 
ATOM     21  C   UNL d   1      24.316 -15.955  -0.788  0.00  0.00     0.014 A 
ATOM     22  C   UNL d   1      25.249 -18.211  -0.133  0.00  0.00     0.038 A 
ATOM     23  C   UNL d   1      23.106 -16.508  -0.894  0.00  0.00     0.001 A 
ATOM     24  C   UNL d   1      22.915 -17.937  -0.708  0.00  0.00     0.002 A 
ATOM     25  C   UNL d   1      23.900 -18.788  -0.346  0.00  0.00     0.030 A 
ATOM     26  N   UNL d   1      26.357 -18.737   0.233  0.00  0.00    -0.385 N 
ATOM     27  C   UNL d   1      27.414 -17.673   0.370  0.00  0.00     0.155 A 
ATOM     28  H   UNL d   1      26.463 -19.739   0.394  0.00  0.00     0.160 HD
ENDBRANCH  18  19
ENDBRANCH  17  18
ENDBRANCH   6  17
BRANCH   4  29
ATOM     29  C   UNL d   1      27.032 -11.223   3.002  0.00  0.00     0.036 A 
ATOM     30  C   UNL d   1      26.306 -10.434   2.100  0.00  0.00     0.017 A 
ATOM     31  C   UNL d   1      26.541  -9.063   2.058  0.00  0.00     0.003 A 
ATOM     32  C   UNL d   1      27.405  -8.489   2.991  0.00  0.00     0.029 A 
ATOM     33  C   UNL d   1      28.115  -9.258   3.926  0.00  0.00     0.030 A 
ATOM     34  C   UNL d   1      27.892 -10.619   3.882  0.00  0.00     0.046 A 
BRANCH  33  35
ATOM     35  N   UNL d   1      29.024  -8.768   4.833  0.00  0.00    -0.390 N 
ATOM     36  C   UNL d   1      28.602  -8.081   6.037  0.00  0.00     0.149 C 
ATOM     37  C   UNL d   1      30.471  -8.861   4.626  0.00  0.00     0.149 C 
ENDBRANCH  33  35
ENDBRANCH   4  29
TORSDOF 7
ENDMDL
MODEL 4
REMARK VINA RESULT:    -8.900      2.244      4.160
REMARK INTER + INTRA:         -13.843
REMARK INTER:                 -10.988
REMARK INTRA:                  -2.855
REMARK CONF_INDEPENDENT:        2.088
REMARK UNBOUND:                -2.855
REMARK  7 active torsions:
REMARK  status: ('A' for Active; 'I' for Inactive)
REMARK    1  A    between atoms: O_2  and  C_3 
REMARK    2  A    between atoms: C_6  and  N_7 
REMARK       I    between atoms: N_7  and  C_8 
REMARK       I    between atoms: C_8  and  N_21 
REMARK       I    between atoms: N_9  and  C_10 
REMARK    3  A    between atoms: C_10  and  C_12 
REMARK    4  A    between atoms: C_16  and  N_17 
REMARK    5  A    between atoms: N_21  and  C_22 
REMARK    6  A    between atoms: C_22  and  C_23 
REMARK    7  A    between atoms: C_23  and  C_24 
ROOT
ATOM      1  N   UNL d   1      26.236 -17.142   0.274  0.00  0.00    -0.190 N 
ATOM      2  C   UNL d   1      27.213 -16.193  -0.104  0.00  0.00     0.704 C 
ATOM      3  N   UNL d   1      27.192 -15.266  -1.022  0.00  0.00    -0.023 NA
ATOM      4  C   UNL d   1      26.411 -15.503  -2.122  0.00  0.00     0.294 C 
ATOM      5  O   UNL d   1      26.422 -16.557  -2.721  0.00  0.00    -0.265 OA
ATOM      6  N   UNL d   1      28.421 -16.230   0.613  0.00  0.00    -0.224 N 
ATOM      7  H   UNL d   1      26.558 -17.942   0.802  0.00  0.00     0.184 HD
ATOM      8  H   UNL d   1      28.672 -17.068   1.127  0.00  0.00     0.177 HD
ENDROOT
BRANCH   1   9
ATOM      9  C   UNL d   1      24.911 -17.333  -0.250  0.00  0.00     0.049 C 
ATOM     10  C   UNL d   1      23.989 -16.325  -0.516  0.00  0.00     0.033 C 
ATOM     11  C   UNL d   1      22.609 -16.630  -0.747  0.00  0.00     0.039 C 
ATOM     12  C   UNL d   1      22.109 -17.926  -0.610  0.00  0.00     0.068 C 
ATOM     13  C   UNL d   1      23.032 -18.912  -0.421  0.00  0.00     0.039 C 
ATOM     14  C   UNL d   1      24.395 -18.586  -0.522  0.00  0.00     0.033 C 
BRANCH  12  15
ATOM     15  O   UNL d   1      20.799 -18.183  -0.894  0.00  0.00    -0.356 OA
ATOM     16  C   UNL d   1      20.291 -19.465  -0.509  0.00  0.00     0.210 C 
ENDBRANCH  12  15
ENDBRANCH   1   9
BRANCH   6  17
ATOM     17  C   UNL d   1      29.544 -15.361   0.167  0.00  0.00     0.142 C 
BRANCH  17  18
ATOM     18  C   UNL d   1      30.639 -16.084  -0.604  0.00  0.00     0.057 C 
BRANCH  18  19
ATOM     19  C   UNL d   1      30.345 -16.524  -2.022  0.00  0.00    -0.048 A 
ATOM     20  C   UNL d   1      29.928 -15.626  -2.917  0.00  0.00    -0.006 A 
ATOM     21  C   UNL d   1      29.701 -14.233  -2.779  0.00  0.00     0.014 A 
ATOM     22  C   UNL d   1      29.654 -16.345  -4.167  0.00  0.00     0.038 A 
ATOM     23  C   UNL d   1      29.132 -13.578  -3.793  0.00  0.00     0.001 A 
ATOM     24  C   UNL d   1      28.870 -14.238  -5.061  0.00  0.00     0.002 A 
ATOM     25  C   UNL d   1      29.100 -15.550  -5.289  0.00  0.00     0.030 A 
ATOM     26  N   UNL d   1      29.947 -17.586  -4.060  0.00  0.00    -0.385 N 
ATOM     27  C   UNL d   1      30.408 -17.890  -2.659  0.00  0.00     0.155 A 
ATOM     28  H   UNL d   1      29.868 -18.239  -4.841  0.00  0.00     0.160 HD
ENDBRANCH  18  19
ENDBRANCH  17  18
ENDBRANCH   6  17
BRANCH   4  29
ATOM     29  C   UNL d   1      25.815 -14.324  -2.822  0.00  0.00     0.036 A 
ATOM     30  C   UNL d   1      25.171 -14.192  -4.060  0.00  0.00     0.017 A 
ATOM     31  C   UNL d   1      25.155 -12.949  -4.685  0.00  0.00     0.003 A 
ATOM     32  C   UNL d   1      25.676 -11.840  -4.017  0.00  0.00     0.029 A 
ATOM     33  C   UNL d   1      26.294 -11.946  -2.761  0.00  0.00     0.030 A 
ATOM     34  C   UNL d   1      26.337 -13.213  -2.215  0.00  0.00     0.046 A 
BRANCH  33  35
ATOM     35  N   UNL d   1      26.878 -10.910  -2.073  0.00  0.00    -0.390 N 
ATOM     36  C   UNL d   1      27.717 -11.143  -0.915  0.00  0.00     0.149 C 
ATOM     37  C   UNL d   1      26.659  -9.506  -2.429  0.00  0.00     0.149 C 
ENDBRANCH  33  35
ENDBRANCH   4  29
TORSDOF 7
ENDMDL
MODEL 5
REMARK VINA RESULT:    -8.869      2.967      6.933
REMARK INTER + INTRA:         -13.344
REMARK INTER:                 -10.957
REMARK INTRA:                  -2.387
REMARK CONF_INDEPENDENT:        2.088
REMARK UNBOUND:                -2.387
REMARK  7 active torsions:
REMARK  status: ('A' for Active; 'I' for Inactive)
REMARK    1  A    between atoms: O_2  and  C_3 
REMARK    2  A    between atoms: C_6  and  N_7 
REMARK       I    between atoms: N_7  and  C_8 
REMARK       I    between atoms: C_8  and  N_21 
REMARK       I    between atoms: N_9  and  C_10 
REMARK    3  A    between atoms: C_10  and  C_12 
REMARK    4  A    between atoms: C_16  and  N_17 
REMARK    5  A    between atoms: N_21  and  C_22 
REMARK    6  A    between atoms: C_22  and  C_23 
REMARK    7  A    between atoms: C_23  and  C_24 
ROOT
ATOM      1  N   UNL d   1      29.412 -14.716   2.675  0.00  0.00    -0.190 N 
ATOM      2  C   UNL d   1      29.220 -14.776   1.277  0.00  0.00     0.704 C 
ATOM      3  N   UNL d   1      28.581 -13.975   0.468  0.00  0.00    -0.023 NA
ATOM      4  C   UNL d   1      27.521 -13.283   0.994  0.00  0.00     0.294 C 
ATOM      5  O   UNL d   1      26.669 -13.807   1.678  0.00  0.00    -0.265 OA
ATOM      6  N   UNL d   1      29.805 -15.870   0.618  0.00  0.00    -0.224 N 
ATOM      7  H   UNL d   1      29.686 -15.574   3.135  0.00  0.00     0.184 HD
ATOM      8  H   UNL d   1      30.061 -16.695   1.150  0.00  0.00     0.177 HD
ENDROOT
BRANCH   1   9
ATOM      9  C   UNL d   1      28.961 -13.720   3.608  0.00  0.00     0.049 C 
ATOM     10  C   UNL d   1      29.600 -12.514   3.880  0.00  0.00     0.033 C 
ATOM     11  C   UNL d   1      29.245 -11.733   5.028  0.00  0.00     0.039 C 
ATOM     12  C   UNL d   1      28.329 -12.192   5.975  0.00  0.00     0.068 C 
ATOM     13  C   UNL d   1      27.659 -13.339   5.661  0.00  0.00     0.039 C 
ATOM     14  C   UNL d   1      27.824 -13.883   4.375  0.00  0.00     0.033 C 
BRANCH  12  15
ATOM     15  O   UNL d   1      27.976 -11.394   7.024  0.00  0.00    -0.356 OA
ATOM     16  C   UNL d   1      28.594 -11.668   8.286  0.00  0.00     0.210 C 
ENDBRANCH  12  15
ENDBRANCH   1   9
BRANCH   6  17
ATOM     17  C   UNL d   1      29.516 -16.073  -0.828  0.00  0.00     0.142 C 
BRANCH  17  18
ATOM     18  C   UNL d   1      28.303 -16.945  -1.116  0.00  0.00     0.057 C 
BRANCH  18  19
ATOM     19  C   UNL d   1      26.977 -16.265  -1.380  0.00  0.00    -0.048 A 
ATOM     20  C   UNL d   1      25.861 -16.768  -0.849  0.00  0.00    -0.006 A 
ATOM     21  C   UNL d   1      25.673 -17.900  -0.014  0.00  0.00     0.014 A 
ATOM     22  C   UNL d   1      24.738 -15.955  -1.331  0.00  0.00     0.038 A 
ATOM     23  C   UNL d   1      24.426 -18.287   0.262  0.00  0.00     0.001 A 
ATOM     24  C   UNL d   1      23.283 -17.499  -0.167  0.00  0.00     0.002 A 
ATOM     25  C   UNL d   1      23.379 -16.384  -0.926  0.00  0.00     0.030 A 
ATOM     26  N   UNL d   1      25.149 -14.983  -2.055  0.00  0.00    -0.385 N 
ATOM     27  C   UNL d   1      26.645 -15.054  -2.216  0.00  0.00     0.155 A 
ATOM     28  H   UNL d   1      24.518 -14.281  -2.443  0.00  0.00     0.160 HD
ENDBRANCH  18  19
ENDBRANCH  17  18
ENDBRANCH   6  17
BRANCH   4  29
ATOM     29  C   UNL d   1      27.202 -11.945   0.408  0.00  0.00     0.036 A 
ATOM     30  C   UNL d   1      27.412 -11.402  -0.866  0.00  0.00     0.017 A 
ATOM     31  C   UNL d   1      27.478 -10.019  -1.010  0.00  0.00     0.003 A 
ATOM     32  C   UNL d   1      27.218  -9.203   0.092  0.00  0.00     0.029 A 
ATOM     33  C   UNL d   1      26.971  -9.729   1.370  0.00  0.00     0.030 A 
ATOM     34  C   UNL d   1      26.978 -11.106   1.468  0.00  0.00     0.046 A 
BRANCH  33  35
ATOM     35  N   UNL d   1      26.766  -8.987   2.509  0.00  0.00    -0.390 N 
ATOM     36  C   UNL d   1      26.620  -7.547   2.462  0.00  0.00     0.149 C 
ATOM     37  C   UNL d   1      26.727  -9.589   3.843  0.00  0.00     0.149 C 
ENDBRANCH  33  35
ENDBRANCH   4  29
TORSDOF 7
ENDMDL
MODEL 6
REMARK VINA RESULT:    -8.790      2.220      4.272
REMARK INTER + INTRA:         -13.915
REMARK INTER:                 -10.878
REMARK INTRA:                  -3.037
REMARK CONF_INDEPENDENT:        2.088
REMARK UNBOUND:                -3.037
REMARK  7 active torsions:
REMARK  status: ('A' for Active; 'I' for Inactive)
REMARK    1  A    between atoms: O_2  and  C_3 
REMARK    2  A    between atoms: C_6  and  N_7 
REMARK       I    between atoms: N_7  and  C_8 
REMARK       I    between atoms: C_8  and  N_21 
REMARK       I    between atoms: N_9  and  C_10 
REMARK    3  A    between atoms: C_10  and  C_12 
REMARK    4  A    between atoms: C_16  and  N_17 
REMARK    5  A    between atoms: N_21  and  C_22 
REMARK    6  A    between atoms: C_22  and  C_23 
REMARK    7  A    between atoms: C_23  and  C_24 
ROOT
ATOM      1  N   UNL d   1      26.239 -17.148   0.303  0.00  0.00    -0.190 N 
ATOM      2  C   UNL d   1      27.220 -16.199  -0.065  0.00  0.00     0.704 C 
ATOM      3  N   UNL d   1      27.205 -15.267  -0.979  0.00  0.00    -0.023 NA
ATOM      4  C   UNL d   1      26.430 -15.499  -2.085  0.00  0.00     0.294 C 
ATOM      5  O   UNL d   1      26.443 -16.550  -2.688  0.00  0.00    -0.265 OA
ATOM      6  N   UNL d   1      28.424 -16.240   0.658  0.00  0.00    -0.224 N 
ATOM      7  H   UNL d   1      26.557 -17.950   0.829  0.00  0.00     0.184 HD
ATOM      8  H   UNL d   1      28.670 -17.080   1.170  0.00  0.00     0.177 HD
ENDROOT
BRANCH   1   9
ATOM      9  C   UNL d   1      24.917 -17.335  -0.229  0.00  0.00     0.049 C 
ATOM     10  C   UNL d   1      24.000 -16.325  -0.502  0.00  0.00     0.033 C 
ATOM     11  C   UNL d   1      22.621 -16.625  -0.741  0.00  0.00     0.039 C 
ATOM     12  C   UNL d   1      22.115 -17.919  -0.608  0.00  0.00     0.068 C 
ATOM     13  C   UNL d   1      23.034 -18.909  -0.412  0.00  0.00     0.039 C 
ATOM     14  C   UNL d   1      24.399 -18.586  -0.505  0.00  0.00     0.033 C 
BRANCH  12  15
ATOM     15  O   UNL d   1      20.807 -18.173  -0.900  0.00  0.00    -0.356 OA
ATOM     16  C   UNL d   1      20.294 -19.454  -0.522  0.00  0.00     0.210 C 
ENDBRANCH  12  15
ENDBRANCH   1   9
BRANCH   6  17
ATOM     17  C   UNL d   1      29.550 -15.371   0.223  0.00  0.00     0.142 C 
BRANCH  17  18
ATOM     18  C   UNL d   1      29.986 -15.572  -1.221  0.00  0.00     0.057 C 
BRANCH  18  19
ATOM     19  C   UNL d   1      29.782 -14.433  -2.197  0.00  0.00    -0.048 A 
ATOM     20  C   UNL d   1      29.401 -14.698  -3.449  0.00  0.00    -0.006 A 
ATOM     21  C   UNL d   1      29.124 -15.939  -4.077  0.00  0.00     0.014 A 
ATOM     22  C   UNL d   1      29.358 -13.424  -4.175  0.00  0.00     0.038 A 
ATOM     23  C   UNL d   1      28.907 -15.950  -5.394  0.00  0.00     0.001 A 
ATOM     24  C   UNL d   1      28.824 -14.712  -6.152  0.00  0.00     0.002 A 
ATOM     25  C   UNL d   1      29.031 -13.488  -5.619  0.00  0.00     0.030 A 
ATOM     26  N   UNL d   1      29.630 -12.442  -3.401  0.00  0.00    -0.385 N 
ATOM     27  C   UNL d   1      29.969 -12.947  -2.023  0.00  0.00     0.155 A 
ATOM     28  H   UNL d   1      29.604 -11.471  -3.715  0.00  0.00     0.160 HD
ENDBRANCH  18  19
ENDBRANCH  17  18
ENDBRANCH   6  17
BRANCH   4  29
ATOM     29  C   UNL d   1      25.839 -14.316  -2.784  0.00  0.00     0.036 A 
ATOM     30  C   UNL d   1      25.162 -14.186  -4.004  0.00  0.00     0.017 A 
ATOM     31  C   UNL d   1      25.155 -12.951  -4.645  0.00  0.00     0.003 A 
ATOM     32  C   UNL d   1      25.720 -11.845  -4.008  0.00  0.00     0.029 A 
ATOM     33  C   UNL d   1      26.372 -11.948  -2.770  0.00  0.00     0.030 A 
ATOM     34  C   UNL d   1      26.404 -13.209  -2.207  0.00  0.00     0.046 A 
BRANCH  33  35
ATOM     35  N   UNL d   1      26.999 -10.917  -2.113  0.00  0.00    -0.390 N 
ATOM     36  C   UNL d   1      27.432 -11.043  -0.736  0.00  0.00     0.149 C 
ATOM     37  C   UNL d   1      27.231  -9.612  -2.737  0.00  0.00     0.149 C 
ENDBRANCH  33  35
ENDBRANCH   4  29
TORSDOF 7
ENDMDL
MODEL 7
REMARK VINA RESULT:    -8.564      2.989      5.064
REMARK INTER + INTRA:         -13.162
REMARK INTER:                 -10.652
REMARK INTRA:                  -2.510
REMARK CONF_INDEPENDENT:        2.088
REMARK UNBOUND:                -2.510
REMARK  7 active torsions:
REMARK  status: ('A' for Active; 'I' for Inactive)
REMARK    1  A    between atoms: O_2  and  C_3 
REMARK    2  A    between atoms: C_6  and  N_7 
REMARK       I    between atoms: N_7  and  C_8 
REMARK       I    between atoms: C_8  and  N_21 
REMARK       I    between atoms: N_9  and  C_10 
REMARK    3  A    between atoms: C_10  and  C_12 
REMARK    4  A    between atoms: C_16  and  N_17 
REMARK    5  A    between atoms: N_21  and  C_22 
REMARK    6  A    between atoms: C_22  and  C_23 
REMARK    7  A    between atoms: C_23  and  C_24 
ROOT
ATOM      1  N   UNL d   1      27.027 -17.028   0.309  0.00  0.00    -0.190 N 
ATOM      2  C   UNL d   1      28.060 -16.159  -0.108  0.00  0.00     0.704 C 
ATOM      3  N   UNL d   1      28.091 -15.268  -1.062  0.00  0.00    -0.023 NA
ATOM      4  C   UNL d   1      27.291 -15.498  -2.149  0.00  0.00     0.294 C 
ATOM      5  O   UNL d   1      27.232 -16.572  -2.707  0.00  0.00    -0.265 OA
ATOM      6  N   UNL d   1      29.267 -16.244   0.605  0.00  0.00    -0.224 N 
ATOM      7  H   UNL d   1      27.301 -17.826   0.867  0.00  0.00     0.184 HD
ATOM      8  H   UNL d   1      29.467 -17.075   1.151  0.00  0.00     0.177 HD
ENDROOT
BRANCH   1   9
ATOM      9  C   UNL d   1      25.690 -17.156  -0.203  0.00  0.00     0.049 C 
ATOM     10  C   UNL d   1      24.837 -16.103  -0.520  0.00  0.00     0.033 C 
ATOM     11  C   UNL d   1      23.438 -16.325  -0.733  0.00  0.00     0.039 C 
ATOM     12  C   UNL d   1      22.852 -17.575  -0.530  0.00  0.00     0.068 C 
ATOM     13  C   UNL d   1      23.707 -18.611  -0.291  0.00  0.00     0.039 C 
ATOM     14  C   UNL d   1      25.089 -18.383  -0.410  0.00  0.00     0.033 C 
BRANCH  12  15
ATOM     15  O   UNL d   1      21.527 -17.757  -0.799  0.00  0.00    -0.356 OA
ATOM     16  C   UNL d   1      21.034 -19.101  -0.757  0.00  0.00     0.210 C 
ENDBRANCH  12  15
ENDBRANCH   1   9
BRANCH   6  17
ATOM     17  C   UNL d   1      30.440 -15.465   0.123  0.00  0.00     0.142 C 
BRANCH  17  18
ATOM     18  C   UNL d   1      31.257 -16.154  -0.960  0.00  0.00     0.057 C 
BRANCH  18  19
ATOM     19  C   UNL d   1      30.975 -15.801  -2.405  0.00  0.00    -0.048 A 
ATOM     20  C   UNL d   1      30.804 -16.776  -3.300  0.00  0.00    -0.006 A 
ATOM     21  C   UNL d   1      30.829 -18.184  -3.135  0.00  0.00     0.014 A 
ATOM     22  C   UNL d   1      30.625 -16.143  -4.611  0.00  0.00     0.038 A 
ATOM     23  C   UNL d   1      30.780 -18.953  -4.225  0.00  0.00     0.001 A 
ATOM     24  C   UNL d   1      30.573 -18.375  -5.543  0.00  0.00     0.002 A 
ATOM     25  C   UNL d   1      30.494 -17.047  -5.778  0.00  0.00     0.030 A 
ATOM     26  N   UNL d   1      30.622 -14.867  -4.512  0.00  0.00    -0.385 N 
ATOM     27  C   UNL d   1      30.874 -14.458  -3.085  0.00  0.00     0.155 A 
ATOM     28  H   UNL d   1      30.463 -14.254  -5.312  0.00  0.00     0.160 HD
ENDBRANCH  18  19
ENDBRANCH  17  18
ENDBRANCH   6  17
BRANCH   4  29
ATOM     29  C   UNL d   1      26.766 -14.312  -2.894  0.00  0.00     0.036 A 
ATOM     30  C   UNL d   1      25.567 -13.594  -2.794  0.00  0.00     0.017 A 
ATOM     31  C   UNL d   1      25.119 -12.870  -3.895  0.00  0.00     0.003 A 
ATOM     32  C   UNL d   1      25.927 -12.779  -5.030  0.00  0.00     0.029 A 
ATOM     33  C   UNL d   1      27.148 -13.462  -5.135  0.00  0.00     0.030 A 
ATOM     34  C   UNL d   1      27.515 -14.215  -4.038  0.00  0.00     0.046 A 
BRANCH  33  35
ATOM     35  N   UNL d   1      27.964 -13.465  -6.240  0.00  0.00    -0.390 N 
ATOM     36  C   UNL d   1      28.521 -14.693  -6.771  0.00  0.00     0.149 C 
ATOM     37  C   UNL d   1      28.365 -12.235  -6.926  0.00  0.00     0.149 C 
ENDBRANCH  33  35
ENDBRANCH   4  29
TORSDOF 7
ENDMDL
MODEL 8
REMARK VINA RESULT:    -7.711      2.732      4.637
REMARK INTER + INTRA:         -13.112
REMARK INTER:                  -9.799
REMARK INTRA:                  -3.313
REMARK CONF_INDEPENDENT:        2.088
REMARK UNBOUND:                -3.313
REMARK  7 active torsions:
REMARK  status: ('A' for Active; 'I' for Inactive)
REMARK    1  A    between atoms: O_2  and  C_3 
REMARK    2  A    between atoms: C_6  and  N_7 
REMARK       I    between atoms: N_7  and  C_8 
REMARK       I    between atoms: C_8  and  N_21 
REMARK       I    between atoms: N_9  and  C_10 
REMARK    3  A    between atoms: C_10  and  C_12 
REMARK    4  A    between atoms: C_16  and  N_17 
REMARK    5  A    between atoms: N_21  and  C_22 
REMARK    6  A    between atoms: C_22  and  C_23 
REMARK    7  A    between atoms: C_23  and  C_24 
ROOT
ATOM      1  N   UNL d   1      27.854 -16.309   0.956  0.00  0.00    -0.190 N 
ATOM      2  C   UNL d   1      28.831 -15.582   0.239  0.00  0.00     0.704 C 
ATOM      3  N   UNL d   1      28.857 -15.186  -1.004  0.00  0.00    -0.023 NA
ATOM      4  C   UNL d   1      28.176 -15.953  -1.912  0.00  0.00     0.294 C 
ATOM      5  O   UNL d   1      28.267 -17.161  -1.951  0.00  0.00    -0.265 OA
ATOM      6  N   UNL d   1      29.976 -15.207   0.960  0.00  0.00    -0.224 N 
ATOM      7  H   UNL d   1      28.154 -16.753   1.813  0.00  0.00     0.184 HD
ATOM      8  H   UNL d   1      30.208 -15.695   1.819  0.00  0.00     0.177 HD
ENDROOT
BRANCH   1   9
ATOM      9  C   UNL d   1      26.582 -16.805   0.504  0.00  0.00     0.049 C 
ATOM     10  C   UNL d   1      26.136 -18.118   0.615  0.00  0.00     0.033 C 
ATOM     11  C   UNL d   1      24.998 -18.575  -0.125  0.00  0.00     0.039 C 
ATOM     12  C   UNL d   1      24.355 -17.765  -1.062  0.00  0.00     0.068 C 
ATOM     13  C   UNL d   1      24.755 -16.462  -1.108  0.00  0.00     0.039 C 
ATOM     14  C   UNL d   1      25.657 -16.000  -0.133  0.00  0.00     0.033 C 
BRANCH  12  15
ATOM     15  O   UNL d   1      23.239 -18.219  -1.703  0.00  0.00    -0.356 OA
ATOM     16  C   UNL d   1      22.253 -18.878  -0.903  0.00  0.00     0.210 C 
ENDBRANCH  12  15
ENDBRANCH   1   9
BRANCH   6  17
ATOM     17  C   UNL d   1      31.106 -14.572   0.229  0.00  0.00     0.142 C 
BRANCH  17  18
ATOM     18  C   UNL d   1      30.895 -13.104  -0.114  0.00  0.00     0.057 C 
BRANCH  18  19
ATOM     19  C   UNL d   1      30.576 -12.742  -1.549  0.00  0.00    -0.048 A 
ATOM     20  C   UNL d   1      29.344 -12.342  -1.870  0.00  0.00    -0.006 A 
ATOM     21  C   UNL d   1      28.196 -12.171  -1.055  0.00  0.00     0.014 A 
ATOM     22  C   UNL d   1      29.313 -12.137  -3.322  0.00  0.00     0.038 A 
ATOM     23  C   UNL d   1      27.030 -11.904  -1.647  0.00  0.00     0.001 A 
ATOM     24  C   UNL d   1      26.953 -11.662  -3.078  0.00  0.00     0.002 A 
ATOM     25  C   UNL d   1      28.008 -11.761  -3.917  0.00  0.00     0.030 A 
ATOM     26  N   UNL d   1      30.466 -12.335  -3.843  0.00  0.00    -0.385 N 
ATOM     27  C   UNL d   1      31.441 -12.780  -2.785  0.00  0.00     0.155 A 
ATOM     28  H   UNL d   1      30.651 -12.195  -4.836  0.00  0.00     0.160 HD
ENDBRANCH  18  19
ENDBRANCH  17  18
ENDBRANCH   6  17
BRANCH   4  29
ATOM     29  C   UNL d   1      27.605 -15.271  -3.114  0.00  0.00     0.036 A 
ATOM     30  C   UNL d   1      26.289 -14.969  -3.488  0.00  0.00     0.017 A 
ATOM     31  C   UNL d   1      25.993 -14.787  -4.836  0.00  0.00     0.003 A 
ATOM     32  C   UNL d   1      27.030 -14.793  -5.771  0.00  0.00     0.029 A 
ATOM     33  C   UNL d   1      28.360 -15.058  -5.411  0.00  0.00     0.030 A 
ATOM     34  C   UNL d   1      28.587 -15.294  -4.070  0.00  0.00     0.046 A 
BRANCH  33  35
ATOM     35  N   UNL d   1      29.419 -15.138  -6.283  0.00  0.00    -0.390 N 
ATOM     36  C   UNL d   1      30.322 -16.271  -6.282  0.00  0.00     0.149 C 
ATOM     37  C   UNL d   1      29.735 -14.071  -7.236  0.00  0.00     0.149 C 
ENDBRANCH  33  35
ENDBRANCH   4  29
TORSDOF 7
ENDMDL
MODEL 9
REMARK VINA RESULT:    -7.487      2.422      4.064
REMARK INTER + INTRA:         -13.104
REMARK INTER:                  -9.575
REMARK INTRA:                  -3.529
REMARK CONF_INDEPENDENT:        2.088
REMARK UNBOUND:                -3.529
REMARK  7 active torsions:
REMARK  status: ('A' for Active; 'I' for Inactive)
REMARK    1  A    between atoms: O_2  and  C_3 
REMARK    2  A    between atoms: C_6  and  N_7 
REMARK       I    between atoms: N_7  and  C_8 
REMARK       I    between atoms: C_8  and  N_21 
REMARK       I    between atoms: N_9  and  C_10 
REMARK    3  A    between atoms: C_10  and  C_12 
REMARK    4  A    between atoms: C_16  and  N_17 
REMARK    5  A    between atoms: N_21  and  C_22 
REMARK    6  A    between atoms: C_22  and  C_23 
REMARK    7  A    between atoms: C_23  and  C_24 
ROOT
ATOM      1  N   UNL d   1      27.897 -16.098   0.825  0.00  0.00    -0.190 N 
ATOM      2  C   UNL d   1      29.106 -15.621   0.270  0.00  0.00     0.704 C 
ATOM      3  N   UNL d   1      29.489 -15.512  -0.973  0.00  0.00    -0.023 NA
ATOM      4  C   UNL d   1      28.959 -16.407  -1.865  0.00  0.00     0.294 C 
ATOM      5  O   UNL d   1      28.900 -17.597  -1.644  0.00  0.00    -0.265 OA
ATOM      6  N   UNL d   1      30.077 -15.184   1.185  0.00  0.00    -0.224 N 
ATOM      7  H   UNL d   1      27.917 -16.364   1.800  0.00  0.00     0.184 HD
ATOM      8  H   UNL d   1      30.025 -15.486   2.152  0.00  0.00     0.177 HD
ENDROOT
BRANCH   1   9
ATOM      9  C   UNL d   1      26.723 -16.585   0.153  0.00  0.00     0.049 C 
ATOM     10  C   UNL d   1      25.889 -15.836  -0.671  0.00  0.00     0.033 C 
ATOM     11  C   UNL d   1      24.594 -16.320  -1.048  0.00  0.00     0.039 C 
ATOM     12  C   UNL d   1      24.071 -17.503  -0.525  0.00  0.00     0.068 C 
ATOM     13  C   UNL d   1      24.923 -18.262   0.222  0.00  0.00     0.039 C 
ATOM     14  C   UNL d   1      26.276 -17.886   0.289  0.00  0.00     0.033 C 
BRANCH  12  15
ATOM     15  O   UNL d   1      22.858 -17.959  -0.953  0.00  0.00    -0.356 OA
ATOM     16  C   UNL d   1      22.215 -18.951  -0.146  0.00  0.00     0.210 C 
ENDBRANCH  12  15
ENDBRANCH   1   9
BRANCH   6  17
ATOM     17  C   UNL d   1      31.424 -14.810   0.676  0.00  0.00     0.142 C 
BRANCH  17  18
ATOM     18  C   UNL d   1      31.583 -13.339   0.320  0.00  0.00     0.057 C 
BRANCH  18  19
ATOM     19  C   UNL d   1      30.938 -12.836  -0.953  0.00  0.00    -0.048 A 
ATOM     20  C   UNL d   1      29.653 -12.475  -0.943  0.00  0.00    -0.006 A 
ATOM     21  C   UNL d   1      28.713 -12.467   0.119  0.00  0.00     0.014 A 
ATOM     22  C   UNL d   1      29.288 -12.108  -2.316  0.00  0.00     0.038 A 
ATOM     23  C   UNL d   1      27.436 -12.203  -0.164  0.00  0.00     0.001 A 
ATOM     24  C   UNL d   1      27.030 -11.805  -1.501  0.00  0.00     0.002 A 
ATOM     25  C   UNL d   1      27.871 -11.745  -2.557  0.00  0.00     0.030 A 
ATOM     26  N   UNL d   1      30.299 -12.177  -3.097  0.00  0.00    -0.385 N 
ATOM     27  C   UNL d   1      31.502 -12.681  -2.344  0.00  0.00     0.155 A 
ATOM     28  H   UNL d   1      30.252 -11.913  -4.082  0.00  0.00     0.160 HD
ENDBRANCH  18  19
ENDBRANCH  17  18
ENDBRANCH   6  17
BRANCH   4  29
ATOM     29  C   UNL d   1      28.795 -15.966  -3.284  0.00  0.00     0.036 A 
ATOM     30  C   UNL d   1      29.701 -15.869  -4.349  0.00  0.00     0.017 A 
ATOM     31  C   UNL d   1      29.427 -14.990  -5.392  0.00  0.00     0.003 A 
ATOM     32  C   UNL d   1      28.207 -14.312  -5.413  0.00  0.00     0.029 A 
ATOM     33  C   UNL d   1      27.272 -14.422  -4.373  0.00  0.00     0.030 A 
ATOM     34  C   UNL d   1      27.621 -15.261  -3.333  0.00  0.00     0.046 A 
BRANCH  33  35
ATOM     35  N   UNL d   1      26.080 -13.742  -4.300  0.00  0.00    -0.390 N 
ATOM     36  C   UNL d   1      25.866 -12.503  -5.020  0.00  0.00     0.149 C 
ATOM     37  C   UNL d   1      24.968 -14.191  -3.458  0.00  0.00     0.149 C 
ENDBRANCH  33  35
ENDBRANCH   4  29
TORSDOF 7
ENDMDL
