MODEL 1
REMARK VINA RESULT:   -27.871      0.000      0.000
REMARK INTER + INTRA:         -29.398
REMARK INTER:                 -29.064
REMARK INTRA:                  -0.334
REMARK CONF_INDEPENDENT:        1.193
REMARK UNBOUND:                -0.334
REMARK  4 active torsions:
REMARK  status: ('A' for Active; 'I' for Inactive)
REMARK    1  A    between atoms: C_6  and  C_7 
REMARK       I    between atoms: C_7  and  N_9 
REMARK    2  A    between atoms: N_9  and  N_10 
REMARK       I    between atoms: N_10  and  C_11 
REMARK       I    between atoms: C_11  and  N_13 
REMARK    3  A    between atoms: C_14  and  N_13 
REMARK    4  A    between atoms: C_14  and  C_16 
ROOT
ATOM      1  N   UNL d   1      26.173 -16.700  -1.646  0.00  0.00    -0.249 N 
ATOM      2  C   UNL d   1      25.396 -15.819  -0.948  0.00  0.00     0.335 C 
ATOM      3  O   UNL d   1      25.518 -14.595  -1.064  0.00  0.00    -0.246 OA
ATOM      4  N   UNL d   1      24.406 -16.330  -0.147  0.00  0.00    -0.334 N 
ATOM      5  H   UNL d   1      26.335 -17.639  -1.334  0.00  0.00     0.192 HD
ATOM      6  H   UNL d   1      23.918 -15.593   0.349  0.00  0.00     0.165 HD
ENDROOT
BRANCH   1   7
ATOM      7  N   UNL d   1      27.148 -16.318  -2.570  0.00  0.00    -0.262 N 
ATOM      8  C   UNL d   1      26.717 -15.574  -3.672  0.00  0.00     0.270 C 
ATOM      9  O   UNL d   1      25.530 -15.269  -3.823  0.00  0.00    -0.266 OA
ATOM     10  H   UNL d   1      28.092 -16.628  -2.374  0.00  0.00     0.190 HD
BRANCH   8  11
ATOM     11  C   UNL d   1      27.732 -15.168  -4.691  0.00  0.00     0.034 A 
ATOM     12  C   UNL d   1      27.591 -13.967  -5.411  0.00  0.00     0.017 A 
ATOM     13  C   UNL d   1      28.540 -13.604  -6.376  0.00  0.00     0.002 A 
ATOM     14  C   UNL d   1      29.637 -14.429  -6.625  0.00  0.00     0.007 A 
ATOM     15  C   UNL d   1      29.792 -15.619  -5.912  0.00  0.00    -0.061 A 
ATOM     16  C   UNL d   1      30.963 -16.527  -6.133  0.00  0.00     0.048 C 
ATOM     17  C   UNL d   1      28.838 -15.979  -4.955  0.00  0.00     0.024 A 
ENDBRANCH   8  11
ENDBRANCH   1   7
BRANCH   4  18
ATOM     18  C   UNL d   1      24.034 -17.714   0.222  0.00  0.00     0.115 C 
ATOM     19  C   UNL d   1      24.933 -18.766  -0.430  0.00  0.00     0.037 C 
BRANCH  18  20
ATOM     20  C   UNL d   1      22.569 -18.040  -0.127  0.00  0.00    -0.033 A 
ATOM     21  C   UNL d   1      21.957 -19.247   0.230  0.00  0.00     0.028 A 
ATOM     22  C   UNL d   1      20.640 -19.474  -0.176  0.00  0.00     0.116 A 
ATOM     23  N   UNL d   1      19.904 -18.619  -0.921  0.00  0.00    -0.273 NA
ATOM     24  C   UNL d   1      20.503 -17.472  -1.271  0.00  0.00     0.116 A 
ATOM     25  C   UNL d   1      21.791 -17.148  -0.893  0.00  0.00     0.028 A 
ENDBRANCH  18  20
ENDBRANCH   4  18
TORSDOF 4
ENDMDL
MODEL 2
REMARK VINA RESULT:   -27.834      2.879      3.324
REMARK INTER + INTRA:         -29.706
REMARK INTER:                 -29.027
REMARK INTRA:                  -0.679
REMARK CONF_INDEPENDENT:        1.193
REMARK UNBOUND:                -0.679
REMARK  4 active torsions:
REMARK  status: ('A' for Active; 'I' for Inactive)
REMARK    1  A    between atoms: C_6  and  C_7 
REMARK       I    between atoms: C_7  and  N_9 
REMARK    2  A    between atoms: N_9  and  N_10 
REMARK       I    between atoms: N_10  and  C_11 
REMARK       I    between atoms: C_11  and  N_13 
REMARK    3  A    between atoms: C_14  and  N_13 
REMARK    4  A    between atoms: C_14  and  C_16 
ROOT
ATOM      1  N   UNL d   1      25.190 -15.063  -1.739  0.00  0.00    -0.249 N 
ATOM      2  C   UNL d   1      25.119 -16.215  -2.469  0.00  0.00     0.335 C 
ATOM      3  O   UNL d   1      25.534 -16.288  -3.630  0.00  0.00    -0.246 OA
ATOM      4  N   UNL d   1      24.627 -17.338  -1.852  0.00  0.00    -0.334 N 
ATOM      5  H   UNL d   1      24.580 -14.877  -0.965  0.00  0.00     0.192 HD
ATOM      6  H   UNL d   1      24.586 -18.121  -2.494  0.00  0.00     0.165 HD
ENDROOT
BRANCH   1   7
ATOM      7  N   UNL d   1      25.757 -13.875  -2.207  0.00  0.00    -0.262 N 
ATOM      8  C   UNL d   1      25.271 -13.380  -3.420  0.00  0.00     0.270 C 
ATOM      9  O   UNL d   1      24.382 -13.963  -4.049  0.00  0.00    -0.266 OA
ATOM     10  H   UNL d   1      26.492 -13.476  -1.635  0.00  0.00     0.190 HD
BRANCH   8  11
ATOM     11  C   UNL d   1      25.871 -12.122  -3.961  0.00  0.00     0.034 A 
ATOM     12  C   UNL d   1      26.448 -11.170  -3.101  0.00  0.00     0.017 A 
ATOM     13  C   UNL d   1      26.994  -9.987  -3.617  0.00  0.00     0.002 A 
ATOM     14  C   UNL d   1      26.974  -9.747  -4.991  0.00  0.00     0.007 A 
ATOM     15  C   UNL d   1      26.410 -10.687  -5.856  0.00  0.00    -0.061 A 
ATOM     16  C   UNL d   1      26.383 -10.481  -7.339  0.00  0.00     0.048 C 
ATOM     17  C   UNL d   1      25.862 -11.863  -5.333  0.00  0.00     0.024 A 
ENDBRANCH   8  11
ENDBRANCH   1   7
BRANCH   4  18
ATOM     18  C   UNL d   1      24.034 -17.565  -0.515  0.00  0.00     0.115 C 
ATOM     19  C   UNL d   1      24.842 -18.547   0.335  0.00  0.00     0.037 C 
BRANCH  18  20
ATOM     20  C   UNL d   1      22.581 -18.069  -0.596  0.00  0.00    -0.033 A 
ATOM     21  C   UNL d   1      22.206 -19.362  -0.218  0.00  0.00     0.028 A 
ATOM     22  C   UNL d   1      20.873 -19.745  -0.375  0.00  0.00     0.116 A 
ATOM     23  N   UNL d   1      19.902 -18.962  -0.898  0.00  0.00    -0.273 NA
ATOM     24  C   UNL d   1      20.272 -17.730  -1.270  0.00  0.00     0.116 A 
ATOM     25  C   UNL d   1      21.560 -17.253  -1.127  0.00  0.00     0.028 A 
ENDBRANCH  18  20
ENDBRANCH   4  18
TORSDOF 4
ENDMDL
MODEL 3
REMARK VINA RESULT:   -26.890      3.763      4.313
REMARK INTER + INTRA:         -29.615
REMARK INTER:                 -28.083
REMARK INTRA:                  -1.532
REMARK CONF_INDEPENDENT:        1.193
REMARK UNBOUND:                -1.532
REMARK  4 active torsions:
REMARK  status: ('A' for Active; 'I' for Inactive)
REMARK    1  A    between atoms: C_6  and  C_7 
REMARK       I    between atoms: C_7  and  N_9 
REMARK    2  A    between atoms: N_9  and  N_10 
REMARK       I    between atoms: N_10  and  C_11 
REMARK       I    between atoms: C_11  and  N_13 
REMARK    3  A    between atoms: C_14  and  N_13 
REMARK    4  A    between atoms: C_14  and  C_16 
ROOT
ATOM      1  N   UNL d   1      27.070 -17.755  -0.348  0.00  0.00    -0.249 N 
ATOM      2  C   UNL d   1      26.198 -18.212   0.599  0.00  0.00     0.335 C 
ATOM      3  O   UNL d   1      26.570 -18.577   1.719  0.00  0.00    -0.246 OA
ATOM      4  N   UNL d   1      24.858 -18.193   0.302  0.00  0.00    -0.334 N 
ATOM      5  H   UNL d   1      26.862 -17.783  -1.329  0.00  0.00     0.192 HD
ATOM      6  H   UNL d   1      24.309 -18.585   1.058  0.00  0.00     0.165 HD
ENDROOT
BRANCH   1   7
ATOM      7  N   UNL d   1      28.446 -17.627  -0.144  0.00  0.00    -0.262 N 
ATOM      8  C   UNL d   1      29.209 -17.205  -1.237  0.00  0.00     0.270 C 
ATOM      9  O   UNL d   1      28.692 -16.958  -2.331  0.00  0.00    -0.266 OA
ATOM     10  H   UNL d   1      28.783 -17.868   0.780  0.00  0.00     0.190 HD
BRANCH   8  11
ATOM     11  C   UNL d   1      30.687 -17.078  -1.060  0.00  0.00     0.034 A 
ATOM     12  C   UNL d   1      31.568 -17.362  -2.119  0.00  0.00     0.017 A 
ATOM     13  C   UNL d   1      32.954 -17.255  -1.937  0.00  0.00     0.002 A 
ATOM     14  C   UNL d   1      33.469 -16.860  -0.702  0.00  0.00     0.007 A 
ATOM     15  C   UNL d   1      32.605 -16.569   0.355  0.00  0.00    -0.061 A 
ATOM     16  C   UNL d   1      33.113 -16.124   1.692  0.00  0.00     0.048 C 
ATOM     17  C   UNL d   1      31.224 -16.683   0.168  0.00  0.00     0.024 A 
ENDBRANCH   8  11
ENDBRANCH   1   7
BRANCH   4  18
ATOM     18  C   UNL d   1      24.113 -17.854  -0.931  0.00  0.00     0.115 C 
ATOM     19  C   UNL d   1      24.161 -16.361  -1.264  0.00  0.00     0.037 C 
BRANCH  18  20
ATOM     20  C   UNL d   1      22.638 -18.292  -0.865  0.00  0.00    -0.033 A 
ATOM     21  C   UNL d   1      22.248 -19.581  -0.486  0.00  0.00     0.028 A 
ATOM     22  C   UNL d   1      20.888 -19.901  -0.506  0.00  0.00     0.116 A 
ATOM     23  N   UNL d   1      19.903 -19.060  -0.895  0.00  0.00    -0.273 NA
ATOM     24  C   UNL d   1      20.287 -17.832  -1.270  0.00  0.00     0.116 A 
ATOM     25  C   UNL d   1      21.603 -17.416  -1.256  0.00  0.00     0.028 A 
ENDBRANCH  18  20
ENDBRANCH   4  18
TORSDOF 4
ENDMDL
MODEL 4
REMARK VINA RESULT:   -26.766      4.347      5.689
REMARK INTER + INTRA:         -29.210
REMARK INTER:                 -27.959
REMARK INTRA:                  -1.251
REMARK CONF_INDEPENDENT:        1.193
REMARK UNBOUND:                -1.251
REMARK  4 active torsions:
REMARK  status: ('A' for Active; 'I' for Inactive)
REMARK    1  A    between atoms: C_6  and  C_7 
REMARK       I    between atoms: C_7  and  N_9 
REMARK    2  A    between atoms: N_9  and  N_10 
REMARK       I    between atoms: N_10  and  C_11 
REMARK       I    between atoms: C_11  and  N_13 
REMARK    3  A    between atoms: C_14  and  N_13 
REMARK    4  A    between atoms: C_14  and  C_16 
ROOT
ATOM      1  N   UNL d   1      26.523 -16.808   0.513  0.00  0.00    -0.249 N 
ATOM      2  C   UNL d   1      26.106 -18.104   0.625  0.00  0.00     0.335 C 
ATOM      3  O   UNL d   1      26.689 -18.926   1.339  0.00  0.00    -0.246 OA
ATOM      4  N   UNL d   1      24.958 -18.469  -0.033  0.00  0.00    -0.334 N 
ATOM      5  H   UNL d   1      26.302 -16.238  -0.282  0.00  0.00     0.192 HD
ATOM      6  H   UNL d   1      24.763 -19.455   0.089  0.00  0.00     0.165 HD
ENDROOT
BRANCH   1   7
ATOM      7  N   UNL d   1      27.614 -16.277   1.205  0.00  0.00    -0.262 N 
ATOM      8  C   UNL d   1      27.756 -14.886   1.189  0.00  0.00     0.270 C 
ATOM      9  O   UNL d   1      26.954 -14.161   0.592  0.00  0.00    -0.266 OA
ATOM     10  H   UNL d   1      28.229 -16.948   1.650  0.00  0.00     0.190 HD
BRANCH   8  11
ATOM     11  C   UNL d   1      28.925 -14.287   1.901  0.00  0.00     0.034 A 
ATOM     12  C   UNL d   1      30.172 -14.160   1.261  0.00  0.00     0.017 A 
ATOM     13  C   UNL d   1      31.266 -13.611   1.944  0.00  0.00     0.002 A 
ATOM     14  C   UNL d   1      31.124 -13.181   3.263  0.00  0.00     0.007 A 
ATOM     15  C   UNL d   1      29.891 -13.295   3.906  0.00  0.00    -0.061 A 
ATOM     16  C   UNL d   1      29.688 -12.829   5.316  0.00  0.00     0.048 C 
ATOM     17  C   UNL d   1      28.804 -13.849   3.221  0.00  0.00     0.024 A 
ENDBRANCH   8  11
ENDBRANCH   1   7
BRANCH   4  18
ATOM     18  C   UNL d   1      24.071 -17.745  -0.971  0.00  0.00     0.115 C 
ATOM     19  C   UNL d   1      24.090 -16.230  -0.759  0.00  0.00     0.037 C 
BRANCH  18  20
ATOM     20  C   UNL d   1      22.611 -18.231  -0.891  0.00  0.00    -0.033 A 
ATOM     21  C   UNL d   1      22.267 -19.533  -0.512  0.00  0.00     0.028 A 
ATOM     22  C   UNL d   1      20.918 -19.896  -0.519  0.00  0.00     0.116 A 
ATOM     23  N   UNL d   1      19.903 -19.086  -0.895  0.00  0.00    -0.273 NA
ATOM     24  C   UNL d   1      20.243 -17.845  -1.270  0.00  0.00     0.116 A 
ATOM     25  C   UNL d   1      21.545 -17.388  -1.268  0.00  0.00     0.028 A 
ENDBRANCH  18  20
ENDBRANCH   4  18
TORSDOF 4
ENDMDL
MODEL 5
REMARK VINA RESULT:   -26.155      2.381      2.856
REMARK INTER + INTRA:         -28.754
REMARK INTER:                 -27.348
REMARK INTRA:                  -1.406
REMARK CONF_INDEPENDENT:        1.193
REMARK UNBOUND:                -1.406
REMARK  4 active torsions:
REMARK  status: ('A' for Active; 'I' for Inactive)
REMARK    1  A    between atoms: C_6  and  C_7 
REMARK       I    between atoms: C_7  and  N_9 
REMARK    2  A    between atoms: N_9  and  N_10 
REMARK       I    between atoms: N_10  and  C_11 
REMARK       I    between atoms: C_11  and  N_13 
REMARK    3  A    between atoms: C_14  and  N_13 
REMARK    4  A    between atoms: C_14  and  C_16 
ROOT
ATOM      1  N   UNL d   1      26.523 -16.681  -1.436  0.00  0.00    -0.249 N 
ATOM      2  C   UNL d   1      25.394 -15.953  -1.684  0.00  0.00     0.335 C 
ATOM      3  O   UNL d   1      25.390 -14.980  -2.445  0.00  0.00    -0.246 OA
ATOM      4  N   UNL d   1      24.219 -16.373  -1.113  0.00  0.00    -0.334 N 
ATOM      5  H   UNL d   1      26.639 -17.227  -0.602  0.00  0.00     0.192 HD
ATOM      6  H   UNL d   1      23.458 -15.743  -1.335  0.00  0.00     0.165 HD
ENDROOT
BRANCH   1   7
ATOM      7  N   UNL d   1      27.762 -16.426  -2.027  0.00  0.00    -0.262 N 
ATOM      8  C   UNL d   1      28.877 -17.039  -1.447  0.00  0.00     0.270 C 
ATOM      9  O   UNL d   1      28.772 -17.771  -0.458  0.00  0.00    -0.266 OA
ATOM     10  H   UNL d   1      27.755 -15.800  -2.823  0.00  0.00     0.190 HD
BRANCH   8  11
ATOM     11  C   UNL d   1      30.221 -16.770  -2.042  0.00  0.00     0.034 A 
ATOM     12  C   UNL d   1      31.106 -15.856  -1.441  0.00  0.00     0.017 A 
ATOM     13  C   UNL d   1      32.358 -15.599  -2.017  0.00  0.00     0.002 A 
ATOM     14  C   UNL d   1      32.737 -16.253  -3.189  0.00  0.00     0.007 A 
ATOM     15  C   UNL d   1      31.871 -17.167  -3.791  0.00  0.00    -0.061 A 
ATOM     16  C   UNL d   1      32.243 -17.906  -5.039  0.00  0.00     0.048 C 
ATOM     17  C   UNL d   1      30.621 -17.415  -3.214  0.00  0.00     0.024 A 
ENDBRANCH   8  11
ENDBRANCH   1   7
BRANCH   4  18
ATOM     18  C   UNL d   1      23.906 -17.455  -0.152  0.00  0.00     0.115 C 
ATOM     19  C   UNL d   1      24.913 -18.605  -0.202  0.00  0.00     0.037 C 
BRANCH  18  20
ATOM     20  C   UNL d   1      22.493 -18.033  -0.359  0.00  0.00    -0.033 A 
ATOM     21  C   UNL d   1      22.144 -19.333   0.022  0.00  0.00     0.028 A 
ATOM     22  C   UNL d   1      20.852 -19.786  -0.254  0.00  0.00     0.116 A 
ATOM     23  N   UNL d   1      19.903 -19.068  -0.895  0.00  0.00    -0.273 NA
ATOM     24  C   UNL d   1      20.250 -17.829  -1.270  0.00  0.00     0.116 A 
ATOM     25  C   UNL d   1      21.493 -17.285  -1.015  0.00  0.00     0.028 A 
ENDBRANCH  18  20
ENDBRANCH   4  18
TORSDOF 4
ENDMDL
MODEL 6
REMARK VINA RESULT:   -26.077      3.841      4.960
REMARK INTER + INTRA:         -28.800
REMARK INTER:                 -27.270
REMARK INTRA:                  -1.530
REMARK CONF_INDEPENDENT:        1.193
REMARK UNBOUND:                -1.530
REMARK  4 active torsions:
REMARK  status: ('A' for Active; 'I' for Inactive)
REMARK    1  A    between atoms: C_6  and  C_7 
REMARK       I    between atoms: C_7  and  N_9 
REMARK    2  A    between atoms: N_9  and  N_10 
REMARK       I    between atoms: N_10  and  C_11 
REMARK       I    between atoms: C_11  and  N_13 
REMARK    3  A    between atoms: C_14  and  N_13 
REMARK    4  A    between atoms: C_14  and  C_16 
ROOT
ATOM      1  N   UNL d   1      25.842 -15.160  -0.583  0.00  0.00    -0.249 N 
ATOM      2  C   UNL d   1      25.302 -15.762  -1.684  0.00  0.00     0.335 C 
ATOM      3  O   UNL d   1      25.561 -15.392  -2.833  0.00  0.00    -0.246 OA
ATOM      4  N   UNL d   1      24.499 -16.858  -1.488  0.00  0.00    -0.334 N 
ATOM      5  H   UNL d   1      25.407 -15.201   0.321  0.00  0.00     0.192 HD
ATOM      6  H   UNL d   1      24.126 -17.201  -2.366  0.00  0.00     0.165 HD
ENDROOT
BRANCH   1   7
ATOM      7  N   UNL d   1      26.751 -14.102  -0.639  0.00  0.00    -0.262 N 
ATOM      8  C   UNL d   1      26.875 -13.314   0.509  0.00  0.00     0.270 C 
ATOM      9  O   UNL d   1      26.212 -13.542   1.526  0.00  0.00    -0.266 OA
ATOM     10  H   UNL d   1      27.237 -13.979  -1.519  0.00  0.00     0.190 HD
BRANCH   8  11
ATOM     11  C   UNL d   1      27.823 -12.159   0.475  0.00  0.00     0.034 A 
ATOM     12  C   UNL d   1      29.043 -12.248  -0.221  0.00  0.00     0.017 A 
ATOM     13  C   UNL d   1      29.932 -11.165  -0.232  0.00  0.00     0.002 A 
ATOM     14  C   UNL d   1      29.610  -9.987   0.441  0.00  0.00     0.007 A 
ATOM     15  C   UNL d   1      28.400  -9.884   1.129  0.00  0.00    -0.061 A 
ATOM     16  C   UNL d   1      28.005  -8.633   1.852  0.00  0.00     0.048 C 
ATOM     17  C   UNL d   1      27.520 -10.971   1.142  0.00  0.00     0.024 A 
ENDBRANCH   8  11
ENDBRANCH   1   7
BRANCH   4  18
ATOM     18  C   UNL d   1      23.983 -17.513  -0.266  0.00  0.00     0.115 C 
ATOM     19  C   UNL d   1      24.866 -18.669   0.208  0.00  0.00     0.037 C 
BRANCH  18  20
ATOM     20  C   UNL d   1      22.545 -18.038  -0.443  0.00  0.00    -0.033 A 
ATOM     21  C   UNL d   1      22.165 -19.338  -0.093  0.00  0.00     0.028 A 
ATOM     22  C   UNL d   1      20.851 -19.739  -0.339  0.00  0.00     0.116 A 
ATOM     23  N   UNL d   1      19.905 -18.969  -0.923  0.00  0.00    -0.273 NA
ATOM     24  C   UNL d   1      20.281 -17.730  -1.268  0.00  0.00     0.116 A 
ATOM     25  C   UNL d   1      21.550 -17.236  -1.039  0.00  0.00     0.028 A 
ENDBRANCH  18  20
ENDBRANCH   4  18
TORSDOF 4
ENDMDL
MODEL 7
REMARK VINA RESULT:   -25.782      3.807      4.252
REMARK INTER + INTRA:         -28.533
REMARK INTER:                 -26.975
REMARK INTRA:                  -1.557
REMARK CONF_INDEPENDENT:        1.193
REMARK UNBOUND:                -1.557
REMARK  4 active torsions:
REMARK  status: ('A' for Active; 'I' for Inactive)
REMARK    1  A    between atoms: C_6  and  C_7 
REMARK       I    between atoms: C_7  and  N_9 
REMARK    2  A    between atoms: N_9  and  N_10 
REMARK       I    between atoms: N_10  and  C_11 
REMARK       I    between atoms: C_11  and  N_13 
REMARK    3  A    between atoms: C_14  and  N_13 
REMARK    4  A    between atoms: C_14  and  C_16 
ROOT
ATOM      1  N   UNL d   1      26.408 -15.864  -0.659  0.00  0.00    -0.249 N 
ATOM      2  C   UNL d   1      25.483 -15.966  -1.659  0.00  0.00     0.335 C 
ATOM      3  O   UNL d   1      25.600 -15.362  -2.731  0.00  0.00    -0.246 OA
ATOM      4  N   UNL d   1      24.430 -16.826  -1.475  0.00  0.00    -0.334 N 
ATOM      5  H   UNL d   1      26.184 -16.047   0.302  0.00  0.00     0.192 HD
ATOM      6  H   UNL d   1      23.790 -16.796  -2.261  0.00  0.00     0.165 HD
ENDROOT
BRANCH   1   7
ATOM      7  N   UNL d   1      27.577 -15.105  -0.751  0.00  0.00    -0.262 N 
ATOM      8  C   UNL d   1      28.261 -14.852   0.442  0.00  0.00     0.270 C 
ATOM      9  O   UNL d   1      27.852 -15.279   1.526  0.00  0.00    -0.266 OA
ATOM     10  H   UNL d   1      27.826 -14.782  -1.678  0.00  0.00     0.190 HD
BRANCH   8  11
ATOM     11  C   UNL d   1      29.504 -14.024   0.381  0.00  0.00     0.034 A 
ATOM     12  C   UNL d   1      29.544 -12.837  -0.373  0.00  0.00     0.017 A 
ATOM     13  C   UNL d   1      30.720 -12.077  -0.436  0.00  0.00     0.002 A 
ATOM     14  C   UNL d   1      31.859 -12.490   0.255  0.00  0.00     0.007 A 
ATOM     15  C   UNL d   1      31.829 -13.662   1.013  0.00  0.00    -0.061 A 
ATOM     16  C   UNL d   1      33.022 -14.134   1.787  0.00  0.00     0.048 C 
ATOM     17  C   UNL d   1      30.654 -14.419   1.067  0.00  0.00     0.024 A 
ENDBRANCH   8  11
ENDBRANCH   1   7
BRANCH   4  18
ATOM     18  C   UNL d   1      24.000 -17.648  -0.322  0.00  0.00     0.115 C 
ATOM     19  C   UNL d   1      24.920 -18.844  -0.067  0.00  0.00     0.037 C 
BRANCH  18  20
ATOM     20  C   UNL d   1      22.557 -18.165  -0.474  0.00  0.00    -0.033 A 
ATOM     21  C   UNL d   1      22.175 -19.460  -0.110  0.00  0.00     0.028 A 
ATOM     22  C   UNL d   1      20.854 -19.855  -0.334  0.00  0.00     0.116 A 
ATOM     23  N   UNL d   1      19.905 -19.083  -0.910  0.00  0.00    -0.273 NA
ATOM     24  C   UNL d   1      20.283 -17.849  -1.269  0.00  0.00     0.116 A 
ATOM     25  C   UNL d   1      21.558 -17.361  -1.061  0.00  0.00     0.028 A 
ENDBRANCH  18  20
ENDBRANCH   4  18
TORSDOF 4
ENDMDL
MODEL 8
REMARK VINA RESULT:   -25.010      3.027      4.036
REMARK INTER + INTRA:         -27.084
REMARK INTER:                 -26.203
REMARK INTRA:                  -0.882
REMARK CONF_INDEPENDENT:        1.193
REMARK UNBOUND:                -0.882
REMARK  4 active torsions:
REMARK  status: ('A' for Active; 'I' for Inactive)
REMARK    1  A    between atoms: C_6  and  C_7 
REMARK       I    between atoms: C_7  and  N_9 
REMARK    2  A    between atoms: N_9  and  N_10 
REMARK       I    between atoms: N_10  and  C_11 
REMARK       I    between atoms: C_11  and  N_13 
REMARK    3  A    between atoms: C_14  and  N_13 
REMARK    4  A    between atoms: C_14  and  C_16 
ROOT
ATOM      1  N   UNL d   1      24.948 -15.066  -2.097  0.00  0.00    -0.249 N 
ATOM      2  C   UNL d   1      25.006 -16.268  -2.744  0.00  0.00     0.335 C 
ATOM      3  O   UNL d   1      25.480 -16.385  -3.879  0.00  0.00    -0.246 OA
ATOM      4  N   UNL d   1      24.581 -17.383  -2.068  0.00  0.00    -0.334 N 
ATOM      5  H   UNL d   1      24.289 -14.881  -1.364  0.00  0.00     0.192 HD
ATOM      6  H   UNL d   1      24.635 -18.210  -2.652  0.00  0.00     0.165 HD
ENDROOT
BRANCH   1   7
ATOM      7  N   UNL d   1      25.436 -13.870  -2.628  0.00  0.00    -0.262 N 
ATOM      8  C   UNL d   1      26.387 -13.183  -1.867  0.00  0.00     0.270 C 
ATOM      9  O   UNL d   1      26.777 -13.613  -0.777  0.00  0.00    -0.266 OA
ATOM     10  H   UNL d   1      25.046 -13.586  -3.519  0.00  0.00     0.190 HD
BRANCH   8  11
ATOM     11  C   UNL d   1      26.914 -11.888  -2.396  0.00  0.00     0.034 A 
ATOM     12  C   UNL d   1      27.297 -11.762  -3.744  0.00  0.00     0.017 A 
ATOM     13  C   UNL d   1      27.805 -10.548  -4.225  0.00  0.00     0.002 A 
ATOM     14  C   UNL d   1      27.929  -9.452  -3.371  0.00  0.00     0.007 A 
ATOM     15  C   UNL d   1      27.546  -9.563  -2.033  0.00  0.00    -0.061 A 
ATOM     16  C   UNL d   1      27.644  -8.408  -1.084  0.00  0.00     0.048 C 
ATOM     17  C   UNL d   1      27.045 -10.780  -1.557  0.00  0.00     0.024 A 
ENDBRANCH   8  11
ENDBRANCH   1   7
BRANCH   4  18
ATOM     18  C   UNL d   1      23.947 -17.567  -0.743  0.00  0.00     0.115 C 
ATOM     19  C   UNL d   1      24.741 -18.502   0.172  0.00  0.00     0.037 C 
BRANCH  18  20
ATOM     20  C   UNL d   1      22.506 -18.099  -0.851  0.00  0.00    -0.033 A 
ATOM     21  C   UNL d   1      21.432 -17.298  -1.253  0.00  0.00     0.028 A 
ATOM     22  C   UNL d   1      20.151 -17.856  -1.270  0.00  0.00     0.116 A 
ATOM     23  N   UNL d   1      19.856 -19.122  -0.898  0.00  0.00    -0.273 NA
ATOM     24  C   UNL d   1      20.888 -19.878  -0.501  0.00  0.00     0.116 A 
ATOM     25  C   UNL d   1      22.192 -19.423  -0.478  0.00  0.00     0.028 A 
ENDBRANCH  18  20
ENDBRANCH   4  18
TORSDOF 4
ENDMDL
