MODEL 1
REMARK VINA RESULT:    -9.317      0.000      0.000
REMARK INTER + INTRA:         -12.364
REMARK INTER:                 -11.107
REMARK INTRA:                  -1.257
REMARK CONF_INDEPENDENT:        1.790
REMARK UNBOUND:                -1.257
REMARK  6 active torsions:
REMARK  status: ('A' for Active; 'I' for Inactive)
REMARK    1  A    between atoms: C_2  and  C_3 
REMARK    2  A    between atoms: C_6  and  N_7 
REMARK       I    between atoms: N_7  and  C_8 
REMARK       I    between atoms: C_8  and  N_10 
REMARK    3  A    between atoms: N_10  and  C_11 
REMARK    4  A    between atoms: C_13  and  N_14 
REMARK       I    between atoms: N_14  and  C_15 
REMARK    5  A    between atoms: C_15  and  C_17 
REMARK    6  A    between atoms: C_26  and  N_27 
ROOT
ATOM      1  C   UNL d   1      27.036 -13.061  -4.023  0.00  0.00     0.065 A 
ATOM      2  C   UNL d   1      26.286 -11.882  -3.748  0.00  0.00     0.061 A 
ATOM      3  C   UNL d   1      26.069 -10.909  -4.754  0.00  0.00     0.037 A 
ATOM      4  C   UNL d   1      26.726 -11.069  -5.968  0.00  0.00     0.032 A 
ATOM      5  C   UNL d   1      27.468 -12.204  -6.243  0.00  0.00     0.034 A 
ATOM      6  C   UNL d   1      27.628 -13.224  -5.303  0.00  0.00     0.057 A 
ENDROOT
BRANCH   1   7
ATOM      7  N   UNL d   1      27.142 -14.117  -3.044  0.00  0.00    -0.306 N 
ATOM      8  C   UNL d   1      26.073 -14.978  -2.829  0.00  0.00     0.325 C 
ATOM      9  N   UNL d   1      26.092 -15.689  -1.627  0.00  0.00    -0.309 N 
ATOM     10  O   UNL d   1      25.155 -15.073  -3.652  0.00  0.00    -0.247 OA
ATOM     11  H   UNL d   1      26.974 -15.810  -1.150  0.00  0.00     0.170 HD
ATOM     12  H   UNL d   1      28.060 -14.375  -2.723  0.00  0.00     0.170 HD
BRANCH   9  13
ATOM     13  C   UNL d   1      24.986 -16.490  -1.180  0.00  0.00     0.036 A 
ATOM     14  C   UNL d   1      25.186 -17.783  -0.683  0.00  0.00     0.030 A 
ATOM     15  C   UNL d   1      24.082 -18.605  -0.368  0.00  0.00     0.009 A 
ATOM     16  C   UNL d   1      22.772 -18.110  -0.431  0.00  0.00    -0.058 A 
ATOM     17  C   UNL d   1      22.573 -16.817  -0.895  0.00  0.00     0.009 A 
ATOM     18  C   UNL d   1      23.665 -16.026  -1.238  0.00  0.00     0.030 A 
BRANCH  16  19
ATOM     19  C   UNL d   1      21.609 -18.853   0.175  0.00  0.00     0.034 C 
ATOM     20  C   UNL d   1      20.520 -18.998  -0.883  0.00  0.00     0.010 C 
ENDBRANCH  16  19
ENDBRANCH   9  13
ENDBRANCH   1   7
BRANCH   6  21
ATOM     21  N   UNL d   1      28.287 -14.355  -5.743  0.00  0.00    -0.379 N 
ATOM     22  C   UNL d   1      28.121 -15.612  -5.020  0.00  0.00     0.123 C 
ATOM     23  C   UNL d   1      29.516 -16.163  -4.745  0.00  0.00     0.020 C 
ATOM     24  C   UNL d   1      30.334 -16.255  -6.041  0.00  0.00     0.003 C 
ATOM     25  C   UNL d   1      30.328 -14.940  -6.831  0.00  0.00     0.020 C 
ATOM     26  C   UNL d   1      28.905 -14.450  -7.049  0.00  0.00     0.123 C 
ENDBRANCH   6  21
BRANCH   3  27
ATOM     27  N   UNL d   1      25.155  -9.826  -4.573  0.00  0.00    -0.323 N 
ATOM     28  C   UNL d   1      25.328  -8.546  -5.104  0.00  0.00     0.257 C 
ATOM     29  O   UNL d   1      26.288  -8.156  -5.778  0.00  0.00    -0.267 OA
ATOM     30  H   UNL d   1      24.287 -10.026  -4.090  0.00  0.00     0.169 HD
BRANCH  28  31
ATOM     31  C   UNL d   1      24.299  -7.502  -4.895  0.00  0.00     0.054 A 
ATOM     32  C   UNL d   1      23.106  -7.649  -5.642  0.00  0.00     0.019 A 
ATOM     33  C   UNL d   1      22.199  -6.598  -5.765  0.00  0.00     0.001 A 
ATOM     34  C   UNL d   1      22.436  -5.412  -5.082  0.00  0.00     0.002 A 
ATOM     35  C   UNL d   1      23.588  -5.271  -4.304  0.00  0.00     0.025 A 
ATOM     36  C   UNL d   1      24.526  -6.309  -4.209  0.00  0.00     0.049 A 
ATOM     37 CL   UNL d   1      25.941  -6.008  -3.269  0.00  0.00    -0.083 Cl
ENDBRANCH  28  31
ENDBRANCH   3  27
TORSDOF 6
ENDMDL
MODEL 2
REMARK VINA RESULT:    -9.254      5.258      7.864
REMARK INTER + INTRA:         -12.881
REMARK INTER:                 -11.044
REMARK INTRA:                  -1.837
REMARK CONF_INDEPENDENT:        1.790
REMARK UNBOUND:                -1.837
REMARK  6 active torsions:
REMARK  status: ('A' for Active; 'I' for Inactive)
REMARK    1  A    between atoms: C_2  and  C_3 
REMARK    2  A    between atoms: C_6  and  N_7 
REMARK       I    between atoms: N_7  and  C_8 
REMARK       I    between atoms: C_8  and  N_10 
REMARK    3  A    between atoms: N_10  and  C_11 
REMARK    4  A    between atoms: C_13  and  N_14 
REMARK       I    between atoms: N_14  and  C_15 
REMARK    5  A    between atoms: C_15  and  C_17 
REMARK    6  A    between atoms: C_26  and  N_27 
ROOT
ATOM      1  C   UNL d   1      27.906 -14.949  -0.168  0.00  0.00     0.065 A 
ATOM      2  C   UNL d   1      28.402 -14.744   1.150  0.00  0.00     0.061 A 
ATOM      3  C   UNL d   1      28.806 -13.457   1.583  0.00  0.00     0.037 A 
ATOM      4  C   UNL d   1      28.838 -12.434   0.643  0.00  0.00     0.032 A 
ATOM      5  C   UNL d   1      28.369 -12.624  -0.645  0.00  0.00     0.034 A 
ATOM      6  C   UNL d   1      27.882 -13.859  -1.078  0.00  0.00     0.057 A 
ENDROOT
BRANCH   1   7
ATOM      7  N   UNL d   1      27.366 -16.227  -0.567  0.00  0.00    -0.306 N 
ATOM      8  C   UNL d   1      25.997 -16.376  -0.759  0.00  0.00     0.325 C 
ATOM      9  N   UNL d   1      25.517 -17.686  -0.744  0.00  0.00    -0.309 N 
ATOM     10  O   UNL d   1      25.263 -15.392  -0.905  0.00  0.00    -0.247 OA
ATOM     11  H   UNL d   1      26.162 -18.442  -0.926  0.00  0.00     0.170 HD
ATOM     12  H   UNL d   1      27.998 -16.911  -0.948  0.00  0.00     0.170 HD
BRANCH   9  13
ATOM     13  C   UNL d   1      24.114 -18.001  -0.762  0.00  0.00     0.036 A 
ATOM     14  C   UNL d   1      23.155 -17.011  -1.006  0.00  0.00     0.030 A 
ATOM     15  C   UNL d   1      21.780 -17.307  -0.895  0.00  0.00     0.009 A 
ATOM     16  C   UNL d   1      21.340 -18.617  -0.657  0.00  0.00    -0.058 A 
ATOM     17  C   UNL d   1      22.289 -19.607  -0.444  0.00  0.00     0.009 A 
ATOM     18  C   UNL d   1      23.644 -19.299  -0.520  0.00  0.00     0.030 A 
BRANCH  16  19
ATOM     19  C   UNL d   1      19.897 -19.015  -0.827  0.00  0.00     0.034 C 
ATOM     20  C   UNL d   1      19.433 -19.717   0.446  0.00  0.00     0.010 C 
ENDBRANCH  16  19
ENDBRANCH   9  13
ENDBRANCH   1   7
BRANCH   6  21
ATOM     21  N   UNL d   1      27.333 -13.883  -2.344  0.00  0.00    -0.379 N 
ATOM     22  C   UNL d   1      26.402 -12.832  -2.744  0.00  0.00     0.123 C 
ATOM     23  C   UNL d   1      25.166 -13.517  -3.317  0.00  0.00     0.020 C 
ATOM     24  C   UNL d   1      25.551 -14.508  -4.424  0.00  0.00     0.003 C 
ATOM     25  C   UNL d   1      26.653 -15.480  -3.981  0.00  0.00     0.020 C 
ATOM     26  C   UNL d   1      27.840 -14.722  -3.409  0.00  0.00     0.123 C 
ENDBRANCH   6  21
BRANCH   3  27
ATOM     27  N   UNL d   1      29.109 -13.180   2.952  0.00  0.00    -0.323 N 
ATOM     28  C   UNL d   1      28.199 -13.302   4.004  0.00  0.00     0.257 C 
ATOM     29  O   UNL d   1      27.014 -13.640   3.913  0.00  0.00    -0.267 OA
ATOM     30  H   UNL d   1      30.069 -12.955   3.179  0.00  0.00     0.169 HD
BRANCH  28  31
ATOM     31  C   UNL d   1      28.624 -13.033   5.397  0.00  0.00     0.054 A 
ATOM     32  C   UNL d   1      28.927 -14.170   6.184  0.00  0.00     0.019 A 
ATOM     33  C   UNL d   1      29.044 -14.075   7.569  0.00  0.00     0.001 A 
ATOM     34  C   UNL d   1      28.936 -12.832   8.179  0.00  0.00     0.002 A 
ATOM     35  C   UNL d   1      28.683 -11.695   7.406  0.00  0.00     0.025 A 
ATOM     36  C   UNL d   1      28.521 -11.787   6.017  0.00  0.00     0.049 A 
ATOM     37 CL   UNL d   1      28.155 -10.331   5.168  0.00  0.00    -0.083 Cl
ENDBRANCH  28  31
ENDBRANCH   3  27
TORSDOF 6
ENDMDL
MODEL 3
REMARK VINA RESULT:    -9.194      4.594      7.542
REMARK INTER + INTRA:         -12.580
REMARK INTER:                 -10.984
REMARK INTRA:                  -1.597
REMARK CONF_INDEPENDENT:        1.790
REMARK UNBOUND:                -1.597
REMARK  6 active torsions:
REMARK  status: ('A' for Active; 'I' for Inactive)
REMARK    1  A    between atoms: C_2  and  C_3 
REMARK    2  A    between atoms: C_6  and  N_7 
REMARK       I    between atoms: N_7  and  C_8 
REMARK       I    between atoms: C_8  and  N_10 
REMARK    3  A    between atoms: N_10  and  C_11 
REMARK    4  A    between atoms: C_13  and  N_14 
REMARK       I    between atoms: N_14  and  C_15 
REMARK    5  A    between atoms: C_15  and  C_17 
REMARK    6  A    between atoms: C_26  and  N_27 
ROOT
ATOM      1  C   UNL d   1      27.106 -15.714  -1.644  0.00  0.00     0.065 A 
ATOM      2  C   UNL d   1      27.814 -15.006  -2.657  0.00  0.00     0.061 A 
ATOM      3  C   UNL d   1      27.183 -14.659  -3.876  0.00  0.00     0.037 A 
ATOM      4  C   UNL d   1      25.905 -15.151  -4.111  0.00  0.00     0.032 A 
ATOM      5  C   UNL d   1      25.211 -15.850  -3.139  0.00  0.00     0.034 A 
ATOM      6  C   UNL d   1      25.773 -16.133  -1.893  0.00  0.00     0.057 A 
ENDROOT
BRANCH   1   7
ATOM      7  N   UNL d   1      27.701 -15.948  -0.349  0.00  0.00    -0.306 N 
ATOM      8  C   UNL d   1      27.367 -15.135   0.728  0.00  0.00     0.325 C 
ATOM      9  N   UNL d   1      28.253 -15.157   1.807  0.00  0.00    -0.309 N 
ATOM     10  O   UNL d   1      26.356 -14.423   0.701  0.00  0.00    -0.247 OA
ATOM     11  H   UNL d   1      28.869 -15.950   1.913  0.00  0.00     0.170 HD
ATOM     12  H   UNL d   1      28.140 -16.838  -0.183  0.00  0.00     0.170 HD
BRANCH   9  13
ATOM     13  C   UNL d   1      28.141 -14.257   2.922  0.00  0.00     0.036 A 
ATOM     14  C   UNL d   1      28.158 -14.731   4.238  0.00  0.00     0.030 A 
ATOM     15  C   UNL d   1      27.920 -13.853   5.317  0.00  0.00     0.009 A 
ATOM     16  C   UNL d   1      27.781 -12.473   5.108  0.00  0.00    -0.058 A 
ATOM     17  C   UNL d   1      27.794 -11.995   3.806  0.00  0.00     0.009 A 
ATOM     18  C   UNL d   1      27.993 -12.874   2.744  0.00  0.00     0.030 A 
BRANCH  16  19
ATOM     19  C   UNL d   1      27.824 -11.487   6.246  0.00  0.00     0.034 C 
ATOM     20  C   UNL d   1      28.582 -12.120   7.410  0.00  0.00     0.010 C 
ENDBRANCH  16  19
ENDBRANCH   9  13
ENDBRANCH   1   7
BRANCH   6  21
ATOM     21  N   UNL d   1      24.934 -16.728  -0.972  0.00  0.00    -0.379 N 
ATOM     22  C   UNL d   1      25.465 -17.740  -0.064  0.00  0.00     0.123 C 
ATOM     23  C   UNL d   1      24.542 -18.950  -0.145  0.00  0.00     0.020 C 
ATOM     24  C   UNL d   1      23.082 -18.545   0.106  0.00  0.00     0.003 C 
ATOM     25  C   UNL d   1      22.643 -17.366  -0.773  0.00  0.00     0.020 C 
ATOM     26  C   UNL d   1      23.622 -16.209  -0.648  0.00  0.00     0.123 C 
ENDBRANCH   6  21
BRANCH   3  27
ATOM     27  N   UNL d   1      27.794 -13.776  -4.819  0.00  0.00    -0.323 N 
ATOM     28  C   UNL d   1      28.082 -14.109  -6.144  0.00  0.00     0.257 C 
ATOM     29  O   UNL d   1      27.876 -15.200  -6.686  0.00  0.00    -0.267 OA
ATOM     30  H   UNL d   1      27.958 -12.821  -4.523  0.00  0.00     0.169 HD
BRANCH  28  31
ATOM     31  C   UNL d   1      28.678 -13.105  -7.056  0.00  0.00     0.054 A 
ATOM     32  C   UNL d   1      27.791 -12.127  -7.566  0.00  0.00     0.019 A 
ATOM     33  C   UNL d   1      28.151 -11.325  -8.648  0.00  0.00     0.001 A 
ATOM     34  C   UNL d   1      29.427 -11.437  -9.185  0.00  0.00     0.002 A 
ATOM     35  C   UNL d   1      30.326 -12.369  -8.659  0.00  0.00     0.025 A 
ATOM     36  C   UNL d   1      29.959 -13.209  -7.599  0.00  0.00     0.049 A 
ATOM     37 CL   UNL d   1      31.127 -14.361  -7.066  0.00  0.00    -0.083 Cl
ENDBRANCH  28  31
ENDBRANCH   3  27
TORSDOF 6
ENDMDL
MODEL 4
REMARK VINA RESULT:    -9.185      4.244      9.942
REMARK INTER + INTRA:         -13.098
REMARK INTER:                 -10.975
REMARK INTRA:                  -2.123
REMARK CONF_INDEPENDENT:        1.790
REMARK UNBOUND:                -2.123
REMARK  6 active torsions:
REMARK  status: ('A' for Active; 'I' for Inactive)
REMARK    1  A    between atoms: C_2  and  C_3 
REMARK    2  A    between atoms: C_6  and  N_7 
REMARK       I    between atoms: N_7  and  C_8 
REMARK       I    between atoms: C_8  and  N_10 
REMARK    3  A    between atoms: N_10  and  C_11 
REMARK    4  A    between atoms: C_13  and  N_14 
REMARK       I    between atoms: N_14  and  C_15 
REMARK    5  A    between atoms: C_15  and  C_17 
REMARK    6  A    between atoms: C_26  and  N_27 
ROOT
ATOM      1  C   UNL d   1      24.394 -16.083  -1.489  0.00  0.00     0.065 A 
ATOM      2  C   UNL d   1      23.348 -17.020  -1.257  0.00  0.00     0.061 A 
ATOM      3  C   UNL d   1      23.515 -18.081  -0.334  0.00  0.00     0.037 A 
ATOM      4  C   UNL d   1      24.772 -18.262   0.230  0.00  0.00     0.032 A 
ATOM      5  C   UNL d   1      25.800 -17.364   0.003  0.00  0.00     0.034 A 
ATOM      6  C   UNL d   1      25.641 -16.257  -0.834  0.00  0.00     0.057 A 
ENDROOT
BRANCH   1   7
ATOM      7  N   UNL d   1      24.179 -14.924  -2.323  0.00  0.00    -0.306 N 
ATOM      8  C   UNL d   1      25.018 -14.677  -3.404  0.00  0.00     0.325 C 
ATOM      9  N   UNL d   1      25.007 -13.373  -3.901  0.00  0.00    -0.309 N 
ATOM     10  O   UNL d   1      25.742 -15.567  -3.865  0.00  0.00    -0.247 OA
ATOM     11  H   UNL d   1      24.208 -12.786  -3.707  0.00  0.00     0.170 HD
ATOM     12  H   UNL d   1      23.287 -14.461  -2.272  0.00  0.00     0.170 HD
BRANCH   9  13
ATOM     13  C   UNL d   1      25.932 -12.915  -4.902  0.00  0.00     0.036 A 
ATOM     14  C   UNL d   1      26.988 -13.725  -5.334  0.00  0.00     0.030 A 
ATOM     15  C   UNL d   1      27.961 -13.216  -6.221  0.00  0.00     0.009 A 
ATOM     16  C   UNL d   1      27.829 -11.938  -6.781  0.00  0.00    -0.058 A 
ATOM     17  C   UNL d   1      26.766 -11.143  -6.378  0.00  0.00     0.009 A 
ATOM     18  C   UNL d   1      25.830 -11.640  -5.474  0.00  0.00     0.030 A 
BRANCH  16  19
ATOM     19  C   UNL d   1      28.677 -11.486  -7.943  0.00  0.00     0.034 C 
ATOM     20  C   UNL d   1      28.310 -12.321  -9.166  0.00  0.00     0.010 C 
ENDBRANCH  16  19
ENDBRANCH   9  13
ENDBRANCH   1   7
BRANCH   6  21
ATOM     21  N   UNL d   1      26.701 -15.375  -0.878  0.00  0.00    -0.379 N 
ATOM     22  C   UNL d   1      26.588 -14.080  -0.215  0.00  0.00     0.123 C 
ATOM     23  C   UNL d   1      26.999 -13.016  -1.227  0.00  0.00     0.020 C 
ATOM     24  C   UNL d   1      28.379 -13.328  -1.822  0.00  0.00     0.003 C 
ATOM     25  C   UNL d   1      28.474 -14.764  -2.354  0.00  0.00     0.020 C 
ATOM     26  C   UNL d   1      28.033 -15.761  -1.294  0.00  0.00     0.123 C 
ENDBRANCH   6  21
BRANCH   3  27
ATOM     27  N   UNL d   1      22.423 -18.908   0.073  0.00  0.00    -0.323 N 
ATOM     28  C   UNL d   1      21.085 -18.666  -0.245  0.00  0.00     0.257 C 
ATOM     29  O   UNL d   1      20.648 -17.710  -0.895  0.00  0.00    -0.267 OA
ATOM     30  H   UNL d   1      22.647 -19.767   0.560  0.00  0.00     0.169 HD
BRANCH  28  31
ATOM     31  C   UNL d   1      20.029 -19.610   0.188  0.00  0.00     0.054 A 
ATOM     32  C   UNL d   1      19.176 -20.097  -0.831  0.00  0.00     0.019 A 
ATOM     33  C   UNL d   1      17.980 -20.741  -0.520  0.00  0.00     0.001 A 
ATOM     34  C   UNL d   1      17.657 -20.973   0.810  0.00  0.00     0.002 A 
ATOM     35  C   UNL d   1      18.514 -20.537   1.824  0.00  0.00     0.025 A 
ATOM     36  C   UNL d   1      19.699 -19.851   1.522  0.00  0.00     0.049 A 
ATOM     37 CL   UNL d   1      20.655 -19.307   2.851  0.00  0.00    -0.083 Cl
ENDBRANCH  28  31
ENDBRANCH   3  27
TORSDOF 6
ENDMDL
MODEL 5
REMARK VINA RESULT:    -8.776      2.601      6.736
REMARK INTER + INTRA:         -11.857
REMARK INTER:                 -10.565
REMARK INTRA:                  -1.292
REMARK CONF_INDEPENDENT:        1.790
REMARK UNBOUND:                -1.292
REMARK  6 active torsions:
REMARK  status: ('A' for Active; 'I' for Inactive)
REMARK    1  A    between atoms: C_2  and  C_3 
REMARK    2  A    between atoms: C_6  and  N_7 
REMARK       I    between atoms: N_7  and  C_8 
REMARK       I    between atoms: C_8  and  N_10 
REMARK    3  A    between atoms: N_10  and  C_11 
REMARK    4  A    between atoms: C_13  and  N_14 
REMARK       I    between atoms: N_14  and  C_15 
REMARK    5  A    between atoms: C_15  and  C_17 
REMARK    6  A    between atoms: C_26  and  N_27 
ROOT
ATOM      1  C   UNL d   1      27.020 -15.107  -3.628  0.00  0.00     0.065 A 
ATOM      2  C   UNL d   1      26.853 -13.939  -4.425  0.00  0.00     0.061 A 
ATOM      3  C   UNL d   1      25.678 -13.156  -4.329  0.00  0.00     0.037 A 
ATOM      4  C   UNL d   1      24.637 -13.636  -3.543  0.00  0.00     0.032 A 
ATOM      5  C   UNL d   1      24.782 -14.776  -2.772  0.00  0.00     0.034 A 
ATOM      6  C   UNL d   1      25.962 -15.523  -2.777  0.00  0.00     0.057 A 
ENDROOT
BRANCH   1   7
ATOM      7  N   UNL d   1      28.270 -15.829  -3.622  0.00  0.00    -0.306 N 
ATOM      8  C   UNL d   1      28.870 -16.196  -4.821  0.00  0.00     0.325 C 
ATOM      9  N   UNL d   1      29.827 -17.209  -4.741  0.00  0.00    -0.309 N 
ATOM     10  O   UNL d   1      28.541 -15.663  -5.887  0.00  0.00    -0.247 OA
ATOM     11  H   UNL d   1      30.269 -17.389  -3.851  0.00  0.00     0.170 HD
ATOM     12  H   UNL d   1      28.813 -15.829  -2.775  0.00  0.00     0.170 HD
BRANCH   9  13
ATOM     13  C   UNL d   1      30.416 -17.814  -5.904  0.00  0.00     0.036 A 
ATOM     14  C   UNL d   1      30.406 -19.203  -6.079  0.00  0.00     0.030 A 
ATOM     15  C   UNL d   1      31.099 -19.791  -7.159  0.00  0.00     0.009 A 
ATOM     16  C   UNL d   1      31.709 -19.000  -8.143  0.00  0.00    -0.058 A 
ATOM     17  C   UNL d   1      31.694 -17.621  -7.988  0.00  0.00     0.009 A 
ATOM     18  C   UNL d   1      31.040 -17.050  -6.900  0.00  0.00     0.030 A 
BRANCH  16  19
ATOM     19  C   UNL d   1      32.191 -19.581  -9.446  0.00  0.00     0.034 C 
ATOM     20  C   UNL d   1      30.982 -20.070 -10.238  0.00  0.00     0.010 C 
ENDBRANCH  16  19
ENDBRANCH   9  13
ENDBRANCH   1   7
BRANCH   6  21
ATOM     21  N   UNL d   1      26.022 -16.565  -1.874  0.00  0.00    -0.379 N 
ATOM     22  C   UNL d   1      24.870 -17.449  -1.717  0.00  0.00     0.123 C 
ATOM     23  C   UNL d   1      24.567 -17.536  -0.226  0.00  0.00     0.020 C 
ATOM     24  C   UNL d   1      25.818 -17.943   0.566  0.00  0.00     0.003 C 
ATOM     25  C   UNL d   1      27.033 -17.070   0.227  0.00  0.00     0.020 C 
ATOM     26  C   UNL d   1      27.258 -17.021  -1.275  0.00  0.00     0.123 C 
ENDBRANCH   6  21
BRANCH   3  27
ATOM     27  N   UNL d   1      25.569 -11.876  -4.956  0.00  0.00    -0.323 N 
ATOM     28  C   UNL d   1      26.412 -11.417  -5.970  0.00  0.00     0.257 C 
ATOM     29  O   UNL d   1      27.372 -12.025  -6.456  0.00  0.00    -0.267 OA
ATOM     30  H   UNL d   1      24.780 -11.297  -4.696  0.00  0.00     0.169 HD
BRANCH  28  31
ATOM     31  C   UNL d   1      26.188 -10.089  -6.587  0.00  0.00     0.054 A 
ATOM     32  C   UNL d   1      26.648  -9.937  -7.916  0.00  0.00     0.019 A 
ATOM     33  C   UNL d   1      26.770  -8.676  -8.496  0.00  0.00     0.001 A 
ATOM     34  C   UNL d   1      26.363  -7.556  -7.781  0.00  0.00     0.002 A 
ATOM     35  C   UNL d   1      25.865  -7.699  -6.484  0.00  0.00     0.025 A 
ATOM     36  C   UNL d   1      25.778  -8.960  -5.878  0.00  0.00     0.049 A 
ATOM     37 CL   UNL d   1      25.202  -9.015  -4.252  0.00  0.00    -0.083 Cl
ENDBRANCH  28  31
ENDBRANCH   3  27
TORSDOF 6
ENDMDL
MODEL 6
REMARK VINA RESULT:    -8.731      2.568      6.637
REMARK INTER + INTRA:         -11.990
REMARK INTER:                 -10.520
REMARK INTRA:                  -1.470
REMARK CONF_INDEPENDENT:        1.790
REMARK UNBOUND:                -1.470
REMARK  6 active torsions:
REMARK  status: ('A' for Active; 'I' for Inactive)
REMARK    1  A    between atoms: C_2  and  C_3 
REMARK    2  A    between atoms: C_6  and  N_7 
REMARK       I    between atoms: N_7  and  C_8 
REMARK       I    between atoms: C_8  and  N_10 
REMARK    3  A    between atoms: N_10  and  C_11 
REMARK    4  A    between atoms: C_13  and  N_14 
REMARK       I    between atoms: N_14  and  C_15 
REMARK    5  A    between atoms: C_15  and  C_17 
REMARK    6  A    between atoms: C_26  and  N_27 
ROOT
ATOM      1  C   UNL d   1      27.040 -15.035  -3.491  0.00  0.00     0.065 A 
ATOM      2  C   UNL d   1      26.808 -13.848  -4.244  0.00  0.00     0.061 A 
ATOM      3  C   UNL d   1      25.591 -13.134  -4.117  0.00  0.00     0.037 A 
ATOM      4  C   UNL d   1      24.581 -13.700  -3.349  0.00  0.00     0.032 A 
ATOM      5  C   UNL d   1      24.790 -14.859  -2.622  0.00  0.00     0.034 A 
ATOM      6  C   UNL d   1      26.009 -15.540  -2.656  0.00  0.00     0.057 A 
ENDROOT
BRANCH   1   7
ATOM      7  N   UNL d   1      28.327 -15.687  -3.514  0.00  0.00    -0.306 N 
ATOM      8  C   UNL d   1      28.890 -16.078  -4.723  0.00  0.00     0.325 C 
ATOM      9  N   UNL d   1      29.905 -17.033  -4.644  0.00  0.00    -0.309 N 
ATOM     10  O   UNL d   1      28.483 -15.616  -5.795  0.00  0.00    -0.247 OA
ATOM     11  H   UNL d   1      30.398 -17.146  -3.770  0.00  0.00     0.170 HD
ATOM     12  H   UNL d   1      28.909 -15.617  -2.695  0.00  0.00     0.170 HD
BRANCH   9  13
ATOM     13  C   UNL d   1      30.473 -17.662  -5.806  0.00  0.00     0.036 A 
ATOM     14  C   UNL d   1      31.104 -16.906  -6.800  0.00  0.00     0.030 A 
ATOM     15  C   UNL d   1      31.543 -17.520  -7.993  0.00  0.00     0.009 A 
ATOM     16  C   UNL d   1      31.467 -18.910  -8.160  0.00  0.00    -0.058 A 
ATOM     17  C   UNL d   1      30.868 -19.666  -7.162  0.00  0.00     0.009 A 
ATOM     18  C   UNL d   1      30.405 -19.047  -6.004  0.00  0.00     0.030 A 
BRANCH  16  19
ATOM     19  C   UNL d   1      32.188 -19.619  -9.277  0.00  0.00     0.034 C 
ATOM     20  C   UNL d   1      31.152 -20.151 -10.264  0.00  0.00     0.010 C 
ENDBRANCH  16  19
ENDBRANCH   9  13
ENDBRANCH   1   7
BRANCH   6  21
ATOM     21  N   UNL d   1      26.128 -16.610  -1.793  0.00  0.00    -0.379 N 
ATOM     22  C   UNL d   1      24.998 -17.516  -1.610  0.00  0.00     0.123 C 
ATOM     23  C   UNL d   1      24.771 -17.658  -0.109  0.00  0.00     0.020 C 
ATOM     24  C   UNL d   1      26.066 -18.072   0.605  0.00  0.00     0.003 C 
ATOM     25  C   UNL d   1      27.250 -17.170   0.237  0.00  0.00     0.020 C 
ATOM     26  C   UNL d   1      27.399 -17.067  -1.273  0.00  0.00     0.123 C 
ENDBRANCH   6  21
BRANCH   3  27
ATOM     27  N   UNL d   1      25.411 -11.840  -4.694  0.00  0.00    -0.323 N 
ATOM     28  C   UNL d   1      26.012 -10.671  -4.221  0.00  0.00     0.257 C 
ATOM     29  O   UNL d   1      26.757 -10.576  -3.240  0.00  0.00    -0.267 OA
ATOM     30  H   UNL d   1      24.871 -11.783  -5.549  0.00  0.00     0.169 HD
BRANCH  28  31
ATOM     31  C   UNL d   1      25.796  -9.382  -4.919  0.00  0.00     0.054 A 
ATOM     32  C   UNL d   1      25.189  -8.357  -4.154  0.00  0.00     0.019 A 
ATOM     33  C   UNL d   1      24.666  -7.219  -4.764  0.00  0.00     0.001 A 
ATOM     34  C   UNL d   1      24.807  -7.055  -6.135  0.00  0.00     0.002 A 
ATOM     35  C   UNL d   1      25.445  -8.040  -6.895  0.00  0.00     0.025 A 
ATOM     36  C   UNL d   1      25.937  -9.208  -6.295  0.00  0.00     0.049 A 
ATOM     37 CL   UNL d   1      26.655 -10.384  -7.334  0.00  0.00    -0.083 Cl
ENDBRANCH  28  31
ENDBRANCH   3  27
TORSDOF 6
ENDMDL
MODEL 7
REMARK VINA RESULT:    -8.701      4.513      6.287
REMARK INTER + INTRA:         -12.087
REMARK INTER:                 -10.491
REMARK INTRA:                  -1.596
REMARK CONF_INDEPENDENT:        1.790
REMARK UNBOUND:                -1.596
REMARK  6 active torsions:
REMARK  status: ('A' for Active; 'I' for Inactive)
REMARK    1  A    between atoms: C_2  and  C_3 
REMARK    2  A    between atoms: C_6  and  N_7 
REMARK       I    between atoms: N_7  and  C_8 
REMARK       I    between atoms: C_8  and  N_10 
REMARK    3  A    between atoms: N_10  and  C_11 
REMARK    4  A    between atoms: C_13  and  N_14 
REMARK       I    between atoms: N_14  and  C_15 
REMARK    5  A    between atoms: C_15  and  C_17 
REMARK    6  A    between atoms: C_26  and  N_27 
ROOT
ATOM      1  C   UNL d   1      26.848 -14.653  -1.351  0.00  0.00     0.065 A 
ATOM      2  C   UNL d   1      27.053 -13.366  -1.924  0.00  0.00     0.061 A 
ATOM      3  C   UNL d   1      26.209 -12.887  -2.955  0.00  0.00     0.037 A 
ATOM      4  C   UNL d   1      25.269 -13.762  -3.486  0.00  0.00     0.032 A 
ATOM      5  C   UNL d   1      25.067 -15.019  -2.945  0.00  0.00     0.034 A 
ATOM      6  C   UNL d   1      25.824 -15.489  -1.869  0.00  0.00     0.057 A 
ENDROOT
BRANCH   1   7
ATOM      7  N   UNL d   1      27.617 -15.087  -0.209  0.00  0.00    -0.306 N 
ATOM      8  C   UNL d   1      27.348 -14.567   1.052  0.00  0.00     0.325 C 
ATOM      9  N   UNL d   1      28.359 -14.716   2.003  0.00  0.00    -0.309 N 
ATOM     10  O   UNL d   1      26.282 -13.987   1.288  0.00  0.00    -0.247 OA
ATOM     11  H   UNL d   1      29.052 -15.437   1.865  0.00  0.00     0.170 HD
ATOM     12  H   UNL d   1      28.151 -15.936  -0.292  0.00  0.00     0.170 HD
BRANCH   9  13
ATOM     13  C   UNL d   1      28.306 -14.093   3.297  0.00  0.00     0.036 A 
ATOM     14  C   UNL d   1      28.563 -14.824   4.463  0.00  0.00     0.030 A 
ATOM     15  C   UNL d   1      28.383 -14.233   5.731  0.00  0.00     0.009 A 
ATOM     16  C   UNL d   1      28.062 -12.874   5.855  0.00  0.00    -0.058 A 
ATOM     17  C   UNL d   1      27.836 -12.138   4.701  0.00  0.00     0.009 A 
ATOM     18  C   UNL d   1      27.980 -12.739   3.453  0.00  0.00     0.030 A 
BRANCH  16  19
ATOM     19  C   UNL d   1      28.155 -12.150   7.174  0.00  0.00     0.034 C 
ATOM     20  C   UNL d   1      28.844 -13.064   8.182  0.00  0.00     0.010 C 
ENDBRANCH  16  19
ENDBRANCH   9  13
ENDBRANCH   1   7
BRANCH   6  21
ATOM     21  N   UNL d   1      25.442 -16.708  -1.347  0.00  0.00    -0.379 N 
ATOM     22  C   UNL d   1      24.113 -17.234  -1.645  0.00  0.00     0.123 C 
ATOM     23  C   UNL d   1      23.475 -17.629  -0.318  0.00  0.00     0.020 C 
ATOM     24  C   UNL d   1      24.392 -18.574   0.472  0.00  0.00     0.003 C 
ATOM     25  C   UNL d   1      25.819 -18.027   0.605  0.00  0.00     0.020 C 
ATOM     26  C   UNL d   1      26.377 -17.641  -0.756  0.00  0.00     0.123 C 
ENDBRANCH   6  21
BRANCH   3  27
ATOM     27  N   UNL d   1      26.258 -11.531  -3.404  0.00  0.00    -0.323 N 
ATOM     28  C   UNL d   1      25.908 -11.109  -4.688  0.00  0.00     0.257 C 
ATOM     29  O   UNL d   1      25.530 -11.830  -5.619  0.00  0.00    -0.267 OA
ATOM     30  H   UNL d   1      26.491 -10.823  -2.719  0.00  0.00     0.169 HD
BRANCH  28  31
ATOM     31  C   UNL d   1      25.951  -9.672  -5.042  0.00  0.00     0.054 A 
ATOM     32  C   UNL d   1      25.149  -8.814  -4.253  0.00  0.00     0.019 A 
ATOM     33  C   UNL d   1      24.871  -7.511  -4.663  0.00  0.00     0.001 A 
ATOM     34  C   UNL d   1      25.451  -7.025  -5.827  0.00  0.00     0.002 A 
ATOM     35  C   UNL d   1      26.281  -7.849  -6.591  0.00  0.00     0.025 A 
ATOM     36  C   UNL d   1      26.533  -9.174  -6.209  0.00  0.00     0.049 A 
ATOM     37 CL   UNL d   1      27.526 -10.120  -7.255  0.00  0.00    -0.083 Cl
ENDBRANCH  28  31
ENDBRANCH   3  27
TORSDOF 6
ENDMDL
MODEL 8
REMARK VINA RESULT:    -8.666      8.202     11.267
REMARK INTER + INTRA:         -11.934
REMARK INTER:                 -10.456
REMARK INTRA:                  -1.478
REMARK CONF_INDEPENDENT:        1.790
REMARK UNBOUND:                -1.478
REMARK  6 active torsions:
REMARK  status: ('A' for Active; 'I' for Inactive)
REMARK    1  A    between atoms: C_2  and  C_3 
REMARK    2  A    between atoms: C_6  and  N_7 
REMARK       I    between atoms: N_7  and  C_8 
REMARK       I    between atoms: C_8  and  N_10 
REMARK    3  A    between atoms: N_10  and  C_11 
REMARK    4  A    between atoms: C_13  and  N_14 
REMARK       I    between atoms: N_14  and  C_15 
REMARK    5  A    between atoms: C_15  and  C_17 
REMARK    6  A    between atoms: C_26  and  N_27 
ROOT
ATOM      1  C   UNL d   1      29.017 -13.945   3.522  0.00  0.00     0.065 A 
ATOM      2  C   UNL d   1      29.404 -14.411   4.810  0.00  0.00     0.061 A 
ATOM      3  C   UNL d   1      29.252 -13.592   5.955  0.00  0.00     0.037 A 
ATOM      4  C   UNL d   1      28.849 -12.275   5.765  0.00  0.00     0.032 A 
ATOM      5  C   UNL d   1      28.481 -11.807   4.516  0.00  0.00     0.034 A 
ATOM      6  C   UNL d   1      28.536 -12.617   3.380  0.00  0.00     0.057 A 
ENDROOT
BRANCH   1   7
ATOM      7  N   UNL d   1      29.042 -14.824   2.377  0.00  0.00    -0.306 N 
ATOM      8  C   UNL d   1      27.865 -15.119   1.698  0.00  0.00     0.325 C 
ATOM      9  N   UNL d   1      27.895 -16.253   0.886  0.00  0.00    -0.309 N 
ATOM     10  O   UNL d   1      26.855 -14.420   1.841  0.00  0.00    -0.247 OA
ATOM     11  H   UNL d   1      28.789 -16.600   0.570  0.00  0.00     0.170 HD
ATOM     12  H   UNL d   1      29.928 -15.001   1.934  0.00  0.00     0.170 HD
BRANCH   9  13
ATOM     13  C   UNL d   1      26.721 -16.786   0.251  0.00  0.00     0.036 A 
ATOM     14  C   UNL d   1      26.069 -16.082  -0.768  0.00  0.00     0.030 A 
ATOM     15  C   UNL d   1      24.847 -16.555  -1.293  0.00  0.00     0.009 A 
ATOM     16  C   UNL d   1      24.321 -17.793  -0.897  0.00  0.00    -0.058 A 
ATOM     17  C   UNL d   1      24.982 -18.508   0.092  0.00  0.00     0.009 A 
ATOM     18  C   UNL d   1      26.168 -18.016   0.632  0.00  0.00     0.030 A 
BRANCH  16  19
ATOM     19  C   UNL d   1      23.194 -18.456  -1.645  0.00  0.00     0.034 C 
ATOM     20  C   UNL d   1      22.157 -18.937  -0.634  0.00  0.00     0.010 C 
ENDBRANCH  16  19
ENDBRANCH   9  13
ENDBRANCH   1   7
BRANCH   6  21
ATOM     21  N   UNL d   1      28.027 -12.068   2.221  0.00  0.00    -0.379 N 
ATOM     22  C   UNL d   1      28.781 -12.185   0.977  0.00  0.00     0.123 C 
ATOM     23  C   UNL d   1      28.876 -10.790   0.372  0.00  0.00     0.020 C 
ATOM     24  C   UNL d   1      27.485 -10.154   0.236  0.00  0.00     0.003 C 
ATOM     25  C   UNL d   1      26.686 -10.213   1.545  0.00  0.00     0.020 C 
ATOM     26  C   UNL d   1      26.652 -11.631   2.091  0.00  0.00     0.123 C 
ENDBRANCH   6  21
BRANCH   3  27
ATOM     27  N   UNL d   1      29.435 -14.100   7.278  0.00  0.00    -0.323 N 
ATOM     28  C   UNL d   1      29.841 -13.333   8.372  0.00  0.00     0.257 C 
ATOM     29  O   UNL d   1      30.120 -12.129   8.359  0.00  0.00    -0.267 OA
ATOM     30  H   UNL d   1      29.177 -15.065   7.445  0.00  0.00     0.169 HD
BRANCH  28  31
ATOM     31  C   UNL d   1      29.959 -13.946   9.715  0.00  0.00     0.054 A 
ATOM     32  C   UNL d   1      30.947 -14.949   9.855  0.00  0.00     0.019 A 
ATOM     33  C   UNL d   1      30.958 -15.800  10.959  0.00  0.00     0.001 A 
ATOM     34  C   UNL d   1      30.028 -15.611  11.973  0.00  0.00     0.002 A 
ATOM     35  C   UNL d   1      29.076 -14.594  11.867  0.00  0.00     0.025 A 
ATOM     36  C   UNL d   1      29.031 -13.760  10.740  0.00  0.00     0.049 A 
ATOM     37 CL   UNL d   1      27.779 -12.575  10.686  0.00  0.00    -0.083 Cl
ENDBRANCH  28  31
ENDBRANCH   3  27
TORSDOF 6
ENDMDL
MODEL 9
REMARK VINA RESULT:    -8.416      5.353     10.302
REMARK INTER + INTRA:         -11.841
REMARK INTER:                 -10.206
REMARK INTRA:                  -1.635
REMARK CONF_INDEPENDENT:        1.790
REMARK UNBOUND:                -1.635
REMARK  6 active torsions:
REMARK  status: ('A' for Active; 'I' for Inactive)
REMARK    1  A    between atoms: C_2  and  C_3 
REMARK    2  A    between atoms: C_6  and  N_7 
REMARK       I    between atoms: N_7  and  C_8 
REMARK       I    between atoms: C_8  and  N_10 
REMARK    3  A    between atoms: N_10  and  C_11 
REMARK    4  A    between atoms: C_13  and  N_14 
REMARK       I    between atoms: N_14  and  C_15 
REMARK    5  A    between atoms: C_15  and  C_17 
REMARK    6  A    between atoms: C_26  and  N_27 
ROOT
ATOM      1  C   UNL d   1      25.218 -17.435  -0.683  0.00  0.00     0.065 A 
ATOM      2  C   UNL d   1      24.268 -18.289  -0.054  0.00  0.00     0.061 A 
ATOM      3  C   UNL d   1      22.882 -18.002  -0.113  0.00  0.00     0.037 A 
ATOM      4  C   UNL d   1      22.491 -16.794  -0.678  0.00  0.00     0.032 A 
ATOM      5  C   UNL d   1      23.406 -15.950  -1.282  0.00  0.00     0.034 A 
ATOM      6  C   UNL d   1      24.770 -16.247  -1.318  0.00  0.00     0.057 A 
ENDROOT
BRANCH   1   7
ATOM      7  N   UNL d   1      26.614 -17.797  -0.744  0.00  0.00    -0.306 N 
ATOM      8  C   UNL d   1      27.550 -17.096   0.009  0.00  0.00     0.325 C 
ATOM      9  N   UNL d   1      28.879 -17.225  -0.394  0.00  0.00    -0.309 N 
ATOM     10  O   UNL d   1      27.200 -16.385   0.958  0.00  0.00    -0.247 OA
ATOM     11  H   UNL d   1      29.142 -18.025  -0.953  0.00  0.00     0.170 HD
ATOM     12  H   UNL d   1      26.855 -18.699  -1.119  0.00  0.00     0.170 HD
BRANCH   9  13
ATOM     13  C   UNL d   1      29.943 -16.441   0.171  0.00  0.00     0.036 A 
ATOM     14  C   UNL d   1      29.713 -15.141   0.636  0.00  0.00     0.030 A 
ATOM     15  C   UNL d   1      30.789 -14.337   1.070  0.00  0.00     0.009 A 
ATOM     16  C   UNL d   1      32.088 -14.856   1.159  0.00  0.00    -0.058 A 
ATOM     17  C   UNL d   1      32.314 -16.155   0.727  0.00  0.00     0.009 A 
ATOM     18  C   UNL d   1      31.253 -16.930   0.266  0.00  0.00     0.030 A 
BRANCH  16  19
ATOM     19  C   UNL d   1      33.188 -14.130   1.890  0.00  0.00     0.034 C 
ATOM     20  C   UNL d   1      34.365 -13.945   0.937  0.00  0.00     0.010 C 
ENDBRANCH  16  19
ENDBRANCH   9  13
ENDBRANCH   1   7
BRANCH   6  21
ATOM     21  N   UNL d   1      25.557 -15.386  -2.056  0.00  0.00    -0.379 N 
ATOM     22  C   UNL d   1      26.508 -14.516  -1.372  0.00  0.00     0.123 C 
ATOM     23  C   UNL d   1      26.279 -13.101  -1.889  0.00  0.00     0.020 C 
ATOM     24  C   UNL d   1      26.340 -13.060  -3.423  0.00  0.00     0.003 C 
ATOM     25  C   UNL d   1      25.434 -14.115  -4.071  0.00  0.00     0.020 C 
ATOM     26  C   UNL d   1      25.712 -15.492  -3.492  0.00  0.00     0.123 C 
ENDBRANCH   6  21
BRANCH   3  27
ATOM     27  N   UNL d   1      21.897 -18.940   0.324  0.00  0.00    -0.323 N 
ATOM     28  C   UNL d   1      20.568 -18.950  -0.105  0.00  0.00     0.257 C 
ATOM     29  O   UNL d   1      20.047 -18.155  -0.895  0.00  0.00    -0.267 OA
ATOM     30  H   UNL d   1      22.206 -19.692   0.928  0.00  0.00     0.169 HD
BRANCH  28  31
ATOM     31  C   UNL d   1      19.633 -19.993   0.376  0.00  0.00     0.054 A 
ATOM     32  C   UNL d   1      18.678 -20.451  -0.563  0.00  0.00     0.019 A 
ATOM     33  C   UNL d   1      17.571 -21.195  -0.159  0.00  0.00     0.001 A 
ATOM     34  C   UNL d   1      17.444 -21.555   1.176  0.00  0.00     0.002 A 
ATOM     35  C   UNL d   1      18.405 -21.147   2.105  0.00  0.00     0.025 A 
ATOM     36  C   UNL d   1      19.499 -20.363   1.714  0.00  0.00     0.049 A 
ATOM     37 CL   UNL d   1      20.594 -19.867   2.952  0.00  0.00    -0.083 Cl
ENDBRANCH  28  31
ENDBRANCH   3  27
TORSDOF 6
ENDMDL
