MODEL 1
REMARK VINA RESULT:    -8.090      0.000      0.000
REMARK INTER + INTRA:         -11.798
REMARK INTER:                 -10.178
REMARK INTRA:                  -1.620
REMARK CONF_INDEPENDENT:        2.088
REMARK UNBOUND:                -1.620
REMARK  7 active torsions:
REMARK  status: ('A' for Active; 'I' for Inactive)
REMARK    1  A    between atoms: C_2  and  C_4 
REMARK    2  A    between atoms: C_6  and  C_7 
REMARK       I    between atoms: C_7  and  N_9 
REMARK    3  A    between atoms: N_9  and  N_10 
REMARK       I    between atoms: N_10  and  C_11 
REMARK       I    between atoms: C_11  and  N_13 
REMARK    4  A    between atoms: N_13  and  C_14 
REMARK    5  A    between atoms: C_14  and  C_15 
REMARK    6  A    between atoms: C_15  and  C_16 
REMARK    7  A    between atoms: C_16  and  N_17 
ROOT
ATOM      1  C   UNL d   1      25.264 -14.472  -3.489  0.00  0.00     0.271 C 
ATOM      2  O   UNL d   1      24.828 -14.798  -4.601  0.00  0.00    -0.266 OA
ATOM      3  N   UNL d   1      25.440 -13.133  -3.183  0.00  0.00    -0.262 N 
ATOM      4  H   UNL d   1      25.666 -12.779  -2.278  0.00  0.00     0.190 HD
ENDROOT
BRANCH   3   5
ATOM      5  N   UNL d   1      25.197 -12.044  -4.048  0.00  0.00    -0.249 N 
ATOM      6  C   UNL d   1      25.716 -10.822  -3.631  0.00  0.00     0.334 C 
ATOM      7  O   UNL d   1      26.353 -10.700  -2.583  0.00  0.00    -0.246 OA
ATOM      8  N   UNL d   1      25.467  -9.765  -4.466  0.00  0.00    -0.342 N 
ATOM      9  H   UNL d   1      24.929  -9.948  -5.300  0.00  0.00     0.164 HD
ATOM     10  H   UNL d   1      24.654 -12.223  -4.883  0.00  0.00     0.192 HD
BRANCH   8  11
ATOM     11  C   UNL d   1      25.958  -8.418  -4.166  0.00  0.00     0.126 C 
BRANCH  11  12
ATOM     12  C   UNL d   1      25.987  -7.543  -5.411  0.00  0.00     0.040 C 
BRANCH  12  13
ATOM     13  C   UNL d   1      24.971  -7.935  -6.489  0.00  0.00     0.130 C 
BRANCH  13  14
ATOM     14  N   UNL d   1      23.658  -7.269  -6.286  0.00  0.00    -0.352 N 
ATOM     15  C   UNL d   1      22.939  -6.552  -7.241  0.00  0.00     0.108 A 
ATOM     16  C   UNL d   1      21.751  -6.199  -6.680  0.00  0.00     0.106 A 
ATOM     17  N   UNL d   1      21.780  -6.678  -5.396  0.00  0.00    -0.361 N 
ATOM     18  C   UNL d   1      22.936  -7.309  -5.150  0.00  0.00     0.182 A 
ATOM     19  H   UNL d   1      21.027  -6.573  -4.720  0.00  0.00     0.166 HD
ENDBRANCH  13  14
ENDBRANCH  12  13
ENDBRANCH  11  12
ENDBRANCH   8  11
ENDBRANCH   3   5
BRANCH   1  20
ATOM     20  C   UNL d   1      25.595 -15.563  -2.443  0.00  0.00     0.048 A 
ATOM     21  C   UNL d   1      24.479 -16.208  -1.870  0.00  0.00     0.045 A 
ATOM     22  C   UNL d   1      24.633 -17.193  -0.888  0.00  0.00     0.039 A 
ATOM     23  N   UNL d   1      25.859 -17.572  -0.468  0.00  0.00    -0.252 NA
ATOM     24  C   UNL d   1      26.947 -16.984  -0.989  0.00  0.00     0.068 A 
ATOM     25  C   UNL d   1      28.191 -17.399  -0.506  0.00  0.00     0.032 A 
ATOM     26  C   UNL d   1      26.885 -15.976  -1.987  0.00  0.00     0.008 A 
ATOM     27  C   UNL d   1      29.392 -16.856  -0.962  0.00  0.00     0.002 A 
ATOM     28  C   UNL d   1      29.357 -15.891  -1.933  0.00  0.00     0.001 A 
ATOM     29  C   UNL d   1      28.133 -15.489  -2.436  0.00  0.00     0.015 A 
BRANCH  22  30
ATOM     30  C   UNL d   1      23.456 -17.862  -0.182  0.00  0.00     0.029 C 
ATOM     31  C   UNL d   1      22.155 -17.125  -0.520  0.00  0.00     0.016 C 
ATOM     32  C   UNL d   1      23.306 -19.346  -0.520  0.00  0.00     0.016 C 
ENDBRANCH  22  30
ENDBRANCH   1  20
TORSDOF 7
ENDMDL
MODEL 2
REMARK VINA RESULT:    -8.067      6.468     10.405
REMARK INTER + INTRA:         -11.797
REMARK INTER:                 -10.155
REMARK INTRA:                  -1.642
REMARK CONF_INDEPENDENT:        2.088
REMARK UNBOUND:                -1.642
REMARK  7 active torsions:
REMARK  status: ('A' for Active; 'I' for Inactive)
REMARK    1  A    between atoms: C_2  and  C_4 
REMARK    2  A    between atoms: C_6  and  C_7 
REMARK       I    between atoms: C_7  and  N_9 
REMARK    3  A    between atoms: N_9  and  N_10 
REMARK       I    between atoms: N_10  and  C_11 
REMARK       I    between atoms: C_11  and  N_13 
REMARK    4  A    between atoms: N_13  and  C_14 
REMARK    5  A    between atoms: C_14  and  C_15 
REMARK    6  A    between atoms: C_15  and  C_16 
REMARK    7  A    between atoms: C_16  and  N_17 
ROOT
ATOM      1  C   UNL d   1      27.887 -15.798   0.523  0.00  0.00     0.271 C 
ATOM      2  O   UNL d   1      29.003 -16.313   0.372  0.00  0.00    -0.266 OA
ATOM      3  N   UNL d   1      27.621 -15.052   1.659  0.00  0.00    -0.262 N 
ATOM      4  H   UNL d   1      26.799 -14.504   1.802  0.00  0.00     0.190 HD
ENDROOT
BRANCH   3   5
ATOM      5  N   UNL d   1      28.510 -14.825   2.731  0.00  0.00    -0.249 N 
ATOM      6  C   UNL d   1      28.043 -13.970   3.724  0.00  0.00     0.334 C 
ATOM      7  O   UNL d   1      26.925 -13.452   3.675  0.00  0.00    -0.246 OA
ATOM      8  N   UNL d   1      28.914 -13.741   4.757  0.00  0.00    -0.342 N 
ATOM      9  H   UNL d   1      29.814 -14.196   4.716  0.00  0.00     0.164 HD
ATOM     10  H   UNL d   1      29.416 -15.276   2.691  0.00  0.00     0.192 HD
BRANCH   8  11
ATOM     11  C   UNL d   1      28.560 -12.871   5.881  0.00  0.00     0.126 C 
BRANCH  11  12
ATOM     12  C   UNL d   1      29.559 -12.996   7.021  0.00  0.00     0.040 C 
BRANCH  12  13
ATOM     13  C   UNL d   1      29.240 -14.107   8.029  0.00  0.00     0.130 C 
BRANCH  13  14
ATOM     14  N   UNL d   1      28.792 -13.561   9.336  0.00  0.00    -0.352 N 
ATOM     15  C   UNL d   1      28.263 -14.293  10.399  0.00  0.00     0.108 A 
ATOM     16  C   UNL d   1      28.081 -13.433  11.438  0.00  0.00     0.106 A 
ATOM     17  N   UNL d   1      28.471 -12.200  10.983  0.00  0.00    -0.361 N 
ATOM     18  C   UNL d   1      28.884 -12.271   9.711  0.00  0.00     0.182 A 
ATOM     19  H   UNL d   1      28.453 -11.346  11.535  0.00  0.00     0.166 HD
ENDBRANCH  13  14
ENDBRANCH  12  13
ENDBRANCH  11  12
ENDBRANCH   8  11
ENDBRANCH   3   5
BRANCH   1  20
ATOM     20  C   UNL d   1      26.803 -15.981  -0.565  0.00  0.00     0.048 A 
ATOM     21  C   UNL d   1      26.950 -15.166  -1.707  0.00  0.00     0.045 A 
ATOM     22  C   UNL d   1      26.022 -15.206  -2.755  0.00  0.00     0.039 A 
ATOM     23  N   UNL d   1      24.962 -16.041  -2.714  0.00  0.00    -0.252 NA
ATOM     24  C   UNL d   1      24.786 -16.834  -1.646  0.00  0.00     0.068 A 
ATOM     25  C   UNL d   1      23.663 -17.664  -1.646  0.00  0.00     0.032 A 
ATOM     26  C   UNL d   1      25.675 -16.858  -0.538  0.00  0.00     0.008 A 
ATOM     27  C   UNL d   1      23.366 -18.526  -0.589  0.00  0.00     0.002 A 
ATOM     28  C   UNL d   1      24.215 -18.575   0.484  0.00  0.00     0.001 A 
ATOM     29  C   UNL d   1      25.344 -17.775   0.485  0.00  0.00     0.015 A 
BRANCH  22  30
ATOM     30  C   UNL d   1      26.095 -14.288  -3.972  0.00  0.00     0.029 C 
ATOM     31  C   UNL d   1      26.538 -15.086  -5.204  0.00  0.00     0.016 C 
ATOM     32  C   UNL d   1      24.778 -13.570  -4.273  0.00  0.00     0.016 C 
ENDBRANCH  22  30
ENDBRANCH   1  20
TORSDOF 7
ENDMDL
MODEL 3
REMARK VINA RESULT:    -7.971      0.700      3.285
REMARK INTER + INTRA:         -11.674
REMARK INTER:                 -10.059
REMARK INTRA:                  -1.616
REMARK CONF_INDEPENDENT:        2.088
REMARK UNBOUND:                -1.616
REMARK  7 active torsions:
REMARK  status: ('A' for Active; 'I' for Inactive)
REMARK    1  A    between atoms: C_2  and  C_4 
REMARK    2  A    between atoms: C_6  and  C_7 
REMARK       I    between atoms: C_7  and  N_9 
REMARK    3  A    between atoms: N_9  and  N_10 
REMARK       I    between atoms: N_10  and  C_11 
REMARK       I    between atoms: C_11  and  N_13 
REMARK    4  A    between atoms: N_13  and  C_14 
REMARK    5  A    between atoms: C_14  and  C_15 
REMARK    6  A    between atoms: C_15  and  C_16 
REMARK    7  A    between atoms: C_16  and  N_17 
ROOT
ATOM      1  C   UNL d   1      25.383 -14.482  -3.259  0.00  0.00     0.271 C 
ATOM      2  O   UNL d   1      24.780 -14.824  -4.285  0.00  0.00    -0.266 OA
ATOM      3  N   UNL d   1      25.611 -13.140  -3.008  0.00  0.00    -0.262 N 
ATOM      4  H   UNL d   1      25.976 -12.772  -2.155  0.00  0.00     0.190 HD
ENDROOT
BRANCH   3   5
ATOM      5  N   UNL d   1      25.244 -12.064  -3.846  0.00  0.00    -0.249 N 
ATOM      6  C   UNL d   1      25.758 -10.823  -3.484  0.00  0.00     0.334 C 
ATOM      7  O   UNL d   1      26.491 -10.674  -2.504  0.00  0.00    -0.246 OA
ATOM      8  N   UNL d   1      25.388  -9.779  -4.290  0.00  0.00    -0.342 N 
ATOM      9  H   UNL d   1      24.777  -9.985  -5.067  0.00  0.00     0.164 HD
ATOM     10  H   UNL d   1      24.627 -12.266  -4.622  0.00  0.00     0.192 HD
BRANCH   8  11
ATOM     11  C   UNL d   1      25.858  -8.414  -4.042  0.00  0.00     0.126 C 
BRANCH  11  12
ATOM     12  C   UNL d   1      26.137  -7.674  -5.342  0.00  0.00     0.040 C 
BRANCH  12  13
ATOM     13  C   UNL d   1      25.149  -7.979  -6.474  0.00  0.00     0.130 C 
BRANCH  13  14
ATOM     14  N   UNL d   1      23.823  -7.351  -6.240  0.00  0.00    -0.352 N 
ATOM     15  C   UNL d   1      23.178  -6.445  -7.082  0.00  0.00     0.108 A 
ATOM     16  C   UNL d   1      21.949  -6.198  -6.553  0.00  0.00     0.106 A 
ATOM     17  N   UNL d   1      21.881  -6.928  -5.394  0.00  0.00    -0.361 N 
ATOM     18  C   UNL d   1      23.015  -7.611  -5.194  0.00  0.00     0.182 A 
ATOM     19  H   UNL d   1      21.077  -6.952  -4.771  0.00  0.00     0.166 HD
ENDBRANCH  13  14
ENDBRANCH  12  13
ENDBRANCH  11  12
ENDBRANCH   8  11
ENDBRANCH   3   5
BRANCH   1  20
ATOM     20  C   UNL d   1      25.865 -15.558  -2.256  0.00  0.00     0.048 A 
ATOM     21  C   UNL d   1      27.263 -15.719  -2.169  0.00  0.00     0.045 A 
ATOM     22  C   UNL d   1      27.835 -16.678  -1.325  0.00  0.00     0.039 A 
ATOM     23  N   UNL d   1      27.064 -17.472  -0.551  0.00  0.00    -0.252 NA
ATOM     24  C   UNL d   1      25.729 -17.350  -0.603  0.00  0.00     0.068 A 
ATOM     25  C   UNL d   1      24.978 -18.208   0.204  0.00  0.00     0.032 A 
ATOM     26  C   UNL d   1      25.064 -16.406  -1.430  0.00  0.00     0.008 A 
ATOM     27  C   UNL d   1      23.583 -18.184   0.231  0.00  0.00     0.002 A 
ATOM     28  C   UNL d   1      22.921 -17.274  -0.550  0.00  0.00     0.001 A 
ATOM     29  C   UNL d   1      23.655 -16.403  -1.335  0.00  0.00     0.015 A 
BRANCH  22  30
ATOM     30  C   UNL d   1      29.337 -16.944  -1.257  0.00  0.00     0.029 C 
ATOM     31  C   UNL d   1      29.919 -17.028  -2.673  0.00  0.00     0.016 C 
ATOM     32  C   UNL d   1      30.105 -15.895  -0.450  0.00  0.00     0.016 C 
ENDBRANCH  22  30
ENDBRANCH   1  20
TORSDOF 7
ENDMDL
MODEL 4
REMARK VINA RESULT:    -7.845      6.412     10.210
REMARK INTER + INTRA:         -11.580
REMARK INTER:                  -9.933
REMARK INTRA:                  -1.647
REMARK CONF_INDEPENDENT:        2.088
REMARK UNBOUND:                -1.647
REMARK  7 active torsions:
REMARK  status: ('A' for Active; 'I' for Inactive)
REMARK    1  A    between atoms: C_2  and  C_4 
REMARK    2  A    between atoms: C_6  and  C_7 
REMARK       I    between atoms: C_7  and  N_9 
REMARK    3  A    between atoms: N_9  and  N_10 
REMARK       I    between atoms: N_10  and  C_11 
REMARK       I    between atoms: C_11  and  N_13 
REMARK    4  A    between atoms: N_13  and  C_14 
REMARK    5  A    between atoms: C_14  and  C_15 
REMARK    6  A    between atoms: C_15  and  C_16 
REMARK    7  A    between atoms: C_16  and  N_17 
ROOT
ATOM      1  C   UNL d   1      27.695 -15.496   0.517  0.00  0.00     0.271 C 
ATOM      2  O   UNL d   1      28.801 -15.988   0.256  0.00  0.00    -0.266 OA
ATOM      3  N   UNL d   1      27.477 -14.906   1.750  0.00  0.00    -0.262 N 
ATOM      4  H   UNL d   1      26.665 -14.381   1.997  0.00  0.00     0.190 HD
ENDROOT
BRANCH   3   5
ATOM      5  N   UNL d   1      28.408 -14.825   2.809  0.00  0.00    -0.249 N 
ATOM      6  C   UNL d   1      27.945 -14.203   3.965  0.00  0.00     0.334 C 
ATOM      7  O   UNL d   1      26.799 -13.761   4.061  0.00  0.00    -0.246 OA
ATOM      8  N   UNL d   1      28.856 -14.114   4.984  0.00  0.00    -0.342 N 
ATOM      9  H   UNL d   1      29.777 -14.492   4.821  0.00  0.00     0.164 HD
ATOM     10  H   UNL d   1      29.334 -15.199   2.646  0.00  0.00     0.192 HD
BRANCH   8  11
ATOM     11  C   UNL d   1      28.513 -13.494   6.267  0.00  0.00     0.126 C 
BRANCH  11  12
ATOM     12  C   UNL d   1      29.758 -13.114   7.055  0.00  0.00     0.040 C 
BRANCH  12  13
ATOM     13  C   UNL d   1      30.098 -14.066   8.207  0.00  0.00     0.130 C 
BRANCH  13  14
ATOM     14  N   UNL d   1      29.220 -13.850   9.386  0.00  0.00    -0.352 N 
ATOM     15  C   UNL d   1      28.862 -12.619   9.935  0.00  0.00     0.108 A 
ATOM     16  C   UNL d   1      27.969 -12.860  10.933  0.00  0.00     0.106 A 
ATOM     17  N   UNL d   1      27.823 -14.221  10.992  0.00  0.00    -0.361 N 
ATOM     18  C   UNL d   1      28.589 -14.823  10.072  0.00  0.00     0.182 A 
ATOM     19  H   UNL d   1      27.214 -14.712  11.643  0.00  0.00     0.166 HD
ENDBRANCH  13  14
ENDBRANCH  12  13
ENDBRANCH  11  12
ENDBRANCH   8  11
ENDBRANCH   3   5
BRANCH   1  20
ATOM     20  C   UNL d   1      26.569 -15.531  -0.544  0.00  0.00     0.048 A 
ATOM     21  C   UNL d   1      25.594 -16.532  -0.356  0.00  0.00     0.045 A 
ATOM     22  C   UNL d   1      24.536 -16.697  -1.257  0.00  0.00     0.039 A 
ATOM     23  N   UNL d   1      24.404 -15.889  -2.331  0.00  0.00    -0.252 NA
ATOM     24  C   UNL d   1      25.310 -14.923  -2.546  0.00  0.00     0.068 A 
ATOM     25  C   UNL d   1      25.138 -14.127  -3.682  0.00  0.00     0.032 A 
ATOM     26  C   UNL d   1      26.414 -14.685  -1.685  0.00  0.00     0.008 A 
ATOM     27  C   UNL d   1      26.018 -13.098  -4.017  0.00  0.00     0.002 A 
ATOM     28  C   UNL d   1      27.083 -12.843  -3.196  0.00  0.00     0.001 A 
ATOM     29  C   UNL d   1      27.251 -13.608  -2.055  0.00  0.00     0.015 A 
BRANCH  22  30
ATOM     30  C   UNL d   1      23.503 -17.815  -1.140  0.00  0.00     0.029 C 
ATOM     31  C   UNL d   1      24.050 -18.943  -0.257  0.00  0.00     0.016 C 
ATOM     32  C   UNL d   1      22.155 -17.344  -0.590  0.00  0.00     0.016 C 
ENDBRANCH  22  30
ENDBRANCH   1  20
TORSDOF 7
ENDMDL
MODEL 5
REMARK VINA RESULT:    -7.657      2.262      3.617
REMARK INTER + INTRA:         -11.323
REMARK INTER:                  -9.745
REMARK INTRA:                  -1.578
REMARK CONF_INDEPENDENT:        2.088
REMARK UNBOUND:                -1.578
REMARK  7 active torsions:
REMARK  status: ('A' for Active; 'I' for Inactive)
REMARK    1  A    between atoms: C_2  and  C_4 
REMARK    2  A    between atoms: C_6  and  C_7 
REMARK       I    between atoms: C_7  and  N_9 
REMARK    3  A    between atoms: N_9  and  N_10 
REMARK       I    between atoms: N_10  and  C_11 
REMARK       I    between atoms: C_11  and  N_13 
REMARK    4  A    between atoms: N_13  and  C_14 
REMARK    5  A    between atoms: C_14  and  C_15 
REMARK    6  A    between atoms: C_15  and  C_16 
REMARK    7  A    between atoms: C_16  and  N_17 
ROOT
ATOM      1  C   UNL d   1      25.531 -14.965  -3.758  0.00  0.00     0.271 C 
ATOM      2  O   UNL d   1      25.521 -15.440  -4.901  0.00  0.00    -0.266 OA
ATOM      3  N   UNL d   1      25.323 -13.609  -3.573  0.00  0.00    -0.262 N 
ATOM      4  H   UNL d   1      25.193 -13.167  -2.687  0.00  0.00     0.190 HD
ENDROOT
BRANCH   3   5
ATOM      5  N   UNL d   1      25.121 -12.653  -4.591  0.00  0.00    -0.249 N 
ATOM      6  C   UNL d   1      25.756 -11.430  -4.397  0.00  0.00     0.334 C 
ATOM      7  O   UNL d   1      26.455 -11.201  -3.409  0.00  0.00    -0.246 OA
ATOM      8  N   UNL d   1      25.546 -10.500  -5.381  0.00  0.00    -0.342 N 
ATOM      9  H   UNL d   1      24.952 -10.764  -6.153  0.00  0.00     0.164 HD
ATOM     10  H   UNL d   1      24.521 -12.913  -5.364  0.00  0.00     0.192 HD
BRANCH   8  11
ATOM     11  C   UNL d   1      26.157  -9.169  -5.322  0.00  0.00     0.126 C 
BRANCH  11  12
ATOM     12  C   UNL d   1      27.483  -9.129  -6.068  0.00  0.00     0.040 C 
BRANCH  12  13
ATOM     13  C   UNL d   1      27.429  -9.692  -7.493  0.00  0.00     0.130 C 
BRANCH  13  14
ATOM     14  N   UNL d   1      27.962 -11.077  -7.565  0.00  0.00    -0.352 N 
ATOM     15  C   UNL d   1      28.159 -11.943  -6.491  0.00  0.00     0.108 A 
ATOM     16  C   UNL d   1      28.561 -13.140  -6.998  0.00  0.00     0.106 A 
ATOM     17  N   UNL d   1      28.629 -12.973  -8.356  0.00  0.00    -0.361 N 
ATOM     18  C   UNL d   1      28.285 -11.725  -8.701  0.00  0.00     0.182 A 
ATOM     19  H   UNL d   1      28.900 -13.698  -9.017  0.00  0.00     0.166 HD
ENDBRANCH  13  14
ENDBRANCH  12  13
ENDBRANCH  11  12
ENDBRANCH   8  11
ENDBRANCH   3   5
BRANCH   1  20
ATOM     20  C   UNL d   1      25.763 -15.894  -2.542  0.00  0.00     0.048 A 
ATOM     21  C   UNL d   1      24.598 -16.458  -1.982  0.00  0.00     0.045 A 
ATOM     22  C   UNL d   1      24.660 -17.292  -0.860  0.00  0.00     0.039 A 
ATOM     23  N   UNL d   1      25.842 -17.599  -0.285  0.00  0.00    -0.252 NA
ATOM     24  C   UNL d   1      26.975 -17.084  -0.787  0.00  0.00     0.068 A 
ATOM     25  C   UNL d   1      28.169 -17.418  -0.144  0.00  0.00     0.032 A 
ATOM     26  C   UNL d   1      27.006 -16.229  -1.921  0.00  0.00     0.008 A 
ATOM     27  C   UNL d   1      29.409 -16.939  -0.566  0.00  0.00     0.002 A 
ATOM     28  C   UNL d   1      29.465 -16.122  -1.664  0.00  0.00     0.001 A 
ATOM     29  C   UNL d   1      28.292 -15.804  -2.325  0.00  0.00     0.015 A 
BRANCH  22  30
ATOM     30  C   UNL d   1      23.421 -17.860  -0.171  0.00  0.00     0.029 C 
ATOM     31  C   UNL d   1      22.192 -17.012  -0.520  0.00  0.00     0.016 C 
ATOM     32  C   UNL d   1      23.148 -19.325  -0.520  0.00  0.00     0.016 C 
ENDBRANCH  22  30
ENDBRANCH   1  20
TORSDOF 7
ENDMDL
MODEL 6
REMARK VINA RESULT:    -7.609      5.820      9.972
REMARK INTER + INTRA:         -11.375
REMARK INTER:                  -9.697
REMARK INTRA:                  -1.678
REMARK CONF_INDEPENDENT:        2.088
REMARK UNBOUND:                -1.678
REMARK  7 active torsions:
REMARK  status: ('A' for Active; 'I' for Inactive)
REMARK    1  A    between atoms: C_2  and  C_4 
REMARK    2  A    between atoms: C_6  and  C_7 
REMARK       I    between atoms: C_7  and  N_9 
REMARK    3  A    between atoms: N_9  and  N_10 
REMARK       I    between atoms: N_10  and  C_11 
REMARK       I    between atoms: C_11  and  N_13 
REMARK    4  A    between atoms: N_13  and  C_14 
REMARK    5  A    between atoms: C_14  and  C_15 
REMARK    6  A    between atoms: C_15  and  C_16 
REMARK    7  A    between atoms: C_16  and  N_17 
ROOT
ATOM      1  C   UNL d   1      28.778 -16.148  -1.291  0.00  0.00     0.271 C 
ATOM      2  O   UNL d   1      29.536 -17.103  -1.071  0.00  0.00    -0.266 OA
ATOM      3  N   UNL d   1      28.341 -15.360  -0.240  0.00  0.00    -0.262 N 
ATOM      4  H   UNL d   1      27.834 -14.506  -0.340  0.00  0.00     0.190 HD
ENDROOT
BRANCH   3   5
ATOM      5  N   UNL d   1      28.650 -15.547   1.124  0.00  0.00    -0.249 N 
ATOM      6  C   UNL d   1      28.052 -14.647   2.001  0.00  0.00     0.334 C 
ATOM      7  O   UNL d   1      27.297 -13.753   1.614  0.00  0.00    -0.246 OA
ATOM      8  N   UNL d   1      28.365 -14.823   3.323  0.00  0.00    -0.342 N 
ATOM      9  H   UNL d   1      29.000 -15.573   3.555  0.00  0.00     0.164 HD
ATOM     10  H   UNL d   1      29.289 -16.295   1.360  0.00  0.00     0.192 HD
BRANCH   8  11
ATOM     11  C   UNL d   1      27.806 -13.960   4.366  0.00  0.00     0.126 C 
BRANCH  11  12
ATOM     12  C   UNL d   1      28.154 -14.467   5.758  0.00  0.00     0.040 C 
BRANCH  12  13
ATOM     13  C   UNL d   1      29.344 -13.758   6.415  0.00  0.00     0.130 C 
BRANCH  13  14
ATOM     14  N   UNL d   1      28.954 -13.058   7.666  0.00  0.00    -0.352 N 
ATOM     15  C   UNL d   1      28.793 -13.640   8.923  0.00  0.00     0.108 A 
ATOM     16  C   UNL d   1      28.536 -12.640   9.808  0.00  0.00     0.106 A 
ATOM     17  N   UNL d   1      28.515 -11.481   9.076  0.00  0.00    -0.361 N 
ATOM     18  C   UNL d   1      28.750 -11.731   7.781  0.00  0.00     0.182 A 
ATOM     19  H   UNL d   1      28.347 -10.554   9.462  0.00  0.00     0.166 HD
ENDBRANCH  13  14
ENDBRANCH  12  13
ENDBRANCH  11  12
ENDBRANCH   8  11
ENDBRANCH   3   5
BRANCH   1  20
ATOM     20  C   UNL d   1      28.337 -15.835  -2.741  0.00  0.00     0.048 A 
ATOM     21  C   UNL d   1      29.258 -16.202  -3.744  0.00  0.00     0.045 A 
ATOM     22  C   UNL d   1      29.000 -15.949  -5.096  0.00  0.00     0.039 A 
ATOM     23  N   UNL d   1      27.851 -15.358  -5.487  0.00  0.00    -0.252 NA
ATOM     24  C   UNL d   1      26.948 -14.994  -4.564  0.00  0.00     0.068 A 
ATOM     25  C   UNL d   1      25.784 -14.370  -5.020  0.00  0.00     0.032 A 
ATOM     26  C   UNL d   1      27.126 -15.211  -3.172  0.00  0.00     0.008 A 
ATOM     27  C   UNL d   1      24.777 -13.937  -4.157  0.00  0.00     0.002 A 
ATOM     28  C   UNL d   1      24.922 -14.146  -2.812  0.00  0.00     0.001 A 
ATOM     29  C   UNL d   1      26.059 -14.786  -2.350  0.00  0.00     0.015 A 
BRANCH  22  30
ATOM     30  C   UNL d   1      29.999 -16.254  -6.210  0.00  0.00     0.029 C 
ATOM     31  C   UNL d   1      31.195 -15.299  -6.118  0.00  0.00     0.016 C 
ATOM     32  C   UNL d   1      30.498 -17.701  -6.201  0.00  0.00     0.016 C 
ENDBRANCH  22  30
ENDBRANCH   1  20
TORSDOF 7
ENDMDL
MODEL 7
REMARK VINA RESULT:    -7.472      2.346      4.894
REMARK INTER + INTRA:         -11.176
REMARK INTER:                  -9.560
REMARK INTRA:                  -1.615
REMARK CONF_INDEPENDENT:        2.088
REMARK UNBOUND:                -1.615
REMARK  7 active torsions:
REMARK  status: ('A' for Active; 'I' for Inactive)
REMARK    1  A    between atoms: C_2  and  C_4 
REMARK    2  A    between atoms: C_6  and  C_7 
REMARK       I    between atoms: C_7  and  N_9 
REMARK    3  A    between atoms: N_9  and  N_10 
REMARK       I    between atoms: N_10  and  C_11 
REMARK       I    between atoms: C_11  and  N_13 
REMARK    4  A    between atoms: N_13  and  C_14 
REMARK    5  A    between atoms: C_14  and  C_15 
REMARK    6  A    between atoms: C_15  and  C_16 
REMARK    7  A    between atoms: C_16  and  N_17 
ROOT
ATOM      1  C   UNL d   1      25.517 -14.844  -3.487  0.00  0.00     0.271 C 
ATOM      2  O   UNL d   1      25.155 -15.316  -4.572  0.00  0.00    -0.266 OA
ATOM      3  N   UNL d   1      25.516 -13.473  -3.297  0.00  0.00    -0.262 N 
ATOM      4  H   UNL d   1      25.673 -13.017  -2.422  0.00  0.00     0.190 HD
ENDROOT
BRANCH   3   5
ATOM      5  N   UNL d   1      25.160 -12.501  -4.257  0.00  0.00    -0.249 N 
ATOM      6  C   UNL d   1      25.901 -11.324  -4.219  0.00  0.00     0.334 C 
ATOM      7  O   UNL d   1      26.811 -11.144  -3.407  0.00  0.00    -0.246 OA
ATOM      8  N   UNL d   1      25.543 -10.378  -5.143  0.00  0.00    -0.342 N 
ATOM      9  H   UNL d   1      24.780 -10.600  -5.765  0.00  0.00     0.164 HD
ATOM     10  H   UNL d   1      24.392 -12.719  -4.879  0.00  0.00     0.192 HD
BRANCH   8  11
ATOM     11  C   UNL d   1      26.238  -9.091  -5.231  0.00  0.00     0.126 C 
BRANCH  11  12
ATOM     12  C   UNL d   1      27.543  -9.211  -6.004  0.00  0.00     0.040 C 
BRANCH  12  13
ATOM     13  C   UNL d   1      27.397  -9.797  -7.413  0.00  0.00     0.130 C 
BRANCH  13  14
ATOM     14  N   UNL d   1      27.955 -11.171  -7.506  0.00  0.00    -0.352 N 
ATOM     15  C   UNL d   1      28.056 -12.093  -6.465  0.00  0.00     0.108 A 
ATOM     16  C   UNL d   1      28.524 -13.257  -6.993  0.00  0.00     0.106 A 
ATOM     17  N   UNL d   1      28.727 -13.015  -8.326  0.00  0.00    -0.361 N 
ATOM     18  C   UNL d   1      28.400 -11.753  -8.636  0.00  0.00     0.182 A 
ATOM     19  H   UNL d   1      29.074 -13.700  -8.994  0.00  0.00     0.166 HD
ENDBRANCH  13  14
ENDBRANCH  12  13
ENDBRANCH  11  12
ENDBRANCH   8  11
ENDBRANCH   3   5
BRANCH   1  20
ATOM     20  C   UNL d   1      25.956 -15.791  -2.345  0.00  0.00     0.048 A 
ATOM     21  C   UNL d   1      27.349 -15.893  -2.146  0.00  0.00     0.045 A 
ATOM     22  C   UNL d   1      27.885 -16.738  -1.167  0.00  0.00     0.039 A 
ATOM     23  N   UNL d   1      27.084 -17.473  -0.368  0.00  0.00    -0.252 NA
ATOM     24  C   UNL d   1      25.753 -17.405  -0.523  0.00  0.00     0.068 A 
ATOM     25  C   UNL d   1      24.970 -18.200   0.318  0.00  0.00     0.032 A 
ATOM     26  C   UNL d   1      25.122 -16.576  -1.489  0.00  0.00     0.008 A 
ATOM     27  C   UNL d   1      23.577 -18.223   0.247  0.00  0.00     0.002 A 
ATOM     28  C   UNL d   1      22.947 -17.424  -0.670  0.00  0.00     0.001 A 
ATOM     29  C   UNL d   1      23.710 -16.613  -1.491  0.00  0.00     0.015 A 
BRANCH  22  30
ATOM     30  C   UNL d   1      29.385 -16.942  -0.969  0.00  0.00     0.029 C 
ATOM     31  C   UNL d   1      30.092 -16.985  -2.329  0.00  0.00     0.016 C 
ATOM     32  C   UNL d   1      30.034 -15.871  -0.089  0.00  0.00     0.016 C 
ENDBRANCH  22  30
ENDBRANCH   1  20
TORSDOF 7
ENDMDL
MODEL 8
REMARK VINA RESULT:    -7.326      8.082     10.929
REMARK INTER + INTRA:         -11.091
REMARK INTER:                  -9.414
REMARK INTRA:                  -1.677
REMARK CONF_INDEPENDENT:        2.088
REMARK UNBOUND:                -1.677
REMARK  7 active torsions:
REMARK  status: ('A' for Active; 'I' for Inactive)
REMARK    1  A    between atoms: C_2  and  C_4 
REMARK    2  A    between atoms: C_6  and  C_7 
REMARK       I    between atoms: C_7  and  N_9 
REMARK    3  A    between atoms: N_9  and  N_10 
REMARK       I    between atoms: N_10  and  C_11 
REMARK       I    between atoms: C_11  and  N_13 
REMARK    4  A    between atoms: N_13  and  C_14 
REMARK    5  A    between atoms: C_14  and  C_15 
REMARK    6  A    between atoms: C_15  and  C_16 
REMARK    7  A    between atoms: C_16  and  N_17 
ROOT
ATOM      1  C   UNL d   1      29.346 -14.166   5.764  0.00  0.00     0.271 C 
ATOM      2  O   UNL d   1      30.087 -15.148   5.899  0.00  0.00    -0.266 OA
ATOM      3  N   UNL d   1      28.644 -13.988   4.583  0.00  0.00    -0.262 N 
ATOM      4  H   UNL d   1      27.938 -13.299   4.437  0.00  0.00     0.190 HD
ENDROOT
BRANCH   3   5
ATOM      5  N   UNL d   1      28.704 -14.825   3.448  0.00  0.00    -0.249 N 
ATOM      6  C   UNL d   1      27.780 -14.540   2.447  0.00  0.00     0.334 C 
ATOM      7  O   UNL d   1      26.970 -13.616   2.541  0.00  0.00    -0.246 OA
ATOM      8  N   UNL d   1      27.831 -15.363   1.353  0.00  0.00    -0.342 N 
ATOM      9  H   UNL d   1      28.517 -16.103   1.358  0.00  0.00     0.164 HD
ATOM     10  H   UNL d   1      29.388 -15.571   3.452  0.00  0.00     0.192 HD
BRANCH   8  11
ATOM     11  C   UNL d   1      26.928 -15.182   0.214  0.00  0.00     0.126 C 
BRANCH  11  12
ATOM     12  C   UNL d   1      26.853 -16.436  -0.645  0.00  0.00     0.040 C 
BRANCH  12  13
ATOM     13  C   UNL d   1      25.618 -16.515  -1.551  0.00  0.00     0.130 C 
BRANCH  13  14
ATOM     14  N   UNL d   1      24.493 -17.233  -0.897  0.00  0.00    -0.352 N 
ATOM     15  C   UNL d   1      23.155 -16.840  -0.892  0.00  0.00     0.108 A 
ATOM     16  C   UNL d   1      22.442 -17.823  -0.277  0.00  0.00     0.106 A 
ATOM     17  N   UNL d   1      23.355 -18.772   0.104  0.00  0.00    -0.361 N 
ATOM     18  C   UNL d   1      24.594 -18.412  -0.253  0.00  0.00     0.182 A 
ATOM     19  H   UNL d   1      23.125 -19.636   0.590  0.00  0.00     0.166 HD
ENDBRANCH  13  14
ENDBRANCH  12  13
ENDBRANCH  11  12
ENDBRANCH   8  11
ENDBRANCH   3   5
BRANCH   1  20
ATOM     20  C   UNL d   1      29.199 -13.149   6.921  0.00  0.00     0.048 A 
ATOM     21  C   UNL d   1      28.844 -13.703   8.169  0.00  0.00     0.045 A 
ATOM     22  C   UNL d   1      28.647 -12.895   9.294  0.00  0.00     0.039 A 
ATOM     23  N   UNL d   1      28.806 -11.556   9.227  0.00  0.00    -0.252 NA
ATOM     24  C   UNL d   1      29.145 -10.989   8.059  0.00  0.00     0.068 A 
ATOM     25  C   UNL d   1      29.280  -9.599   8.039  0.00  0.00     0.032 A 
ATOM     26  C   UNL d   1      29.364 -11.731   6.867  0.00  0.00     0.008 A 
ATOM     27  C   UNL d   1      29.618  -8.894   6.883  0.00  0.00     0.002 A 
ATOM     28  C   UNL d   1      29.845  -9.589   5.725  0.00  0.00     0.001 A 
ATOM     29  C   UNL d   1      29.739 -10.968   5.738  0.00  0.00     0.015 A 
BRANCH  22  30
ATOM     30  C   UNL d   1      28.185 -13.439  10.644  0.00  0.00     0.029 C 
ATOM     31  C   UNL d   1      28.793 -14.825  10.886  0.00  0.00     0.016 C 
ATOM     32  C   UNL d   1      28.524 -12.519  11.820  0.00  0.00     0.016 C 
ENDBRANCH  22  30
ENDBRANCH   1  20
TORSDOF 7
ENDMDL
MODEL 9
REMARK VINA RESULT:    -7.144      2.776      4.577
REMARK INTER + INTRA:         -11.244
REMARK INTER:                  -9.232
REMARK INTRA:                  -2.013
REMARK CONF_INDEPENDENT:        2.088
REMARK UNBOUND:                -2.013
REMARK  7 active torsions:
REMARK  status: ('A' for Active; 'I' for Inactive)
REMARK    1  A    between atoms: C_2  and  C_4 
REMARK    2  A    between atoms: C_6  and  C_7 
REMARK       I    between atoms: C_7  and  N_9 
REMARK    3  A    between atoms: N_9  and  N_10 
REMARK       I    between atoms: N_10  and  C_11 
REMARK       I    between atoms: C_11  and  N_13 
REMARK    4  A    between atoms: N_13  and  C_14 
REMARK    5  A    between atoms: C_14  and  C_15 
REMARK    6  A    between atoms: C_15  and  C_16 
REMARK    7  A    between atoms: C_16  and  N_17 
ROOT
ATOM      1  C   UNL d   1      25.667 -15.152  -3.757  0.00  0.00     0.271 C 
ATOM      2  O   UNL d   1      26.133 -15.483  -4.855  0.00  0.00    -0.266 OA
ATOM      3  N   UNL d   1      24.990 -13.950  -3.630  0.00  0.00    -0.262 N 
ATOM      4  H   UNL d   1      24.481 -13.665  -2.820  0.00  0.00     0.190 HD
ENDROOT
BRANCH   3   5
ATOM      5  N   UNL d   1      24.788 -12.998  -4.652  0.00  0.00    -0.249 N 
ATOM      6  C   UNL d   1      25.914 -12.267  -5.019  0.00  0.00     0.334 C 
ATOM      7  O   UNL d   1      27.014 -12.444  -4.493  0.00  0.00    -0.246 OA
ATOM      8  N   UNL d   1      25.710 -11.334  -6.001  0.00  0.00    -0.342 N 
ATOM      9  H   UNL d   1      24.776 -11.245  -6.373  0.00  0.00     0.164 HD
ATOM     10  H   UNL d   1      23.851 -12.903  -5.023  0.00  0.00     0.192 HD
BRANCH   8  11
ATOM     11  C   UNL d   1      26.802 -10.494  -6.499  0.00  0.00     0.126 C 
BRANCH  11  12
ATOM     12  C   UNL d   1      27.647 -11.228  -7.531  0.00  0.00     0.040 C 
BRANCH  12  13
ATOM     13  C   UNL d   1      29.061 -11.585  -7.059  0.00  0.00     0.130 C 
BRANCH  13  14
ATOM     14  N   UNL d   1      29.158 -12.999  -6.614  0.00  0.00    -0.352 N 
ATOM     15  C   UNL d   1      30.299 -13.634  -6.124  0.00  0.00     0.108 A 
ATOM     16  C   UNL d   1      29.936 -14.886  -5.735  0.00  0.00     0.106 A 
ATOM     17  N   UNL d   1      28.601 -15.001  -6.022  0.00  0.00    -0.361 N 
ATOM     18  C   UNL d   1      28.132 -13.871  -6.568  0.00  0.00     0.182 A 
ATOM     19  H   UNL d   1      28.037 -15.829  -5.842  0.00  0.00     0.166 HD
ENDBRANCH  13  14
ENDBRANCH  12  13
ENDBRANCH  11  12
ENDBRANCH   8  11
ENDBRANCH   3   5
BRANCH   1  20
ATOM     20  C   UNL d   1      25.831 -16.089  -2.537  0.00  0.00     0.048 A 
ATOM     21  C   UNL d   1      24.629 -16.570  -1.979  0.00  0.00     0.045 A 
ATOM     22  C   UNL d   1      24.630 -17.403  -0.853  0.00  0.00     0.039 A 
ATOM     23  N   UNL d   1      25.787 -17.786  -0.273  0.00  0.00    -0.252 NA
ATOM     24  C   UNL d   1      26.953 -17.352  -0.773  0.00  0.00     0.068 A 
ATOM     25  C   UNL d   1      28.120 -17.764  -0.124  0.00  0.00     0.032 A 
ATOM     26  C   UNL d   1      27.047 -16.506  -1.910  0.00  0.00     0.008 A 
ATOM     27  C   UNL d   1      29.391 -17.371  -0.544  0.00  0.00     0.002 A 
ATOM     28  C   UNL d   1      29.506 -16.565  -1.645  0.00  0.00     0.001 A 
ATOM     29  C   UNL d   1      28.359 -16.170  -2.311  0.00  0.00     0.015 A 
BRANCH  22  30
ATOM     30  C   UNL d   1      23.354 -17.883  -0.166  0.00  0.00     0.029 C 
ATOM     31  C   UNL d   1      22.186 -16.955  -0.523  0.00  0.00     0.016 C 
ATOM     32  C   UNL d   1      22.983 -19.327  -0.510  0.00  0.00     0.016 C 
ENDBRANCH  22  30
ENDBRANCH   1  20
TORSDOF 7
ENDMDL
