MODEL 1
REMARK VINA RESULT:    -8.153      0.000      0.000
REMARK INTER + INTRA:         -14.186
REMARK INTER:                 -12.627
REMARK INTRA:                  -1.559
REMARK CONF_INDEPENDENT:        4.474
REMARK UNBOUND:                -1.559
REMARK  15 active torsions:
REMARK  status: ('A' for Active; 'I' for Inactive)
REMARK    1  A    between atoms: C_2  and  C_3 
REMARK    2  A    between atoms: C_3  and  C_4 
REMARK    3  A    between atoms: C_4  and  O_5 
REMARK    4  A    between atoms: O_5  and  C_6 
REMARK    5  A    between atoms: C_9  and  C_10 
REMARK    6  A    between atoms: C_11  and  C_12 
REMARK    7  A    between atoms: C_12  and  O_14 
REMARK    8  A    between atoms: O_14  and  C_15 
REMARK    9  A    between atoms: C_15  and  C_16 
REMARK   10  A    between atoms: C_16  and  C_18 
REMARK   11  A    between atoms: C_22  and  C_23 
REMARK   12  A    between atoms: C_23  and  O_25 
REMARK   13  A    between atoms: O_25  and  C_26 
REMARK   14  A    between atoms: C_31  and  O_32 
REMARK   15  A    between atoms: O_32  and  C_33 
ROOT
ATOM      1  C   UNL d   1      31.579 -17.728  -0.292  0.00  0.00     0.283 C 
ATOM      2  O   UNL d   1      32.084 -16.787   0.300  0.00  0.00    -0.260 OA
ENDROOT
BRANCH   1   3
ATOM      3  C   UNL d   1      30.135 -17.820  -0.646  0.00  0.00     0.083 C 
ATOM      4  C   UNL d   1      29.220 -16.935  -0.192  0.00  0.00     0.017 C 
BRANCH   4   5
ATOM      5  C   UNL d   1      27.757 -16.987  -0.453  0.00  0.00    -0.033 A 
ATOM      6  C   UNL d   1      26.853 -17.502   0.482  0.00  0.00     0.014 A 
ATOM      7  C   UNL d   1      25.482 -17.660   0.162  0.00  0.00     0.040 A 
ATOM      8  C   UNL d   1      24.941 -17.231  -1.070  0.00  0.00     0.102 A 
ATOM      9  C   UNL d   1      25.848 -16.635  -1.992  0.00  0.00     0.102 A 
ATOM     10  C   UNL d   1      27.218 -16.549  -1.664  0.00  0.00     0.051 A 
BRANCH   8  11
ATOM     11  O   UNL d   1      23.548 -17.282  -1.071  0.00  0.00    -0.348 OA
BRANCH  11  12
ATOM     12  C   UNL d   1      22.879 -18.058  -0.080  0.00  0.00     0.176 C 
BRANCH  12  13
ATOM     13  C   UNL d   1      22.014 -19.220  -0.533  0.00  0.00     0.026 C 
BRANCH  13  14
ATOM     14  C   UNL d   1      20.601 -18.676  -0.892  0.00  0.00    -0.002 C 
ATOM     15  C   UNL d   1      19.561 -19.712  -0.557  0.00  0.00     0.005 C 
ENDBRANCH  13  14
ENDBRANCH  12  13
ENDBRANCH  11  12
ENDBRANCH   8  11
BRANCH   9  16
ATOM     16  O   UNL d   1      25.693 -16.016  -3.234  0.00  0.00    -0.349 OA
BRANCH  16  17
ATOM     17  C   UNL d   1      25.499 -14.652  -3.102  0.00  0.00     0.171 C 
ATOM     18  C   UNL d   1      26.589 -13.629  -2.983  0.00  0.00     0.034 C 
ENDBRANCH  16  17
ENDBRANCH   9  16
ENDBRANCH   4   5
ENDBRANCH   1   3
BRANCH   1  19
ATOM     19  O   UNL d   1      32.251 -18.828  -0.741  0.00  0.00    -0.310 OA
BRANCH  19  20
ATOM     20  C   UNL d   1      32.194 -19.984   0.127  0.00  0.00     0.264 C 
BRANCH  20  21
ATOM     21  C   UNL d   1      32.931 -19.755   1.472  0.00  0.00     0.200 C 
ATOM     22  O   UNL d   1      33.964 -19.078   1.463  0.00  0.00    -0.288 OA
BRANCH  21  23
ATOM     23  C   UNL d   1      32.412 -20.348   2.731  0.00  0.00     0.088 A 
ATOM     24  N   UNL d   1      31.150 -20.863   2.937  0.00  0.00    -0.356 N 
ATOM     25  C   UNL d   1      31.003 -21.337   4.224  0.00  0.00     0.022 A 
ATOM     26  H   UNL d   1      30.416 -20.900   2.242  0.00  0.00     0.166 HD
ATOM     27  C   UNL d   1      29.724 -21.945   4.687  0.00  0.00     0.069 C 
ATOM     28  C   UNL d   1      32.189 -21.134   4.916  0.00  0.00     0.070 A 
ATOM     29  C   UNL d   1      33.086 -20.510   3.957  0.00  0.00    -0.013 A 
ATOM     30  C   UNL d   1      34.497 -20.088   4.228  0.00  0.00     0.052 C 
BRANCH  28  31
ATOM     31  C   UNL d   1      32.478 -21.477   6.340  0.00  0.00     0.295 C 
ATOM     32  O   UNL d   1      31.653 -21.950   7.096  0.00  0.00    -0.259 OA
BRANCH  31  33
ATOM     33  O   UNL d   1      33.776 -21.219   6.735  0.00  0.00    -0.318 OA
BRANCH  33  34
ATOM     34  C   UNL d   1      34.428 -22.334   7.374  0.00  0.00     0.174 C 
ATOM     35  C   UNL d   1      34.157 -23.608   6.588  0.00  0.00     0.034 C 
ENDBRANCH  33  34
ENDBRANCH  31  33
ENDBRANCH  28  31
ENDBRANCH  21  23
ENDBRANCH  20  21
ENDBRANCH  19  20
ENDBRANCH   1  19
TORSDOF 15
ENDMDL
MODEL 2
REMARK VINA RESULT:    -8.133      4.770      6.429
REMARK INTER + INTRA:         -15.128
REMARK INTER:                 -12.607
REMARK INTRA:                  -2.520
REMARK CONF_INDEPENDENT:        4.474
REMARK UNBOUND:                -2.520
REMARK  15 active torsions:
REMARK  status: ('A' for Active; 'I' for Inactive)
REMARK    1  A    between atoms: C_2  and  C_3 
REMARK    2  A    between atoms: C_3  and  C_4 
REMARK    3  A    between atoms: C_4  and  O_5 
REMARK    4  A    between atoms: O_5  and  C_6 
REMARK    5  A    between atoms: C_9  and  C_10 
REMARK    6  A    between atoms: C_11  and  C_12 
REMARK    7  A    between atoms: C_12  and  O_14 
REMARK    8  A    between atoms: O_14  and  C_15 
REMARK    9  A    between atoms: C_15  and  C_16 
REMARK   10  A    between atoms: C_16  and  C_18 
REMARK   11  A    between atoms: C_22  and  C_23 
REMARK   12  A    between atoms: C_23  and  O_25 
REMARK   13  A    between atoms: O_25  and  C_26 
REMARK   14  A    between atoms: C_31  and  O_32 
REMARK   15  A    between atoms: O_32  and  C_33 
ROOT
ATOM      1  C   UNL d   1      29.854 -16.010   0.058  0.00  0.00     0.283 C 
ATOM      2  O   UNL d   1      30.636 -16.939   0.177  0.00  0.00    -0.260 OA
ENDROOT
BRANCH   1   3
ATOM      3  C   UNL d   1      28.431 -16.158  -0.358  0.00  0.00     0.083 C 
ATOM      4  C   UNL d   1      27.529 -16.844   0.379  0.00  0.00     0.017 C 
BRANCH   4   5
ATOM      5  C   UNL d   1      26.109 -17.084   0.009  0.00  0.00    -0.033 A 
ATOM      6  C   UNL d   1      25.399 -18.199   0.469  0.00  0.00     0.014 A 
ATOM      7  C   UNL d   1      24.091 -18.476   0.002  0.00  0.00     0.040 A 
ATOM      8  C   UNL d   1      23.403 -17.606  -0.874  0.00  0.00     0.102 A 
ATOM      9  C   UNL d   1      24.098 -16.431  -1.280  0.00  0.00     0.102 A 
ATOM     10  C   UNL d   1      25.423 -16.219  -0.844  0.00  0.00     0.051 A 
BRANCH   8  11
ATOM     11  O   UNL d   1      22.064 -17.965  -1.015  0.00  0.00    -0.348 OA
BRANCH  11  12
ATOM     12  C   UNL d   1      21.520 -18.974  -0.168  0.00  0.00     0.176 C 
BRANCH  12  13
ATOM     13  C   UNL d   1      20.103 -19.451  -0.428  0.00  0.00     0.026 C 
BRANCH  13  14
ATOM     14  C   UNL d   1      19.760 -20.568   0.599  0.00  0.00    -0.002 C 
ATOM     15  C   UNL d   1      18.276 -20.823   0.591  0.00  0.00     0.005 C 
ENDBRANCH  13  14
ENDBRANCH  12  13
ENDBRANCH  11  12
ENDBRANCH   8  11
BRANCH   9  16
ATOM     16  O   UNL d   1      23.739 -15.313  -2.035  0.00  0.00    -0.349 OA
BRANCH  16  17
ATOM     17  C   UNL d   1      24.811 -14.825  -2.764  0.00  0.00     0.171 C 
ATOM     18  C   UNL d   1      24.747 -13.697  -3.749  0.00  0.00     0.034 C 
ENDBRANCH  16  17
ENDBRANCH   9  16
ENDBRANCH   4   5
ENDBRANCH   1   3
BRANCH   1  19
ATOM     19  O   UNL d   1      30.144 -14.698   0.305  0.00  0.00    -0.310 OA
BRANCH  19  20
ATOM     20  C   UNL d   1      29.239 -13.743  -0.295  0.00  0.00     0.264 C 
BRANCH  20  21
ATOM     21  C   UNL d   1      28.119 -13.291   0.678  0.00  0.00     0.200 C 
ATOM     22  O   UNL d   1      27.088 -12.811   0.197  0.00  0.00    -0.288 OA
BRANCH  21  23
ATOM     23  C   UNL d   1      28.293 -13.421   2.147  0.00  0.00     0.088 A 
ATOM     24  N   UNL d   1      28.961 -14.430   2.809  0.00  0.00    -0.356 N 
ATOM     25  C   UNL d   1      28.935 -14.240   4.175  0.00  0.00     0.022 A 
ATOM     26  H   UNL d   1      29.421 -15.214   2.363  0.00  0.00     0.166 HD
ATOM     27  C   UNL d   1      29.593 -15.200   5.105  0.00  0.00     0.069 C 
ATOM     28  C   UNL d   1      28.226 -13.080   4.453  0.00  0.00     0.070 A 
ATOM     29  C   UNL d   1      27.826 -12.559   3.157  0.00  0.00    -0.013 A 
ATOM     30  C   UNL d   1      27.028 -11.313   2.926  0.00  0.00     0.052 C 
BRANCH  28  31
ATOM     31  C   UNL d   1      27.933 -12.498   5.797  0.00  0.00     0.295 C 
ATOM     32  O   UNL d   1      27.449 -11.397   5.959  0.00  0.00    -0.259 OA
BRANCH  31  33
ATOM     33  O   UNL d   1      28.252 -13.325   6.856  0.00  0.00    -0.318 OA
BRANCH  33  34
ATOM     34  C   UNL d   1      29.055 -12.694   7.873  0.00  0.00     0.174 C 
ATOM     35  C   UNL d   1      28.524 -13.061   9.249  0.00  0.00     0.034 C 
ENDBRANCH  33  34
ENDBRANCH  31  33
ENDBRANCH  28  31
ENDBRANCH  21  23
ENDBRANCH  20  21
ENDBRANCH  19  20
ENDBRANCH   1  19
TORSDOF 15
ENDMDL
MODEL 3
REMARK VINA RESULT:    -7.969      5.631      8.673
REMARK INTER + INTRA:         -14.497
REMARK INTER:                 -12.444
REMARK INTRA:                  -2.053
REMARK CONF_INDEPENDENT:        4.474
REMARK UNBOUND:                -2.053
REMARK  15 active torsions:
REMARK  status: ('A' for Active; 'I' for Inactive)
REMARK    1  A    between atoms: C_2  and  C_3 
REMARK    2  A    between atoms: C_3  and  C_4 
REMARK    3  A    between atoms: C_4  and  O_5 
REMARK    4  A    between atoms: O_5  and  C_6 
REMARK    5  A    between atoms: C_9  and  C_10 
REMARK    6  A    between atoms: C_11  and  C_12 
REMARK    7  A    between atoms: C_12  and  O_14 
REMARK    8  A    between atoms: O_14  and  C_15 
REMARK    9  A    between atoms: C_15  and  C_16 
REMARK   10  A    between atoms: C_16  and  C_18 
REMARK   11  A    between atoms: C_22  and  C_23 
REMARK   12  A    between atoms: C_23  and  O_25 
REMARK   13  A    between atoms: O_25  and  C_26 
REMARK   14  A    between atoms: C_31  and  O_32 
REMARK   15  A    between atoms: O_32  and  C_33 
ROOT
ATOM      1  C   UNL d   1      25.868 -12.195  -4.319  0.00  0.00     0.283 C 
ATOM      2  O   UNL d   1      25.908 -11.027  -3.968  0.00  0.00    -0.260 OA
ENDROOT
BRANCH   1   3
ATOM      3  C   UNL d   1      25.238 -13.289  -3.527  0.00  0.00     0.083 C 
ATOM      4  C   UNL d   1      25.966 -14.224  -2.877  0.00  0.00     0.017 C 
BRANCH   4   5
ATOM      5  C   UNL d   1      25.416 -15.376  -2.113  0.00  0.00    -0.033 A 
ATOM      6  C   UNL d   1      24.041 -15.560  -1.933  0.00  0.00     0.014 A 
ATOM      7  C   UNL d   1      23.547 -16.590  -1.096  0.00  0.00     0.040 A 
ATOM      8  C   UNL d   1      24.397 -17.532  -0.475  0.00  0.00     0.102 A 
ATOM      9  C   UNL d   1      25.792 -17.391  -0.723  0.00  0.00     0.102 A 
ATOM     10  C   UNL d   1      26.255 -16.316  -1.513  0.00  0.00     0.051 A 
BRANCH   8  11
ATOM     11  O   UNL d   1      23.679 -18.574   0.108  0.00  0.00    -0.348 OA
BRANCH  11  12
ATOM     12  C   UNL d   1      22.645 -19.211  -0.637  0.00  0.00     0.176 C 
BRANCH  12  13
ATOM     13  C   UNL d   1      21.244 -18.630  -0.573  0.00  0.00     0.026 C 
BRANCH  13  14
ATOM     14  C   UNL d   1      20.427 -19.422   0.490  0.00  0.00    -0.002 C 
ATOM     15  C   UNL d   1      19.251 -20.089  -0.172  0.00  0.00     0.005 C 
ENDBRANCH  13  14
ENDBRANCH  12  13
ENDBRANCH  11  12
ENDBRANCH   8  11
BRANCH   9  16
ATOM     16  O   UNL d   1      26.913 -18.151  -0.384  0.00  0.00    -0.349 OA
BRANCH  16  17
ATOM     17  C   UNL d   1      27.886 -17.379   0.228  0.00  0.00     0.171 C 
ATOM     18  C   UNL d   1      29.180 -16.957  -0.400  0.00  0.00     0.034 C 
ENDBRANCH  16  17
ENDBRANCH   9  16
ENDBRANCH   4   5
ENDBRANCH   1   3
BRANCH   1  19
ATOM     19  O   UNL d   1      26.368 -12.683  -5.492  0.00  0.00    -0.310 OA
BRANCH  19  20
ATOM     20  C   UNL d   1      27.697 -13.246  -5.409  0.00  0.00     0.264 C 
BRANCH  20  21
ATOM     21  C   UNL d   1      27.720 -14.767  -5.711  0.00  0.00     0.200 C 
ATOM     22  O   UNL d   1      26.642 -15.368  -5.759  0.00  0.00    -0.288 OA
BRANCH  21  23
ATOM     23  C   UNL d   1      29.007 -15.479  -5.921  0.00  0.00     0.088 A 
ATOM     24  N   UNL d   1      29.770 -15.475  -7.069  0.00  0.00    -0.356 N 
ATOM     25  C   UNL d   1      30.909 -16.239  -6.921  0.00  0.00     0.022 A 
ATOM     26  H   UNL d   1      29.540 -14.976  -7.919  0.00  0.00     0.166 HD
ATOM     27  C   UNL d   1      31.895 -16.386  -8.027  0.00  0.00     0.069 C 
ATOM     28  C   UNL d   1      30.920 -16.785  -5.645  0.00  0.00     0.070 A 
ATOM     29  C   UNL d   1      29.709 -16.291  -5.010  0.00  0.00    -0.013 A 
ATOM     30  C   UNL d   1      29.265 -16.605  -3.615  0.00  0.00     0.052 C 
BRANCH  28  31
ATOM     31  C   UNL d   1      31.951 -17.689  -5.055  0.00  0.00     0.295 C 
ATOM     32  O   UNL d   1      33.062 -17.319  -4.734  0.00  0.00    -0.259 OA
BRANCH  31  33
ATOM     33  O   UNL d   1      31.536 -18.996  -4.895  0.00  0.00    -0.318 OA
BRANCH  33  34
ATOM     34  C   UNL d   1      30.483 -19.393  -5.795  0.00  0.00     0.174 C 
ATOM     35  C   UNL d   1      31.065 -20.206  -6.941  0.00  0.00     0.034 C 
ENDBRANCH  33  34
ENDBRANCH  31  33
ENDBRANCH  28  31
ENDBRANCH  21  23
ENDBRANCH  20  21
ENDBRANCH  19  20
ENDBRANCH   1  19
TORSDOF 15
ENDMDL
MODEL 4
REMARK VINA RESULT:    -7.060      5.068      7.862
REMARK INTER + INTRA:         -14.739
REMARK INTER:                 -11.535
REMARK INTRA:                  -3.204
REMARK CONF_INDEPENDENT:        4.474
REMARK UNBOUND:                -3.204
REMARK  15 active torsions:
REMARK  status: ('A' for Active; 'I' for Inactive)
REMARK    1  A    between atoms: C_2  and  C_3 
REMARK    2  A    between atoms: C_3  and  C_4 
REMARK    3  A    between atoms: C_4  and  O_5 
REMARK    4  A    between atoms: O_5  and  C_6 
REMARK    5  A    between atoms: C_9  and  C_10 
REMARK    6  A    between atoms: C_11  and  C_12 
REMARK    7  A    between atoms: C_12  and  O_14 
REMARK    8  A    between atoms: O_14  and  C_15 
REMARK    9  A    between atoms: C_15  and  C_16 
REMARK   10  A    between atoms: C_16  and  C_18 
REMARK   11  A    between atoms: C_22  and  C_23 
REMARK   12  A    between atoms: C_23  and  O_25 
REMARK   13  A    between atoms: O_25  and  C_26 
REMARK   14  A    between atoms: C_31  and  O_32 
REMARK   15  A    between atoms: O_32  and  C_33 
ROOT
ATOM      1  C   UNL d   1      29.508 -14.577   1.156  0.00  0.00     0.283 C 
ATOM      2  O   UNL d   1      29.704 -14.116   2.268  0.00  0.00    -0.260 OA
ENDROOT
BRANCH   1   3
ATOM      3  C   UNL d   1      28.174 -15.002   0.645  0.00  0.00     0.083 C 
ATOM      4  C   UNL d   1      27.767 -16.290   0.667  0.00  0.00     0.017 C 
BRANCH   4   5
ATOM      5  C   UNL d   1      26.479 -16.803   0.128  0.00  0.00    -0.033 A 
ATOM      6  C   UNL d   1      25.967 -18.054   0.491  0.00  0.00     0.014 A 
ATOM      7  C   UNL d   1      24.806 -18.575  -0.131  0.00  0.00     0.040 A 
ATOM      8  C   UNL d   1      24.059 -17.837  -1.075  0.00  0.00     0.102 A 
ATOM      9  C   UNL d   1      24.538 -16.532  -1.386  0.00  0.00     0.102 A 
ATOM     10  C   UNL d   1      25.732 -16.068  -0.793  0.00  0.00     0.051 A 
BRANCH   8  11
ATOM     11  O   UNL d   1      22.848 -18.456  -1.378  0.00  0.00    -0.348 OA
BRANCH  11  12
ATOM     12  C   UNL d   1      21.963 -18.810  -0.319  0.00  0.00     0.176 C 
BRANCH  12  13
ATOM     13  C   UNL d   1      20.521 -19.139  -0.660  0.00  0.00     0.026 C 
BRANCH  13  14
ATOM     14  C   UNL d   1      19.821 -19.683   0.619  0.00  0.00    -0.002 C 
ATOM     15  C   UNL d   1      18.801 -20.721   0.233  0.00  0.00     0.005 C 
ENDBRANCH  13  14
ENDBRANCH  12  13
ENDBRANCH  11  12
ENDBRANCH   8  11
BRANCH   9  16
ATOM     16  O   UNL d   1      24.046 -15.486  -2.169  0.00  0.00    -0.349 OA
BRANCH  16  17
ATOM     17  C   UNL d   1      25.070 -14.784  -2.783  0.00  0.00     0.171 C 
ATOM     18  C   UNL d   1      24.889 -13.740  -3.843  0.00  0.00     0.034 C 
ENDBRANCH  16  17
ENDBRANCH   9  16
ENDBRANCH   4   5
ENDBRANCH   1   3
BRANCH   1  19
ATOM     19  O   UNL d   1      30.465 -14.758   0.198  0.00  0.00    -0.310 OA
BRANCH  19  20
ATOM     20  C   UNL d   1      30.945 -16.114   0.054  0.00  0.00     0.264 C 
BRANCH  20  21
ATOM     21  C   UNL d   1      30.623 -16.716  -1.339  0.00  0.00     0.200 C 
ATOM     22  O   UNL d   1      31.038 -17.851  -1.594  0.00  0.00    -0.288 OA
BRANCH  21  23
ATOM     23  C   UNL d   1      29.848 -15.938  -2.339  0.00  0.00     0.088 A 
ATOM     24  N   UNL d   1      29.285 -14.693  -2.154  0.00  0.00    -0.356 N 
ATOM     25  C   UNL d   1      28.637 -14.259  -3.292  0.00  0.00     0.022 A 
ATOM     26  H   UNL d   1      29.337 -14.151  -1.301  0.00  0.00     0.166 HD
ATOM     27  C   UNL d   1      27.952 -12.937  -3.339  0.00  0.00     0.069 C 
ATOM     28  C   UNL d   1      28.751 -15.234  -4.273  0.00  0.00     0.070 A 
ATOM     29  C   UNL d   1      29.530 -16.298  -3.662  0.00  0.00    -0.013 A 
ATOM     30  C   UNL d   1      29.922 -17.583  -4.324  0.00  0.00     0.052 C 
BRANCH  28  31
ATOM     31  C   UNL d   1      28.190 -15.198  -5.656  0.00  0.00     0.295 C 
ATOM     32  O   UNL d   1      26.999 -15.200  -5.896  0.00  0.00    -0.259 OA
BRANCH  31  33
ATOM     33  O   UNL d   1      29.142 -15.153  -6.655  0.00  0.00    -0.318 OA
BRANCH  33  34
ATOM     34  C   UNL d   1      30.166 -14.161  -6.447  0.00  0.00     0.174 C 
ATOM     35  C   UNL d   1      31.290 -14.364  -7.450  0.00  0.00     0.034 C 
ENDBRANCH  33  34
ENDBRANCH  31  33
ENDBRANCH  28  31
ENDBRANCH  21  23
ENDBRANCH  20  21
ENDBRANCH  19  20
ENDBRANCH   1  19
TORSDOF 15
ENDMDL
MODEL 5
REMARK VINA RESULT:    -6.968      4.953      8.000
REMARK INTER + INTRA:         -14.882
REMARK INTER:                 -11.443
REMARK INTRA:                  -3.440
REMARK CONF_INDEPENDENT:        4.474
REMARK UNBOUND:                -3.440
REMARK  15 active torsions:
REMARK  status: ('A' for Active; 'I' for Inactive)
REMARK    1  A    between atoms: C_2  and  C_3 
REMARK    2  A    between atoms: C_3  and  C_4 
REMARK    3  A    between atoms: C_4  and  O_5 
REMARK    4  A    between atoms: O_5  and  C_6 
REMARK    5  A    between atoms: C_9  and  C_10 
REMARK    6  A    between atoms: C_11  and  C_12 
REMARK    7  A    between atoms: C_12  and  O_14 
REMARK    8  A    between atoms: O_14  and  C_15 
REMARK    9  A    between atoms: C_15  and  C_16 
REMARK   10  A    between atoms: C_16  and  C_18 
REMARK   11  A    between atoms: C_22  and  C_23 
REMARK   12  A    between atoms: C_23  and  O_25 
REMARK   13  A    between atoms: O_25  and  C_26 
REMARK   14  A    between atoms: C_31  and  O_32 
REMARK   15  A    between atoms: O_32  and  C_33 
ROOT
ATOM      1  C   UNL d   1      30.510 -16.714  -0.269  0.00  0.00     0.283 C 
ATOM      2  O   UNL d   1      31.156 -17.472  -0.974  0.00  0.00    -0.260 OA
ENDROOT
BRANCH   1   3
ATOM      3  C   UNL d   1      29.038 -16.810  -0.059  0.00  0.00     0.083 C 
ATOM      4  C   UNL d   1      28.176 -17.050  -1.073  0.00  0.00     0.017 C 
BRANCH   4   5
ATOM      5  C   UNL d   1      26.695 -17.106  -0.958  0.00  0.00    -0.033 A 
ATOM      6  C   UNL d   1      26.046 -18.053  -0.157  0.00  0.00     0.014 A 
ATOM      7  C   UNL d   1      24.635 -18.170  -0.163  0.00  0.00     0.040 A 
ATOM      8  C   UNL d   1      23.808 -17.292  -0.899  0.00  0.00     0.102 A 
ATOM      9  C   UNL d   1      24.466 -16.279  -1.653  0.00  0.00     0.102 A 
ATOM     10  C   UNL d   1      25.877 -16.230  -1.672  0.00  0.00     0.051 A 
BRANCH   8  11
ATOM     11  O   UNL d   1      22.462 -17.456  -0.577  0.00  0.00    -0.348 OA
BRANCH  11  12
ATOM     12  C   UNL d   1      21.996 -18.736  -0.162  0.00  0.00     0.176 C 
BRANCH  12  13
ATOM     13  C   UNL d   1      20.648 -19.215  -0.669  0.00  0.00     0.026 C 
BRANCH  13  14
ATOM     14  C   UNL d   1      19.722 -19.475   0.555  0.00  0.00    -0.002 C 
ATOM     15  C   UNL d   1      18.788 -20.617   0.248  0.00  0.00     0.005 C 
ENDBRANCH  13  14
ENDBRANCH  12  13
ENDBRANCH  11  12
ENDBRANCH   8  11
BRANCH   9  16
ATOM     16  O   UNL d   1      24.017 -15.195  -2.409  0.00  0.00    -0.349 OA
BRANCH  16  17
ATOM     17  C   UNL d   1      25.058 -14.355  -2.765  0.00  0.00     0.171 C 
ATOM     18  C   UNL d   1      25.027 -13.367  -3.892  0.00  0.00     0.034 C 
ENDBRANCH  16  17
ENDBRANCH   9  16
ENDBRANCH   4   5
ENDBRANCH   1   3
BRANCH   1  19
ATOM     19  O   UNL d   1      31.027 -15.677   0.454  0.00  0.00    -0.310 OA
BRANCH  19  20
ATOM     20  C   UNL d   1      30.460 -14.379   0.164  0.00  0.00     0.264 C 
BRANCH  20  21
ATOM     21  C   UNL d   1      30.778 -13.899  -1.276  0.00  0.00     0.200 C 
ATOM     22  O   UNL d   1      31.476 -12.889  -1.413  0.00  0.00    -0.288 OA
BRANCH  21  23
ATOM     23  C   UNL d   1      30.243 -14.629  -2.454  0.00  0.00     0.088 A 
ATOM     24  N   UNL d   1      30.778 -15.762  -3.029  0.00  0.00    -0.356 N 
ATOM     25  C   UNL d   1      30.027 -16.183  -4.107  0.00  0.00     0.022 A 
ATOM     26  H   UNL d   1      31.612 -16.239  -2.710  0.00  0.00     0.166 HD
ATOM     27  C   UNL d   1      30.403 -17.391  -4.893  0.00  0.00     0.069 C 
ATOM     28  C   UNL d   1      28.959 -15.311  -4.277  0.00  0.00     0.070 A 
ATOM     29  C   UNL d   1      29.099 -14.328  -3.216  0.00  0.00    -0.013 A 
ATOM     30  C   UNL d   1      28.184 -13.167  -2.976  0.00  0.00     0.052 C 
BRANCH  28  31
ATOM     31  C   UNL d   1      27.901 -15.371  -5.328  0.00  0.00     0.295 C 
ATOM     32  O   UNL d   1      26.724 -15.547  -5.086  0.00  0.00    -0.259 OA
BRANCH  31  33
ATOM     33  O   UNL d   1      28.369 -15.199  -6.616  0.00  0.00    -0.318 OA
BRANCH  33  34
ATOM     34  C   UNL d   1      28.532 -13.821  -7.004  0.00  0.00     0.174 C 
ATOM     35  C   UNL d   1      27.695 -12.930  -6.100  0.00  0.00     0.034 C 
ENDBRANCH  33  34
ENDBRANCH  31  33
ENDBRANCH  28  31
ENDBRANCH  21  23
ENDBRANCH  20  21
ENDBRANCH  19  20
ENDBRANCH   1  19
TORSDOF 15
ENDMDL
MODEL 6
REMARK VINA RESULT:    -6.862      4.590      6.369
REMARK INTER + INTRA:         -14.310
REMARK INTER:                 -11.337
REMARK INTRA:                  -2.974
REMARK CONF_INDEPENDENT:        4.474
REMARK UNBOUND:                -2.974
REMARK  15 active torsions:
REMARK  status: ('A' for Active; 'I' for Inactive)
REMARK    1  A    between atoms: C_2  and  C_3 
REMARK    2  A    between atoms: C_3  and  C_4 
REMARK    3  A    between atoms: C_4  and  O_5 
REMARK    4  A    between atoms: O_5  and  C_6 
REMARK    5  A    between atoms: C_9  and  C_10 
REMARK    6  A    between atoms: C_11  and  C_12 
REMARK    7  A    between atoms: C_12  and  O_14 
REMARK    8  A    between atoms: O_14  and  C_15 
REMARK    9  A    between atoms: C_15  and  C_16 
REMARK   10  A    between atoms: C_16  and  C_18 
REMARK   11  A    between atoms: C_22  and  C_23 
REMARK   12  A    between atoms: C_23  and  O_25 
REMARK   13  A    between atoms: O_25  and  C_26 
REMARK   14  A    between atoms: C_31  and  O_32 
REMARK   15  A    between atoms: O_32  and  C_33 
ROOT
ATOM      1  C   UNL d   1      30.264 -16.918  -1.247  0.00  0.00     0.283 C 
ATOM      2  O   UNL d   1      30.850 -17.427  -0.305  0.00  0.00    -0.260 OA
ENDROOT
BRANCH   1   3
ATOM      3  C   UNL d   1      28.781 -16.835  -1.367  0.00  0.00     0.083 C 
ATOM      4  C   UNL d   1      27.948 -17.343  -0.431  0.00  0.00     0.017 C 
BRANCH   4   5
ATOM      5  C   UNL d   1      26.463 -17.350  -0.502  0.00  0.00    -0.033 A 
ATOM      6  C   UNL d   1      25.687 -18.237   0.252  0.00  0.00     0.014 A 
ATOM      7  C   UNL d   1      24.284 -18.313   0.073  0.00  0.00     0.040 A 
ATOM      8  C   UNL d   1      23.587 -17.449  -0.800  0.00  0.00     0.102 A 
ATOM      9  C   UNL d   1      24.369 -16.494  -1.510  0.00  0.00     0.102 A 
ATOM     10  C   UNL d   1      25.772 -16.487  -1.353  0.00  0.00     0.051 A 
BRANCH   8  11
ATOM     11  O   UNL d   1      22.206 -17.556  -0.644  0.00  0.00    -0.348 OA
BRANCH  11  12
ATOM     12  C   UNL d   1      21.589 -18.835  -0.765  0.00  0.00     0.176 C 
BRANCH  12  13
ATOM     13  C   UNL d   1      20.078 -18.901  -0.895  0.00  0.00     0.026 C 
BRANCH  13  14
ATOM     14  C   UNL d   1      19.480 -19.331   0.476  0.00  0.00    -0.002 C 
ATOM     15  C   UNL d   1      19.548 -20.829   0.608  0.00  0.00     0.005 C 
ENDBRANCH  13  14
ENDBRANCH  12  13
ENDBRANCH  11  12
ENDBRANCH   8  11
BRANCH   9  16
ATOM     16  O   UNL d   1      24.056 -15.435  -2.365  0.00  0.00    -0.349 OA
BRANCH  16  17
ATOM     17  C   UNL d   1      25.188 -14.736  -2.747  0.00  0.00     0.171 C 
ATOM     18  C   UNL d   1      25.594 -14.450  -4.161  0.00  0.00     0.034 C 
ENDBRANCH  16  17
ENDBRANCH   9  16
ENDBRANCH   4   5
ENDBRANCH   1   3
BRANCH   1  19
ATOM     19  O   UNL d   1      30.863 -16.327  -2.322  0.00  0.00    -0.310 OA
BRANCH  19  20
ATOM     20  C   UNL d   1      30.030 -16.193  -3.496  0.00  0.00     0.264 C 
BRANCH  20  21
ATOM     21  C   UNL d   1      30.373 -17.236  -4.592  0.00  0.00     0.200 C 
ATOM     22  O   UNL d   1      30.258 -16.899  -5.774  0.00  0.00    -0.288 OA
BRANCH  21  23
ATOM     23  C   UNL d   1      30.814 -18.606  -4.223  0.00  0.00     0.088 A 
ATOM     24  N   UNL d   1      31.296 -19.011  -2.996  0.00  0.00    -0.356 N 
ATOM     25  C   UNL d   1      31.609 -20.354  -2.996  0.00  0.00     0.022 A 
ATOM     26  H   UNL d   1      31.406 -18.412  -2.187  0.00  0.00     0.166 HD
ATOM     27  C   UNL d   1      32.148 -21.026  -1.781  0.00  0.00     0.069 C 
ATOM     28  C   UNL d   1      31.345 -20.877  -4.255  0.00  0.00     0.070 A 
ATOM     29  C   UNL d   1      30.831 -19.759  -5.029  0.00  0.00    -0.013 A 
ATOM     30  C   UNL d   1      30.402 -19.815  -6.463  0.00  0.00     0.052 C 
BRANCH  28  31
ATOM     31  C   UNL d   1      31.550 -22.282  -4.713  0.00  0.00     0.295 C 
ATOM     32  O   UNL d   1      31.726 -22.590  -5.874  0.00  0.00    -0.259 OA
BRANCH  31  33
ATOM     33  O   UNL d   1      31.531 -23.219  -3.698  0.00  0.00    -0.318 OA
BRANCH  33  34
ATOM     34  C   UNL d   1      30.567 -24.274  -3.890  0.00  0.00     0.174 C 
ATOM     35  C   UNL d   1      29.299 -23.959  -3.114  0.00  0.00     0.034 C 
ENDBRANCH  33  34
ENDBRANCH  31  33
ENDBRANCH  28  31
ENDBRANCH  21  23
ENDBRANCH  20  21
ENDBRANCH  19  20
ENDBRANCH   1  19
TORSDOF 15
ENDMDL
MODEL 7
REMARK VINA RESULT:    -6.795      5.272      7.359
REMARK INTER + INTRA:         -14.211
REMARK INTER:                 -11.270
REMARK INTRA:                  -2.941
REMARK CONF_INDEPENDENT:        4.474
REMARK UNBOUND:                -2.941
REMARK  15 active torsions:
REMARK  status: ('A' for Active; 'I' for Inactive)
REMARK    1  A    between atoms: C_2  and  C_3 
REMARK    2  A    between atoms: C_3  and  C_4 
REMARK    3  A    between atoms: C_4  and  O_5 
REMARK    4  A    between atoms: O_5  and  C_6 
REMARK    5  A    between atoms: C_9  and  C_10 
REMARK    6  A    between atoms: C_11  and  C_12 
REMARK    7  A    between atoms: C_12  and  O_14 
REMARK    8  A    between atoms: O_14  and  C_15 
REMARK    9  A    between atoms: C_15  and  C_16 
REMARK   10  A    between atoms: C_16  and  C_18 
REMARK   11  A    between atoms: C_22  and  C_23 
REMARK   12  A    between atoms: C_23  and  O_25 
REMARK   13  A    between atoms: O_25  and  C_26 
REMARK   14  A    between atoms: C_31  and  O_32 
REMARK   15  A    between atoms: O_32  and  C_33 
ROOT
ATOM      1  C   UNL d   1      26.876 -14.288  -5.393  0.00  0.00     0.283 C 
ATOM      2  O   UNL d   1      27.077 -13.084  -5.402  0.00  0.00    -0.260 OA
ENDROOT
BRANCH   1   3
ATOM      3  C   UNL d   1      25.903 -14.970  -4.493  0.00  0.00     0.083 C 
ATOM      4  C   UNL d   1      26.196 -15.277  -3.210  0.00  0.00     0.017 C 
BRANCH   4   5
ATOM      5  C   UNL d   1      25.306 -16.003  -2.266  0.00  0.00    -0.033 A 
ATOM      6  C   UNL d   1      23.994 -15.589  -2.013  0.00  0.00     0.014 A 
ATOM      7  C   UNL d   1      23.209 -16.218  -1.017  0.00  0.00     0.040 A 
ATOM      8  C   UNL d   1      23.667 -17.341  -0.293  0.00  0.00     0.102 A 
ATOM      9  C   UNL d   1      24.974 -17.811  -0.606  0.00  0.00     0.102 A 
ATOM     10  C   UNL d   1      25.752 -17.122  -1.561  0.00  0.00     0.051 A 
BRANCH   8  11
ATOM     11  O   UNL d   1      22.650 -17.921   0.463  0.00  0.00    -0.348 OA
BRANCH  11  12
ATOM     12  C   UNL d   1      21.989 -19.081  -0.032  0.00  0.00     0.176 C 
BRANCH  12  13
ATOM     13  C   UNL d   1      20.840 -18.899  -1.008  0.00  0.00     0.026 C 
BRANCH  13  14
ATOM     14  C   UNL d   1      19.527 -19.373  -0.322  0.00  0.00    -0.002 C 
ATOM     15  C   UNL d   1      19.843 -20.440   0.692  0.00  0.00     0.005 C 
ENDBRANCH  13  14
ENDBRANCH  12  13
ENDBRANCH  11  12
ENDBRANCH   8  11
BRANCH   9  16
ATOM     16  O   UNL d   1      25.726 -18.913  -0.196  0.00  0.00    -0.349 OA
BRANCH  16  17
ATOM     17  C   UNL d   1      26.649 -18.568   0.777  0.00  0.00     0.171 C 
ATOM     18  C   UNL d   1      27.230 -17.200   0.974  0.00  0.00     0.034 C 
ENDBRANCH  16  17
ENDBRANCH   9  16
ENDBRANCH   4   5
ENDBRANCH   1   3
BRANCH   1  19
ATOM     19  O   UNL d   1      27.484 -15.195  -6.212  0.00  0.00    -0.310 OA
BRANCH  19  20
ATOM     20  C   UNL d   1      28.911 -15.024  -6.371  0.00  0.00     0.264 C 
BRANCH  20  21
ATOM     21  C   UNL d   1      29.729 -16.071  -5.571  0.00  0.00     0.200 C 
ATOM     22  O   UNL d   1      30.380 -16.909  -6.204  0.00  0.00    -0.288 OA
BRANCH  21  23
ATOM     23  C   UNL d   1      29.716 -16.071  -4.086  0.00  0.00     0.088 A 
ATOM     24  N   UNL d   1      29.786 -17.175  -3.263  0.00  0.00    -0.356 N 
ATOM     25  C   UNL d   1      29.753 -16.815  -1.933  0.00  0.00     0.022 A 
ATOM     26  H   UNL d   1      29.859 -18.134  -3.581  0.00  0.00     0.166 HD
ATOM     27  C   UNL d   1      29.818 -17.836  -0.850  0.00  0.00     0.069 C 
ATOM     28  C   UNL d   1      29.648 -15.434  -1.843  0.00  0.00     0.070 A 
ATOM     29  C   UNL d   1      29.632 -14.965  -3.219  0.00  0.00    -0.013 A 
ATOM     30  C   UNL d   1      29.526 -13.535  -3.652  0.00  0.00     0.052 C 
BRANCH  28  31
ATOM     31  C   UNL d   1      29.563 -14.610  -0.601  0.00  0.00     0.295 C 
ATOM     32  O   UNL d   1      30.437 -13.849  -0.241  0.00  0.00    -0.259 OA
BRANCH  31  33
ATOM     33  O   UNL d   1      28.394 -14.779   0.114  0.00  0.00    -0.318 OA
BRANCH  33  34
ATOM     34  C   UNL d   1      28.293 -13.940   1.282  0.00  0.00     0.174 C 
ATOM     35  C   UNL d   1      27.219 -12.886   1.067  0.00  0.00     0.034 C 
ENDBRANCH  33  34
ENDBRANCH  31  33
ENDBRANCH  28  31
ENDBRANCH  21  23
ENDBRANCH  20  21
ENDBRANCH  19  20
ENDBRANCH   1  19
TORSDOF 15
ENDMDL
MODEL 8
REMARK VINA RESULT:    -6.761      4.072      6.733
REMARK INTER + INTRA:         -14.342
REMARK INTER:                 -11.235
REMARK INTRA:                  -3.107
REMARK CONF_INDEPENDENT:        4.474
REMARK UNBOUND:                -3.107
REMARK  15 active torsions:
REMARK  status: ('A' for Active; 'I' for Inactive)
REMARK    1  A    between atoms: C_2  and  C_3 
REMARK    2  A    between atoms: C_3  and  C_4 
REMARK    3  A    between atoms: C_4  and  O_5 
REMARK    4  A    between atoms: O_5  and  C_6 
REMARK    5  A    between atoms: C_9  and  C_10 
REMARK    6  A    between atoms: C_11  and  C_12 
REMARK    7  A    between atoms: C_12  and  O_14 
REMARK    8  A    between atoms: O_14  and  C_15 
REMARK    9  A    between atoms: C_15  and  C_16 
REMARK   10  A    between atoms: C_16  and  C_18 
REMARK   11  A    between atoms: C_22  and  C_23 
REMARK   12  A    between atoms: C_23  and  O_25 
REMARK   13  A    between atoms: O_25  and  C_26 
REMARK   14  A    between atoms: C_31  and  O_32 
REMARK   15  A    between atoms: O_32  and  C_33 
ROOT
ATOM      1  C   UNL d   1      26.967 -14.267  -5.108  0.00  0.00     0.283 C 
ATOM      2  O   UNL d   1      27.289 -13.124  -4.826  0.00  0.00    -0.260 OA
ENDROOT
BRANCH   1   3
ATOM      3  C   UNL d   1      26.034 -15.102  -4.299  0.00  0.00     0.083 C 
ATOM      4  C   UNL d   1      26.052 -15.103  -2.948  0.00  0.00     0.017 C 
BRANCH   4   5
ATOM      5  C   UNL d   1      25.196 -15.944  -2.069  0.00  0.00    -0.033 A 
ATOM      6  C   UNL d   1      23.850 -15.643  -1.833  0.00  0.00     0.014 A 
ATOM      7  C   UNL d   1      23.090 -16.383  -0.894  0.00  0.00     0.040 A 
ATOM      8  C   UNL d   1      23.615 -17.507  -0.217  0.00  0.00     0.102 A 
ATOM      9  C   UNL d   1      24.961 -17.860  -0.517  0.00  0.00     0.102 A 
ATOM     10  C   UNL d   1      25.708 -17.064  -1.412  0.00  0.00     0.051 A 
BRANCH   8  11
ATOM     11  O   UNL d   1      22.626 -18.201   0.477  0.00  0.00    -0.348 OA
BRANCH  11  12
ATOM     12  C   UNL d   1      21.976 -19.303  -0.151  0.00  0.00     0.176 C 
BRANCH  12  13
ATOM     13  C   UNL d   1      20.497 -19.184  -0.471  0.00  0.00     0.026 C 
BRANCH  13  14
ATOM     14  C   UNL d   1      19.684 -19.524   0.812  0.00  0.00    -0.002 C 
ATOM     15  C   UNL d   1      18.924 -20.807   0.602  0.00  0.00     0.005 C 
ENDBRANCH  13  14
ENDBRANCH  12  13
ENDBRANCH  11  12
ENDBRANCH   8  11
BRANCH   9  16
ATOM     16  O   UNL d   1      25.784 -18.924  -0.145  0.00  0.00    -0.349 OA
BRANCH  16  17
ATOM     17  C   UNL d   1      26.650 -18.567   0.875  0.00  0.00     0.171 C 
ATOM     18  C   UNL d   1      27.370 -17.257   0.981  0.00  0.00     0.034 C 
ENDBRANCH  16  17
ENDBRANCH   9  16
ENDBRANCH   4   5
ENDBRANCH   1   3
BRANCH   1  19
ATOM     19  O   UNL d   1      27.385 -14.954  -6.212  0.00  0.00    -0.310 OA
BRANCH  19  20
ATOM     20  C   UNL d   1      28.799 -14.858  -6.499  0.00  0.00     0.264 C 
BRANCH  20  21
ATOM     21  C   UNL d   1      29.622 -15.984  -5.821  0.00  0.00     0.200 C 
ATOM     22  O   UNL d   1      30.258 -16.758  -6.544  0.00  0.00    -0.288 OA
BRANCH  21  23
ATOM     23  C   UNL d   1      29.632 -16.130  -4.343  0.00  0.00     0.088 A 
ATOM     24  N   UNL d   1      29.129 -15.232  -3.425  0.00  0.00    -0.356 N 
ATOM     25  C   UNL d   1      29.299 -15.683  -2.133  0.00  0.00     0.022 A 
ATOM     26  H   UNL d   1      28.684 -14.353  -3.656  0.00  0.00     0.166 HD
ATOM     27  C   UNL d   1      28.833 -14.886  -0.964  0.00  0.00     0.069 C 
ATOM     28  C   UNL d   1      29.941 -16.914  -2.168  0.00  0.00     0.070 A 
ATOM     29  C   UNL d   1      30.144 -17.196  -3.579  0.00  0.00    -0.013 A 
ATOM     30  C   UNL d   1      30.807 -18.417  -4.138  0.00  0.00     0.052 C 
BRANCH  28  31
ATOM     31  C   UNL d   1      30.342 -17.759  -1.005  0.00  0.00     0.295 C 
ATOM     32  O   UNL d   1      30.038 -18.929  -0.891  0.00  0.00    -0.259 OA
BRANCH  31  33
ATOM     33  O   UNL d   1      31.101 -17.101  -0.058  0.00  0.00    -0.318 OA
BRANCH  33  34
ATOM     34  C   UNL d   1      32.511 -17.394  -0.128  0.00  0.00     0.174 C 
ATOM     35  C   UNL d   1      32.957 -18.084   1.151  0.00  0.00     0.034 C 
ENDBRANCH  33  34
ENDBRANCH  31  33
ENDBRANCH  28  31
ENDBRANCH  21  23
ENDBRANCH  20  21
ENDBRANCH  19  20
ENDBRANCH   1  19
TORSDOF 15
ENDMDL
MODEL 9
REMARK VINA RESULT:    -6.584      5.504     10.087
REMARK INTER + INTRA:         -14.222
REMARK INTER:                 -11.059
REMARK INTRA:                  -3.163
REMARK CONF_INDEPENDENT:        4.474
REMARK UNBOUND:                -3.163
REMARK  15 active torsions:
REMARK  status: ('A' for Active; 'I' for Inactive)
REMARK    1  A    between atoms: C_2  and  C_3 
REMARK    2  A    between atoms: C_3  and  C_4 
REMARK    3  A    between atoms: C_4  and  O_5 
REMARK    4  A    between atoms: O_5  and  C_6 
REMARK    5  A    between atoms: C_9  and  C_10 
REMARK    6  A    between atoms: C_11  and  C_12 
REMARK    7  A    between atoms: C_12  and  O_14 
REMARK    8  A    between atoms: O_14  and  C_15 
REMARK    9  A    between atoms: C_15  and  C_16 
REMARK   10  A    between atoms: C_16  and  C_18 
REMARK   11  A    between atoms: C_22  and  C_23 
REMARK   12  A    between atoms: C_23  and  O_25 
REMARK   13  A    between atoms: O_25  and  C_26 
REMARK   14  A    between atoms: C_31  and  O_32 
REMARK   15  A    between atoms: O_32  and  C_33 
ROOT
ATOM      1  C   UNL d   1      28.049 -13.731  -0.495  0.00  0.00     0.283 C 
ATOM      2  O   UNL d   1      27.127 -13.123  -1.013  0.00  0.00    -0.260 OA
ENDROOT
BRANCH   1   3
ATOM      3  C   UNL d   1      28.421 -13.627   0.944  0.00  0.00     0.083 C 
ATOM      4  C   UNL d   1      27.572 -13.972   1.938  0.00  0.00     0.017 C 
BRANCH   4   5
ATOM      5  C   UNL d   1      27.844 -13.846   3.395  0.00  0.00    -0.033 A 
ATOM      6  C   UNL d   1      28.140 -14.956   4.194  0.00  0.00     0.014 A 
ATOM      7  C   UNL d   1      28.269 -14.831   5.598  0.00  0.00     0.040 A 
ATOM      8  C   UNL d   1      28.194 -13.582   6.254  0.00  0.00     0.102 A 
ATOM      9  C   UNL d   1      27.970 -12.442   5.430  0.00  0.00     0.102 A 
ATOM     10  C   UNL d   1      27.786 -12.611   4.041  0.00  0.00     0.051 A 
BRANCH   8  11
ATOM     11  O   UNL d   1      28.571 -13.676   7.592  0.00  0.00    -0.348 OA
BRANCH  11  12
ATOM     12  C   UNL d   1      29.936 -13.925   7.917  0.00  0.00     0.176 C 
BRANCH  12  13
ATOM     13  C   UNL d   1      30.371 -13.800   9.365  0.00  0.00     0.026 C 
BRANCH  13  14
ATOM     14  C   UNL d   1      29.505 -14.764  10.228  0.00  0.00    -0.002 C 
ATOM     15  C   UNL d   1      28.162 -14.136  10.491  0.00  0.00     0.005 C 
ENDBRANCH  13  14
ENDBRANCH  12  13
ENDBRANCH  11  12
ENDBRANCH   8  11
BRANCH   9  16
ATOM     16  O   UNL d   1      27.931 -11.068   5.676  0.00  0.00    -0.349 OA
BRANCH  16  17
ATOM     17  C   UNL d   1      29.133 -10.607   6.186  0.00  0.00     0.171 C 
ATOM     18  C   UNL d   1      29.278  -9.663   7.341  0.00  0.00     0.034 C 
ENDBRANCH  16  17
ENDBRANCH   9  16
ENDBRANCH   4   5
ENDBRANCH   1   3
BRANCH   1  19
ATOM     19  O   UNL d   1      28.869 -14.614  -1.136  0.00  0.00    -0.310 OA
BRANCH  19  20
ATOM     20  C   UNL d   1      29.247 -15.777  -0.364  0.00  0.00     0.264 C 
BRANCH  20  21
ATOM     21  C   UNL d   1      28.189 -16.909  -0.435  0.00  0.00     0.200 C 
ATOM     22  O   UNL d   1      28.543 -18.057  -0.151  0.00  0.00    -0.288 OA
BRANCH  21  23
ATOM     23  C   UNL d   1      26.792 -16.615  -0.845  0.00  0.00     0.088 A 
ATOM     24  N   UNL d   1      26.381 -15.625  -1.712  0.00  0.00    -0.356 N 
ATOM     25  C   UNL d   1      25.012 -15.633  -1.876  0.00  0.00     0.022 A 
ATOM     26  H   UNL d   1      26.995 -14.971  -2.181  0.00  0.00     0.166 HD
ATOM     27  C   UNL d   1      24.330 -14.656  -2.769  0.00  0.00     0.069 C 
ATOM     28  C   UNL d   1      24.473 -16.647  -1.095  0.00  0.00     0.070 A 
ATOM     29  C   UNL d   1      25.613 -17.274  -0.447  0.00  0.00    -0.013 A 
ATOM     30  C   UNL d   1      25.549 -18.426   0.507  0.00  0.00     0.052 C 
BRANCH  28  31
ATOM     31  C   UNL d   1      23.032 -17.010  -0.951  0.00  0.00     0.295 C 
ATOM     32  O   UNL d   1      22.160 -16.204  -0.696  0.00  0.00    -0.259 OA
BRANCH  31  33
ATOM     33  O   UNL d   1      22.762 -18.351  -1.138  0.00  0.00    -0.318 OA
BRANCH  33  34
ATOM     34  C   UNL d   1      21.884 -18.918  -0.146  0.00  0.00     0.174 C 
ATOM     35  C   UNL d   1      20.557 -19.291  -0.787  0.00  0.00     0.034 C 
ENDBRANCH  33  34
ENDBRANCH  31  33
ENDBRANCH  28  31
ENDBRANCH  21  23
ENDBRANCH  20  21
ENDBRANCH  19  20
ENDBRANCH   1  19
TORSDOF 15
ENDMDL
