MODEL 1
REMARK VINA RESULT:   -10.228      0.000      0.000
REMARK INTER + INTRA:         -13.608
REMARK INTER:                 -12.316
REMARK INTRA:                  -1.292
REMARK CONF_INDEPENDENT:        2.088
REMARK UNBOUND:                -1.292
REMARK  7 active torsions:
REMARK  status: ('A' for Active; 'I' for Inactive)
REMARK    1  A    between atoms: O_2  and  C_3 
REMARK    2  A    between atoms: C_8  and  N_9 
REMARK    3  A    between atoms: N_9  and  C_10 
REMARK    4  A    between atoms: C_10  and  N_12 
REMARK    5  A    between atoms: N_12  and  N_13 
REMARK       I    between atoms: N_13  and  C_14 
REMARK    6  A    between atoms: C_14  and  C_16 
REMARK    7  A    between atoms: N_24  and  C_25 
ROOT
ATOM      1  C   UNL d   1      28.574 -14.450   2.460  0.00  0.00     0.031 C 
ATOM      2  C   UNL d   1      29.726 -14.236   1.701  0.00  0.00     0.017 C 
ATOM      3  C   UNL d   1      29.707 -14.663   0.332  0.00  0.00     0.015 C 
ATOM      4  C   UNL d   1      28.473 -15.058  -0.273  0.00  0.00     0.034 C 
ATOM      5  C   UNL d   1      27.358 -14.637   0.369  0.00  0.00     0.117 C 
ATOM      6  C   UNL d   1      27.405 -14.761   1.760  0.00  0.00     0.016 C 
ATOM      7  C   UNL d   1      26.294 -15.112  -0.512  0.00  0.00     0.250 C 
ATOM      8  O   UNL d   1      25.929 -14.555  -1.538  0.00  0.00    -0.271 OA
ATOM      9  N   UNL d   1      26.381 -16.431  -0.431  0.00  0.00    -0.247 N 
ATOM     10  C   UNL d   1      27.765 -16.444  -0.849  0.00  0.00     0.263 C 
ATOM     11  O   UNL d   1      28.328 -17.080  -1.728  0.00  0.00    -0.267 OA
ENDROOT
BRANCH   1  12
ATOM     12  C   UNL d   1      28.454 -14.097   3.928  0.00  0.00     0.269 C 
ATOM     13  N   UNL d   1      28.878 -15.087   4.833  0.00  0.00    -0.264 N 
ATOM     14  H   UNL d   1      29.451 -15.876   4.557  0.00  0.00     0.190 HD
ATOM     15  O   UNL d   1      27.958 -13.062   4.255  0.00  0.00    -0.266 OA
BRANCH  13  16
ATOM     16  N   UNL d   1      28.709 -14.876   6.258  0.00  0.00    -0.273 N 
ATOM     17  H   UNL d   1      28.162 -15.586   6.739  0.00  0.00     0.189 HD
BRANCH  16  18
ATOM     18  C   UNL d   1      29.540 -13.972   6.970  0.00  0.00     0.191 C 
ATOM     19  S   UNL d   1      29.917 -12.449   6.359  0.00  0.00    -0.039 SA
BRANCH  18  20
ATOM     20  N   UNL d   1      29.858 -14.450   8.267  0.00  0.00    -0.330 N 
ATOM     21  H   UNL d   1      30.581 -15.156   8.325  0.00  0.00     0.168 HD
BRANCH  20  22
ATOM     22  C   UNL d   1      29.394 -13.953   9.546  0.00  0.00     0.068 C 
ATOM     23  C   UNL d   1      28.155 -13.257   9.588  0.00  0.00     0.032 C 
ATOM     24  C   UNL d   1      27.563 -12.848  10.806  0.00  0.00     0.002 C 
ATOM     25  C   UNL d   1      28.197 -13.119  12.007  0.00  0.00     0.003 C 
ATOM     26  C   UNL d   1      29.468 -13.687  11.975  0.00  0.00     0.039 C 
ATOM     27  C   UNL d   1      30.091 -14.070  10.762  0.00  0.00     0.095 C 
BRANCH  27  28
ATOM     28  O   UNL d   1      31.349 -14.563  10.977  0.00  0.00    -0.354 OA
ATOM     29  C   UNL d   1      31.583 -15.962  10.977  0.00  0.00     0.210 C 
ENDBRANCH  27  28
ENDBRANCH  20  22
ENDBRANCH  18  20
ENDBRANCH  16  18
ENDBRANCH  13  16
ENDBRANCH   1  12
BRANCH   9  30
ATOM     30  C   UNL d   1      25.057 -17.113  -0.671  0.00  0.00     0.045 A 
ATOM     31  C   UNL d   1      24.811 -18.562  -0.514  0.00  0.00     0.032 A 
ATOM     32  C   UNL d   1      23.496 -19.168  -0.520  0.00  0.00     0.026 A 
ATOM     33  C   UNL d   1      22.392 -18.348  -0.641  0.00  0.00     0.034 A 
ATOM     34 CL   UNL d   1      20.784 -18.950  -0.431  0.00  0.00    -0.084 Cl
ATOM     35  C   UNL d   1      22.608 -16.990  -0.886  0.00  0.00     0.026 A 
ATOM     36  C   UNL d   1      23.908 -16.396  -0.944  0.00  0.00     0.032 A 
ENDBRANCH   9  30
TORSDOF 7
ENDMDL
MODEL 2
REMARK VINA RESULT:    -9.381      2.724      3.398
REMARK INTER + INTRA:         -13.826
REMARK INTER:                 -11.469
REMARK INTRA:                  -2.357
REMARK CONF_INDEPENDENT:        2.088
REMARK UNBOUND:                -2.357
REMARK  7 active torsions:
REMARK  status: ('A' for Active; 'I' for Inactive)
REMARK    1  A    between atoms: O_2  and  C_3 
REMARK    2  A    between atoms: C_8  and  N_9 
REMARK    3  A    between atoms: N_9  and  C_10 
REMARK    4  A    between atoms: C_10  and  N_12 
REMARK    5  A    between atoms: N_12  and  N_13 
REMARK       I    between atoms: N_13  and  C_14 
REMARK    6  A    between atoms: C_14  and  C_16 
REMARK    7  A    between atoms: N_24  and  C_25 
ROOT
ATOM      1  C   UNL d   1      27.403 -13.432   1.304  0.00  0.00     0.031 C 
ATOM      2  C   UNL d   1      28.719 -13.894   1.256  0.00  0.00     0.017 C 
ATOM      3  C   UNL d   1      28.945 -15.196   0.699  0.00  0.00     0.015 C 
ATOM      4  C   UNL d   1      27.888 -15.865   0.004  0.00  0.00     0.034 C 
ATOM      5  C   UNL d   1      26.877 -15.067  -0.410  0.00  0.00     0.117 C 
ATOM      6  C   UNL d   1      26.464 -14.117   0.528  0.00  0.00     0.016 C 
ATOM      7  C   UNL d   1      26.022 -16.000  -1.138  0.00  0.00     0.250 C 
ATOM      8  O   UNL d   1      26.210 -16.377  -2.287  0.00  0.00    -0.271 OA
ATOM      9  N   UNL d   1      25.581 -16.825  -0.201  0.00  0.00    -0.247 N 
ATOM     10  C   UNL d   1      26.917 -17.194   0.213  0.00  0.00     0.263 C 
ATOM     11  O   UNL d   1      27.432 -18.292   0.360  0.00  0.00    -0.267 OA
ENDROOT
BRANCH   1  12
ATOM     12  C   UNL d   1      26.998 -12.100   1.903  0.00  0.00     0.269 C 
ATOM     13  N   UNL d   1      27.873 -11.572   2.870  0.00  0.00    -0.264 N 
ATOM     14  H   UNL d   1      28.822 -11.905   2.994  0.00  0.00     0.190 HD
ATOM     15  O   UNL d   1      25.959 -11.600   1.598  0.00  0.00    -0.266 OA
BRANCH  13  16
ATOM     16  N   UNL d   1      27.518 -10.352   3.568  0.00  0.00    -0.273 N 
ATOM     17  H   UNL d   1      26.739  -9.834   3.168  0.00  0.00     0.189 HD
BRANCH  16  18
ATOM     18  C   UNL d   1      27.968 -10.107   4.892  0.00  0.00     0.191 C 
ATOM     19  S   UNL d   1      28.645  -8.630   5.336  0.00  0.00    -0.039 SA
BRANCH  18  20
ATOM     20  N   UNL d   1      27.638 -11.169   5.772  0.00  0.00    -0.330 N 
ATOM     21  H   UNL d   1      26.876 -11.001   6.417  0.00  0.00     0.168 HD
BRANCH  20  22
ATOM     22  C   UNL d   1      28.145 -12.525   5.774  0.00  0.00     0.068 C 
ATOM     23  C   UNL d   1      27.399 -13.523   5.089  0.00  0.00     0.032 C 
ATOM     24  C   UNL d   1      27.877 -14.844   4.930  0.00  0.00     0.002 C 
ATOM     25  C   UNL d   1      29.109 -15.200   5.456  0.00  0.00     0.003 C 
ATOM     26  C   UNL d   1      29.793 -14.271   6.236  0.00  0.00     0.039 C 
ATOM     27  C   UNL d   1      29.310 -12.955   6.435  0.00  0.00     0.095 C 
BRANCH  27  28
ATOM     28  O   UNL d   1      30.126 -12.241   7.269  0.00  0.00    -0.354 OA
ATOM     29  C   UNL d   1      31.166 -12.886   7.985  0.00  0.00     0.210 C 
ENDBRANCH  27  28
ENDBRANCH  20  22
ENDBRANCH  18  20
ENDBRANCH  16  18
ENDBRANCH  13  16
ENDBRANCH   1  12
BRANCH   9  30
ATOM     30  C   UNL d   1      24.232 -17.411  -0.534  0.00  0.00     0.045 A 
ATOM     31  C   UNL d   1      23.880 -18.843  -0.423  0.00  0.00     0.032 A 
ATOM     32  C   UNL d   1      22.532 -19.357  -0.522  0.00  0.00     0.026 A 
ATOM     33  C   UNL d   1      21.494 -18.462  -0.691  0.00  0.00     0.034 A 
ATOM     34 CL   UNL d   1      19.839 -18.957  -0.591  0.00  0.00    -0.084 Cl
ATOM     35  C   UNL d   1      21.815 -17.118  -0.893  0.00  0.00     0.026 A 
ATOM     36  C   UNL d   1      23.152 -16.613  -0.859  0.00  0.00     0.032 A 
ENDBRANCH   9  30
TORSDOF 7
ENDMDL
MODEL 3
REMARK VINA RESULT:    -9.347      1.590      1.901
REMARK INTER + INTRA:         -13.864
REMARK INTER:                 -11.435
REMARK INTRA:                  -2.429
REMARK CONF_INDEPENDENT:        2.088
REMARK UNBOUND:                -2.429
REMARK  7 active torsions:
REMARK  status: ('A' for Active; 'I' for Inactive)
REMARK    1  A    between atoms: O_2  and  C_3 
REMARK    2  A    between atoms: C_8  and  N_9 
REMARK    3  A    between atoms: N_9  and  C_10 
REMARK    4  A    between atoms: C_10  and  N_12 
REMARK    5  A    between atoms: N_12  and  N_13 
REMARK       I    between atoms: N_13  and  C_14 
REMARK    6  A    between atoms: C_14  and  C_16 
REMARK    7  A    between atoms: N_24  and  C_25 
ROOT
ATOM      1  C   UNL d   1      28.822 -14.326   3.695  0.00  0.00     0.031 C 
ATOM      2  C   UNL d   1      30.061 -14.010   3.135  0.00  0.00     0.017 C 
ATOM      3  C   UNL d   1      30.258 -14.311   1.747  0.00  0.00     0.015 C 
ATOM      4  C   UNL d   1      29.142 -14.686   0.935  0.00  0.00     0.034 C 
ATOM      5  C   UNL d   1      27.929 -14.358   1.439  0.00  0.00     0.117 C 
ATOM      6  C   UNL d   1      27.780 -14.606   2.806  0.00  0.00     0.016 C 
ATOM      7  C   UNL d   1      27.025 -14.782   0.374  0.00  0.00     0.250 C 
ATOM      8  O   UNL d   1      26.788 -14.145  -0.644  0.00  0.00    -0.271 OA
ATOM      9  N   UNL d   1      27.155 -16.100   0.352  0.00  0.00    -0.247 N 
ATOM     10  C   UNL d   1      28.584 -16.034   0.144  0.00  0.00     0.263 C 
ATOM     11  O   UNL d   1      29.294 -16.570  -0.693  0.00  0.00    -0.267 OA
ENDROOT
BRANCH   1  12
ATOM     12  C   UNL d   1      28.476 -14.111   5.154  0.00  0.00     0.269 C 
ATOM     13  N   UNL d   1      28.453 -12.773   5.588  0.00  0.00    -0.264 N 
ATOM     14  H   UNL d   1      28.419 -11.988   4.949  0.00  0.00     0.190 HD
ATOM     15  O   UNL d   1      28.311 -15.049   5.873  0.00  0.00    -0.266 OA
BRANCH  13  16
ATOM     16  N   UNL d   1      28.229 -12.478   6.990  0.00  0.00    -0.273 N 
ATOM     17  H   UNL d   1      27.966 -13.275   7.565  0.00  0.00     0.189 HD
BRANCH  16  18
ATOM     18  C   UNL d   1      28.699 -11.270   7.569  0.00  0.00     0.191 C 
ATOM     19  S   UNL d   1      28.905  -9.872   6.653  0.00  0.00    -0.039 SA
BRANCH  18  20
ATOM     20  N   UNL d   1      28.810 -11.363   8.980  0.00  0.00    -0.330 N 
ATOM     21  H   UNL d   1      28.795 -10.490   9.494  0.00  0.00     0.168 HD
BRANCH  20  22
ATOM     22  C   UNL d   1      28.788 -12.551   9.807  0.00  0.00     0.068 C 
ATOM     23  C   UNL d   1      28.328 -12.431  11.147  0.00  0.00     0.032 C 
ATOM     24  C   UNL d   1      28.153 -13.555  11.986  0.00  0.00     0.002 C 
ATOM     25  C   UNL d   1      28.439 -14.825  11.510  0.00  0.00     0.003 C 
ATOM     26  C   UNL d   1      29.008 -14.947  10.244  0.00  0.00     0.039 C 
ATOM     27  C   UNL d   1      29.224 -13.827   9.405  0.00  0.00     0.095 C 
BRANCH  27  28
ATOM     28  O   UNL d   1      29.832 -14.187   8.233  0.00  0.00    -0.354 OA
ATOM     29  C   UNL d   1      31.049 -13.575   7.836  0.00  0.00     0.210 C 
ENDBRANCH  27  28
ENDBRANCH  20  22
ENDBRANCH  18  20
ENDBRANCH  16  18
ENDBRANCH  13  16
ENDBRANCH   1  12
BRANCH   9  30
ATOM     30  C   UNL d   1      25.909 -16.796  -0.138  0.00  0.00     0.045 A 
ATOM     31  C   UNL d   1      25.572 -18.211   0.125  0.00  0.00     0.032 A 
ATOM     32  C   UNL d   1      24.280 -18.802  -0.148  0.00  0.00     0.026 A 
ATOM     33  C   UNL d   1      23.278 -17.995  -0.650  0.00  0.00     0.034 A 
ATOM     34 CL   UNL d   1      21.646 -18.552  -0.792  0.00  0.00    -0.084 Cl
ATOM     35  C   UNL d   1      23.605 -16.682  -0.993  0.00  0.00     0.026 A 
ATOM     36  C   UNL d   1      24.899 -16.110  -0.784  0.00  0.00     0.032 A 
ENDBRANCH   9  30
TORSDOF 7
ENDMDL
MODEL 4
REMARK VINA RESULT:    -9.263      2.352      3.164
REMARK INTER + INTRA:         -14.119
REMARK INTER:                 -11.351
REMARK INTRA:                  -2.768
REMARK CONF_INDEPENDENT:        2.088
REMARK UNBOUND:                -2.768
REMARK  7 active torsions:
REMARK  status: ('A' for Active; 'I' for Inactive)
REMARK    1  A    between atoms: O_2  and  C_3 
REMARK    2  A    between atoms: C_8  and  N_9 
REMARK    3  A    between atoms: N_9  and  C_10 
REMARK    4  A    between atoms: C_10  and  N_12 
REMARK    5  A    between atoms: N_12  and  N_13 
REMARK       I    between atoms: N_13  and  C_14 
REMARK    6  A    between atoms: C_14  and  C_16 
REMARK    7  A    between atoms: N_24  and  C_25 
ROOT
ATOM      1  C   UNL d   1      27.573 -13.578   1.250  0.00  0.00     0.031 C 
ATOM      2  C   UNL d   1      28.876 -14.076   1.210  0.00  0.00     0.017 C 
ATOM      3  C   UNL d   1      29.068 -15.388   0.666  0.00  0.00     0.015 C 
ATOM      4  C   UNL d   1      27.997 -16.036  -0.026  0.00  0.00     0.034 C 
ATOM      5  C   UNL d   1      27.008 -15.214  -0.450  0.00  0.00     0.117 C 
ATOM      6  C   UNL d   1      26.617 -14.246   0.478  0.00  0.00     0.016 C 
ATOM      7  C   UNL d   1      26.131 -16.131  -1.172  0.00  0.00     0.250 C 
ATOM      8  O   UNL d   1      26.312 -16.524  -2.317  0.00  0.00    -0.271 OA
ATOM      9  N   UNL d   1      25.665 -16.935  -0.229  0.00  0.00    -0.247 N 
ATOM     10  C   UNL d   1      26.989 -17.336   0.192  0.00  0.00     0.263 C 
ATOM     11  O   UNL d   1      27.475 -18.446   0.351  0.00  0.00    -0.267 OA
ENDROOT
BRANCH   1  12
ATOM     12  C   UNL d   1      27.202 -12.231   1.835  0.00  0.00     0.269 C 
ATOM     13  N   UNL d   1      27.853 -11.883   3.033  0.00  0.00    -0.264 N 
ATOM     14  H   UNL d   1      28.684 -12.358   3.366  0.00  0.00     0.190 HD
ATOM     15  O   UNL d   1      26.354 -11.569   1.320  0.00  0.00    -0.266 OA
BRANCH  13  16
ATOM     16  N   UNL d   1      27.489 -10.658   3.718  0.00  0.00    -0.273 N 
ATOM     17  H   UNL d   1      26.622 -10.227   3.405  0.00  0.00     0.189 HD
BRANCH  16  18
ATOM     18  C   UNL d   1      28.088 -10.303   4.955  0.00  0.00     0.191 C 
ATOM     19  S   UNL d   1      29.108  -8.970   5.092  0.00  0.00    -0.039 SA
BRANCH  18  20
ATOM     20  N   UNL d   1      27.604 -11.094   6.028  0.00  0.00    -0.330 N 
ATOM     21  H   UNL d   1      26.610 -11.038   6.218  0.00  0.00     0.168 HD
BRANCH  20  22
ATOM     22  C   UNL d   1      28.312 -12.093   6.799  0.00  0.00     0.068 C 
ATOM     23  C   UNL d   1      28.582 -11.820   8.168  0.00  0.00     0.032 C 
ATOM     24  C   UNL d   1      29.155 -12.785   9.029  0.00  0.00     0.002 C 
ATOM     25  C   UNL d   1      29.477 -14.041   8.542  0.00  0.00     0.003 C 
ATOM     26  C   UNL d   1      29.336 -14.281   7.177  0.00  0.00     0.039 C 
ATOM     27  C   UNL d   1      28.797 -13.313   6.294  0.00  0.00     0.095 C 
BRANCH  27  28
ATOM     28  O   UNL d   1      28.797 -13.758   5.001  0.00  0.00    -0.354 OA
ATOM     29  C   UNL d   1      27.949 -14.824   4.606  0.00  0.00     0.210 C 
ENDBRANCH  27  28
ENDBRANCH  20  22
ENDBRANCH  18  20
ENDBRANCH  16  18
ENDBRANCH  13  16
ENDBRANCH   1  12
BRANCH   9  30
ATOM     30  C   UNL d   1      24.302 -17.488  -0.561  0.00  0.00     0.045 A 
ATOM     31  C   UNL d   1      23.923 -18.915  -0.475  0.00  0.00     0.032 A 
ATOM     32  C   UNL d   1      22.564 -19.401  -0.571  0.00  0.00     0.026 A 
ATOM     33  C   UNL d   1      21.542 -18.483  -0.712  0.00  0.00     0.034 A 
ATOM     34 CL   UNL d   1      19.879 -18.948  -0.606  0.00  0.00    -0.084 Cl
ATOM     35  C   UNL d   1      21.887 -17.142  -0.890  0.00  0.00     0.026 A 
ATOM     36  C   UNL d   1      23.235 -16.663  -0.860  0.00  0.00     0.032 A 
ENDBRANCH   9  30
TORSDOF 7
ENDMDL
MODEL 5
REMARK VINA RESULT:    -9.184      7.132     10.734
REMARK INTER + INTRA:         -14.222
REMARK INTER:                 -11.272
REMARK INTRA:                  -2.949
REMARK CONF_INDEPENDENT:        2.088
REMARK UNBOUND:                -2.949
REMARK  7 active torsions:
REMARK  status: ('A' for Active; 'I' for Inactive)
REMARK    1  A    between atoms: O_2  and  C_3 
REMARK    2  A    between atoms: C_8  and  N_9 
REMARK    3  A    between atoms: N_9  and  C_10 
REMARK    4  A    between atoms: C_10  and  N_12 
REMARK    5  A    between atoms: N_12  and  N_13 
REMARK       I    between atoms: N_13  and  C_14 
REMARK    6  A    between atoms: C_14  and  C_16 
REMARK    7  A    between atoms: N_24  and  C_25 
ROOT
ATOM      1  C   UNL d   1      28.411 -15.074  -3.734  0.00  0.00     0.031 C 
ATOM      2  C   UNL d   1      29.262 -14.325  -2.919  0.00  0.00     0.017 C 
ATOM      3  C   UNL d   1      28.953 -14.260  -1.521  0.00  0.00     0.015 C 
ATOM      4  C   UNL d   1      27.961 -15.132  -0.970  0.00  0.00     0.034 C 
ATOM      5  C   UNL d   1      27.663 -16.213  -1.727  0.00  0.00     0.117 C 
ATOM      6  C   UNL d   1      27.530 -15.948  -3.093  0.00  0.00     0.016 C 
ATOM      7  C   UNL d   1      26.711 -16.930  -0.883  0.00  0.00     0.250 C 
ATOM      8  O   UNL d   1      27.010 -17.655   0.055  0.00  0.00    -0.271 OA
ATOM      9  N   UNL d   1      25.663 -16.123  -0.829  0.00  0.00    -0.247 N 
ATOM     10  C   UNL d   1      26.441 -15.018  -0.314  0.00  0.00     0.263 C 
ATOM     11  O   UNL d   1      26.263 -14.303   0.660  0.00  0.00    -0.267 OA
ENDROOT
BRANCH   1  12
ATOM     12  C   UNL d   1      28.578 -15.201  -5.235  0.00  0.00     0.269 C 
ATOM     13  N   UNL d   1      29.904 -15.215  -5.705  0.00  0.00    -0.264 N 
ATOM     14  H   UNL d   1      30.700 -15.379  -5.101  0.00  0.00     0.190 HD
ATOM     15  O   UNL d   1      27.618 -15.214  -5.943  0.00  0.00    -0.266 OA
BRANCH  13  16
ATOM     16  N   UNL d   1      30.158 -15.234  -7.133  0.00  0.00    -0.273 N 
ATOM     17  H   UNL d   1      29.411 -14.857  -7.711  0.00  0.00     0.189 HD
BRANCH  16  18
ATOM     18  C   UNL d   1      31.470 -15.415  -7.642  0.00  0.00     0.191 C 
ATOM     19  S   UNL d   1      32.229 -14.233  -8.570  0.00  0.00    -0.039 SA
BRANCH  18  20
ATOM     20  N   UNL d   1      32.074 -16.601  -7.149  0.00  0.00    -0.330 N 
ATOM     21  H   UNL d   1      33.067 -16.555  -6.953  0.00  0.00     0.168 HD
BRANCH  20  22
ATOM     22  C   UNL d   1      31.433 -17.833  -6.742  0.00  0.00     0.068 C 
ATOM     23  C   UNL d   1      31.183 -18.821  -7.733  0.00  0.00     0.032 C 
ATOM     24  C   UNL d   1      30.678 -20.102  -7.409  0.00  0.00     0.002 C 
ATOM     25  C   UNL d   1      30.406 -20.423  -6.088  0.00  0.00     0.003 C 
ATOM     26  C   UNL d   1      30.527 -19.426  -5.123  0.00  0.00     0.039 C 
ATOM     27  C   UNL d   1      30.996 -18.127  -5.437  0.00  0.00     0.095 C 
BRANCH  27  28
ATOM     28  O   UNL d   1      30.988 -17.311  -4.340  0.00  0.00    -0.354 OA
ATOM     29  C   UNL d   1      30.650 -17.825  -3.062  0.00  0.00     0.210 C 
ENDBRANCH  27  28
ENDBRANCH  20  22
ENDBRANCH  18  20
ENDBRANCH  16  18
ENDBRANCH  13  16
ENDBRANCH   1  12
BRANCH   9  30
ATOM     30  C   UNL d   1      24.368 -16.870  -0.620  0.00  0.00     0.045 A 
ATOM     31  C   UNL d   1      23.021 -16.316  -0.876  0.00  0.00     0.032 A 
ATOM     32  C   UNL d   1      21.810 -17.107  -0.894  0.00  0.00     0.026 A 
ATOM     33  C   UNL d   1      21.907 -18.470  -0.700  0.00  0.00     0.034 A 
ATOM     34 CL   UNL d   1      20.553 -19.522  -0.930  0.00  0.00    -0.084 Cl
ATOM     35  C   UNL d   1      23.156 -18.996  -0.362  0.00  0.00     0.026 A 
ATOM     36  C   UNL d   1      24.347 -18.208  -0.281  0.00  0.00     0.032 A 
ENDBRANCH   9  30
TORSDOF 7
ENDMDL
MODEL 6
REMARK VINA RESULT:    -8.905      6.823     10.027
REMARK INTER + INTRA:         -14.203
REMARK INTER:                 -10.993
REMARK INTRA:                  -3.210
REMARK CONF_INDEPENDENT:        2.088
REMARK UNBOUND:                -3.210
REMARK  7 active torsions:
REMARK  status: ('A' for Active; 'I' for Inactive)
REMARK    1  A    between atoms: O_2  and  C_3 
REMARK    2  A    between atoms: C_8  and  N_9 
REMARK    3  A    between atoms: N_9  and  C_10 
REMARK    4  A    between atoms: C_10  and  N_12 
REMARK    5  A    between atoms: N_12  and  N_13 
REMARK       I    between atoms: N_13  and  C_14 
REMARK    6  A    between atoms: C_14  and  C_16 
REMARK    7  A    between atoms: N_24  and  C_25 
ROOT
ATOM      1  C   UNL d   1      29.577 -15.844  -2.349  0.00  0.00     0.031 C 
ATOM      2  C   UNL d   1      30.087 -14.959  -1.398  0.00  0.00     0.017 C 
ATOM      3  C   UNL d   1      29.278 -14.683  -0.247  0.00  0.00     0.015 C 
ATOM      4  C   UNL d   1      28.120 -15.480   0.016  0.00  0.00     0.034 C 
ATOM      5  C   UNL d   1      28.086 -16.672  -0.624  0.00  0.00     0.117 C 
ATOM      6  C   UNL d   1      28.486 -16.628  -1.962  0.00  0.00     0.016 C 
ATOM      7  C   UNL d   1      26.860 -17.271  -0.101  0.00  0.00     0.250 C 
ATOM      8  O   UNL d   1      26.757 -17.834   0.980  0.00  0.00    -0.271 OA
ATOM      9  N   UNL d   1      25.900 -16.489  -0.570  0.00  0.00    -0.247 N 
ATOM     10  C   UNL d   1      26.470 -15.300   0.025  0.00  0.00     0.263 C 
ATOM     11  O   UNL d   1      25.967 -14.445   0.738  0.00  0.00    -0.267 OA
ENDROOT
BRANCH   1  12
ATOM     12  C   UNL d   1      30.289 -16.201  -3.638  0.00  0.00     0.269 C 
ATOM     13  N   UNL d   1      29.472 -16.683  -4.677  0.00  0.00    -0.264 N 
ATOM     14  H   UNL d   1      28.464 -16.576  -4.679  0.00  0.00     0.190 HD
ATOM     15  O   UNL d   1      31.478 -16.130  -3.701  0.00  0.00    -0.266 OA
BRANCH  13  16
ATOM     16  N   UNL d   1      30.078 -17.142  -5.912  0.00  0.00    -0.273 N 
ATOM     17  H   UNL d   1      29.921 -18.122  -6.134  0.00  0.00     0.189 HD
BRANCH  16  18
ATOM     18  C   UNL d   1      30.524 -16.221  -6.896  0.00  0.00     0.191 C 
ATOM     19  S   UNL d   1      31.953 -16.467  -7.752  0.00  0.00    -0.039 SA
BRANCH  18  20
ATOM     20  N   UNL d   1      29.567 -15.206  -7.149  0.00  0.00    -0.330 N 
ATOM     21  H   UNL d   1      29.133 -15.212  -8.065  0.00  0.00     0.168 HD
BRANCH  20  22
ATOM     22  C   UNL d   1      29.007 -14.247  -6.221  0.00  0.00     0.068 C 
ATOM     23  C   UNL d   1      29.778 -13.098  -5.894  0.00  0.00     0.032 C 
ATOM     24  C   UNL d   1      29.264 -12.048  -5.098  0.00  0.00     0.002 C 
ATOM     25  C   UNL d   1      27.971 -12.124  -4.606  0.00  0.00     0.003 C 
ATOM     26  C   UNL d   1      27.249 -13.297  -4.812  0.00  0.00     0.039 C 
ATOM     27  C   UNL d   1      27.763 -14.373  -5.576  0.00  0.00     0.095 C 
BRANCH  27  28
ATOM     28  O   UNL d   1      26.895 -15.430  -5.604  0.00  0.00    -0.354 OA
ATOM     29  C   UNL d   1      25.905 -15.574  -4.599  0.00  0.00     0.210 C 
ENDBRANCH  27  28
ENDBRANCH  20  22
ENDBRANCH  18  20
ENDBRANCH  16  18
ENDBRANCH  13  16
ENDBRANCH   1  12
BRANCH   9  30
ATOM     30  C   UNL d   1      24.594 -17.222  -0.753  0.00  0.00     0.045 A 
ATOM     31  C   UNL d   1      24.405 -18.674  -0.553  0.00  0.00     0.032 A 
ATOM     32  C   UNL d   1      23.113 -19.325  -0.504  0.00  0.00     0.026 A 
ATOM     33  C   UNL d   1      21.977 -18.547  -0.611  0.00  0.00     0.034 A 
ATOM     34 CL   UNL d   1      20.398 -19.199  -0.337  0.00  0.00    -0.084 Cl
ATOM     35  C   UNL d   1      22.138 -17.189  -0.895  0.00  0.00     0.026 A 
ATOM     36  C   UNL d   1      23.413 -16.552  -1.007  0.00  0.00     0.032 A 
ENDBRANCH   9  30
TORSDOF 7
ENDMDL
MODEL 7
REMARK VINA RESULT:    -8.556      6.604      9.950
REMARK INTER + INTRA:         -13.526
REMARK INTER:                 -10.645
REMARK INTRA:                  -2.882
REMARK CONF_INDEPENDENT:        2.088
REMARK UNBOUND:                -2.882
REMARK  7 active torsions:
REMARK  status: ('A' for Active; 'I' for Inactive)
REMARK    1  A    between atoms: O_2  and  C_3 
REMARK    2  A    between atoms: C_8  and  N_9 
REMARK    3  A    between atoms: N_9  and  C_10 
REMARK    4  A    between atoms: C_10  and  N_12 
REMARK    5  A    between atoms: N_12  and  N_13 
REMARK       I    between atoms: N_13  and  C_14 
REMARK    6  A    between atoms: C_14  and  C_16 
REMARK    7  A    between atoms: N_24  and  C_25 
ROOT
ATOM      1  C   UNL d   1      29.493 -15.694  -2.827  0.00  0.00     0.031 C 
ATOM      2  C   UNL d   1      30.461 -15.386  -1.869  0.00  0.00     0.017 C 
ATOM      3  C   UNL d   1      30.117 -15.586  -0.492  0.00  0.00     0.015 C 
ATOM      4  C   UNL d   1      28.926 -16.302  -0.152  0.00  0.00     0.034 C 
ATOM      5  C   UNL d   1      28.415 -17.067  -1.143  0.00  0.00     0.117 C 
ATOM      6  C   UNL d   1      28.405 -16.461  -2.402  0.00  0.00     0.016 C 
ATOM      7  C   UNL d   1      27.287 -17.718  -0.482  0.00  0.00     0.250 C 
ATOM      8  O   UNL d   1      27.368 -18.696   0.248  0.00  0.00    -0.271 OA
ATOM      9  N   UNL d   1      26.456 -16.722  -0.218  0.00  0.00    -0.247 N 
ATOM     10  C   UNL d   1      27.449 -15.990   0.537  0.00  0.00     0.263 C 
ATOM     11  O   UNL d   1      27.404 -15.507   1.657  0.00  0.00    -0.267 OA
ENDROOT
BRANCH   1  12
ATOM     12  C   UNL d   1      29.688 -15.495  -4.317  0.00  0.00     0.269 C 
ATOM     13  N   UNL d   1      29.968 -14.179  -4.728  0.00  0.00    -0.264 N 
ATOM     14  H   UNL d   1      30.268 -13.454  -4.087  0.00  0.00     0.190 HD
ATOM     15  O   UNL d   1      29.533 -16.411  -5.066  0.00  0.00    -0.266 OA
BRANCH  13  16
ATOM     16  N   UNL d   1      30.072 -13.877  -6.142  0.00  0.00    -0.273 N 
ATOM     17  H   UNL d   1      30.991 -14.023  -6.551  0.00  0.00     0.189 HD
BRANCH  16  18
ATOM     18  C   UNL d   1      28.913 -13.750  -6.952  0.00  0.00     0.191 C 
ATOM     19  S   UNL d   1      28.927 -12.863  -8.383  0.00  0.00    -0.039 SA
BRANCH  18  20
ATOM     20  N   UNL d   1      27.847 -14.564  -6.488  0.00  0.00    -0.330 N 
ATOM     21  H   UNL d   1      27.775 -15.489  -6.894  0.00  0.00     0.168 HD
BRANCH  20  22
ATOM     22  C   UNL d   1      26.932 -14.310  -5.396  0.00  0.00     0.068 C 
ATOM     23  C   UNL d   1      26.336 -15.424  -4.744  0.00  0.00     0.032 C 
ATOM     24  C   UNL d   1      25.530 -15.279  -3.591  0.00  0.00     0.002 C 
ATOM     25  C   UNL d   1      25.297 -14.018  -3.065  0.00  0.00     0.003 C 
ATOM     26  C   UNL d   1      25.769 -12.910  -3.764  0.00  0.00     0.039 C 
ATOM     27  C   UNL d   1      26.547 -13.036  -4.940  0.00  0.00     0.095 C 
BRANCH  27  28
ATOM     28  O   UNL d   1      26.857 -11.814  -5.471  0.00  0.00    -0.354 OA
ATOM     29  C   UNL d   1      25.831 -10.927  -5.885  0.00  0.00     0.210 C 
ENDBRANCH  27  28
ENDBRANCH  20  22
ENDBRANCH  18  20
ENDBRANCH  16  18
ENDBRANCH  13  16
ENDBRANCH   1  12
BRANCH   9  30
ATOM     30  C   UNL d   1      25.015 -17.167  -0.174  0.00  0.00     0.045 A 
ATOM     31  C   UNL d   1      23.857 -16.322  -0.536  0.00  0.00     0.032 A 
ATOM     32  C   UNL d   1      22.511 -16.822  -0.712  0.00  0.00     0.026 A 
ATOM     33  C   UNL d   1      22.287 -18.178  -0.574  0.00  0.00     0.034 A 
ATOM     34 CL   UNL d   1      20.768 -18.896  -0.987  0.00  0.00    -0.084 Cl
ATOM     35  C   UNL d   1      23.346 -18.976  -0.139  0.00  0.00     0.026 A 
ATOM     36  C   UNL d   1      24.665 -18.475   0.098  0.00  0.00     0.032 A 
ENDBRANCH   9  30
TORSDOF 7
ENDMDL
MODEL 8
REMARK VINA RESULT:    -8.517      7.611      9.659
REMARK INTER + INTRA:         -13.646
REMARK INTER:                 -10.605
REMARK INTRA:                  -3.041
REMARK CONF_INDEPENDENT:        2.088
REMARK UNBOUND:                -3.041
REMARK  7 active torsions:
REMARK  status: ('A' for Active; 'I' for Inactive)
REMARK    1  A    between atoms: O_2  and  C_3 
REMARK    2  A    between atoms: C_8  and  N_9 
REMARK    3  A    between atoms: N_9  and  C_10 
REMARK    4  A    between atoms: C_10  and  N_12 
REMARK    5  A    between atoms: N_12  and  N_13 
REMARK       I    between atoms: N_13  and  C_14 
REMARK    6  A    between atoms: C_14  and  C_16 
REMARK    7  A    between atoms: N_24  and  C_25 
ROOT
ATOM      1  C   UNL d   1      25.176 -15.204  -2.296  0.00  0.00     0.031 C 
ATOM      2  C   UNL d   1      26.459 -15.571  -1.886  0.00  0.00     0.017 C 
ATOM      3  C   UNL d   1      26.582 -16.731  -1.053  0.00  0.00     0.015 C 
ATOM      4  C   UNL d   1      25.458 -17.597  -0.868  0.00  0.00     0.034 C 
ATOM      5  C   UNL d   1      24.480 -17.473  -1.794  0.00  0.00     0.117 C 
ATOM      6  C   UNL d   1      24.165 -16.155  -2.136  0.00  0.00     0.016 C 
ATOM      7  C   UNL d   1      23.540 -18.517  -1.395  0.00  0.00     0.250 C 
ATOM      8  O   UNL d   1      23.655 -19.706  -1.659  0.00  0.00    -0.271 OA
ATOM      9  N   UNL d   1      23.091 -18.107  -0.218  0.00  0.00    -0.247 N 
ATOM     10  C   UNL d   1      24.419 -18.033   0.350  0.00  0.00     0.263 C 
ATOM     11  O   UNL d   1      24.874 -18.506   1.381  0.00  0.00    -0.267 OA
ENDROOT
BRANCH   1  12
ATOM     12  C   UNL d   1      24.878 -13.981  -3.140  0.00  0.00     0.269 C 
ATOM     13  N   UNL d   1      25.758 -12.895  -2.977  0.00  0.00    -0.264 N 
ATOM     14  H   UNL d   1      26.663 -12.982  -2.531  0.00  0.00     0.190 HD
ATOM     15  O   UNL d   1      23.907 -13.955  -3.832  0.00  0.00    -0.266 OA
BRANCH  13  16
ATOM     16  N   UNL d   1      25.493 -11.648  -3.669  0.00  0.00    -0.273 N 
ATOM     17  H   UNL d   1      24.516 -11.368  -3.700  0.00  0.00     0.189 HD
BRANCH  16  18
ATOM     18  C   UNL d   1      26.537 -10.726  -3.943  0.00  0.00     0.191 C 
ATOM     19  S   UNL d   1      26.698  -9.289  -3.081  0.00  0.00    -0.039 SA
BRANCH  18  20
ATOM     20  N   UNL d   1      27.465 -11.238  -4.887  0.00  0.00    -0.330 N 
ATOM     21  H   UNL d   1      27.926 -10.559  -5.481  0.00  0.00     0.168 HD
BRANCH  20  22
ATOM     22  C   UNL d   1      27.960 -12.592  -5.017  0.00  0.00     0.068 C 
ATOM     23  C   UNL d   1      27.872 -13.221  -6.289  0.00  0.00     0.032 C 
ATOM     24  C   UNL d   1      28.442 -14.490  -6.543  0.00  0.00     0.002 C 
ATOM     25  C   UNL d   1      29.107 -15.163  -5.530  0.00  0.00     0.003 C 
ATOM     26  C   UNL d   1      29.093 -14.617  -4.248  0.00  0.00     0.039 C 
ATOM     27  C   UNL d   1      28.495 -13.364  -3.970  0.00  0.00     0.095 C 
BRANCH  27  28
ATOM     28  O   UNL d   1      28.566 -13.057  -2.639  0.00  0.00    -0.354 OA
ATOM     29  C   UNL d   1      29.713 -13.406  -1.881  0.00  0.00     0.210 C 
ENDBRANCH  27  28
ENDBRANCH  20  22
ENDBRANCH  18  20
ENDBRANCH  16  18
ENDBRANCH  13  16
ENDBRANCH   1  12
BRANCH   9  30
ATOM     30  C   UNL d   1      21.696 -18.602   0.073  0.00  0.00     0.045 A 
ATOM     31  C   UNL d   1      20.670 -18.892  -0.952  0.00  0.00     0.032 A 
ATOM     32  C   UNL d   1      19.426 -19.579  -0.682  0.00  0.00     0.026 A 
ATOM     33  C   UNL d   1      19.186 -20.032   0.600  0.00  0.00     0.034 A 
ATOM     34 CL   UNL d   1      17.841 -21.057   0.967  0.00  0.00    -0.084 Cl
ATOM     35  C   UNL d   1      20.097 -19.684   1.599  0.00  0.00     0.026 A 
ATOM     36  C   UNL d   1      21.299 -18.950   1.349  0.00  0.00     0.032 A 
ENDBRANCH   9  30
TORSDOF 7
ENDMDL
MODEL 9
REMARK VINA RESULT:    -8.470      6.525      9.630
REMARK INTER + INTRA:         -13.777
REMARK INTER:                 -10.558
REMARK INTRA:                  -3.219
REMARK CONF_INDEPENDENT:        2.088
REMARK UNBOUND:                -3.219
REMARK  7 active torsions:
REMARK  status: ('A' for Active; 'I' for Inactive)
REMARK    1  A    between atoms: O_2  and  C_3 
REMARK    2  A    between atoms: C_8  and  N_9 
REMARK    3  A    between atoms: N_9  and  C_10 
REMARK    4  A    between atoms: C_10  and  N_12 
REMARK    5  A    between atoms: N_12  and  N_13 
REMARK       I    between atoms: N_13  and  C_14 
REMARK    6  A    between atoms: C_14  and  C_16 
REMARK    7  A    between atoms: N_24  and  C_25 
ROOT
ATOM      1  C   UNL d   1      27.611 -12.384  -1.146  0.00  0.00     0.031 C 
ATOM      2  C   UNL d   1      28.818 -12.572  -0.471  0.00  0.00     0.017 C 
ATOM      3  C   UNL d   1      29.063 -13.862   0.103  0.00  0.00     0.015 C 
ATOM      4  C   UNL d   1      28.209 -14.962  -0.228  0.00  0.00     0.034 C 
ATOM      5  C   UNL d   1      27.470 -14.797  -1.349  0.00  0.00     0.117 C 
ATOM      6  C   UNL d   1      26.891 -13.533  -1.485  0.00  0.00     0.016 C 
ATOM      7  C   UNL d   1      26.788 -16.084  -1.463  0.00  0.00     0.250 C 
ATOM      8  O   UNL d   1      27.282 -17.104  -1.924  0.00  0.00    -0.271 OA
ATOM      9  N   UNL d   1      25.990 -16.115  -0.406  0.00  0.00    -0.247 N 
ATOM     10  C   UNL d   1      27.083 -15.922   0.522  0.00  0.00     0.263 C 
ATOM     11  O   UNL d   1      27.404 -16.552   1.518  0.00  0.00    -0.267 OA
ENDROOT
BRANCH   1  12
ATOM     12  C   UNL d   1      27.187 -11.068  -1.766  0.00  0.00     0.269 C 
ATOM     13  N   UNL d   1      26.298 -11.160  -2.852  0.00  0.00    -0.264 N 
ATOM     14  H   UNL d   1      25.774 -12.001  -3.064  0.00  0.00     0.190 HD
ATOM     15  O   UNL d   1      27.658 -10.044  -1.374  0.00  0.00    -0.266 OA
BRANCH  13  16
ATOM     16  N   UNL d   1      25.916  -9.960  -3.570  0.00  0.00    -0.273 N 
ATOM     17  H   UNL d   1      26.031  -9.091  -3.055  0.00  0.00     0.189 HD
BRANCH  16  18
ATOM     18  C   UNL d   1      25.754  -9.969  -4.980  0.00  0.00     0.191 C 
ATOM     19  S   UNL d   1      25.987  -8.582  -5.906  0.00  0.00    -0.039 SA
BRANCH  18  20
ATOM     20  N   UNL d   1      25.536 -11.278  -5.483  0.00  0.00    -0.330 N 
ATOM     21  H   UNL d   1      24.725 -11.405  -6.077  0.00  0.00     0.168 HD
BRANCH  20  22
ATOM     22  C   UNL d   1      26.403 -12.433  -5.388  0.00  0.00     0.068 C 
ATOM     23  C   UNL d   1      27.739 -12.312  -5.860  0.00  0.00     0.032 C 
ATOM     24  C   UNL d   1      28.692 -13.343  -5.694  0.00  0.00     0.002 C 
ATOM     25  C   UNL d   1      28.332 -14.521  -5.058  0.00  0.00     0.003 C 
ATOM     26  C   UNL d   1      26.997 -14.703  -4.703  0.00  0.00     0.039 C 
ATOM     27  C   UNL d   1      26.023 -13.694  -4.896  0.00  0.00     0.095 C 
BRANCH  27  28
ATOM     28  O   UNL d   1      24.779 -14.117  -4.513  0.00  0.00    -0.354 OA
ATOM     29  C   UNL d   1      24.403 -14.103  -3.145  0.00  0.00     0.210 C 
ENDBRANCH  27  28
ENDBRANCH  20  22
ENDBRANCH  18  20
ENDBRANCH  16  18
ENDBRANCH  13  16
ENDBRANCH   1  12
BRANCH   9  30
ATOM     30  C   UNL d   1      24.756 -16.951  -0.638  0.00  0.00     0.045 A 
ATOM     31  C   UNL d   1      24.697 -18.424  -0.519  0.00  0.00     0.032 A 
ATOM     32  C   UNL d   1      23.470 -19.189  -0.516  0.00  0.00     0.026 A 
ATOM     33  C   UNL d   1      22.269 -18.511  -0.587  0.00  0.00     0.034 A 
ATOM     34 CL   UNL d   1      20.754 -19.317  -0.361  0.00  0.00    -0.084 Cl
ATOM     35  C   UNL d   1      22.307 -17.131  -0.795  0.00  0.00     0.026 A 
ATOM     36  C   UNL d   1      23.520 -16.377  -0.863  0.00  0.00     0.032 A 
ENDBRANCH   9  30
TORSDOF 7
ENDMDL
