MODEL 1
REMARK VINA RESULT:    -7.344      0.000      0.000
REMARK INTER + INTRA:         -14.419
REMARK INTER:                 -10.029
REMARK INTRA:                  -4.390
REMARK CONF_INDEPENDENT:        2.685
REMARK UNBOUND:                -4.390
REMARK  9 active torsions:
REMARK  status: ('A' for Active; 'I' for Inactive)
REMARK    1  A    between atoms: O_2  and  C_3 
REMARK    2  A    between atoms: C_9  and  C_10 
REMARK    3  A    between atoms: C_10  and  C_11 
REMARK    4  A    between atoms: C_11  and  N_12 
REMARK       I    between atoms: N_12  and  C_13 
REMARK    5  A    between atoms: C_13  and  C_15 
REMARK    6  A    between atoms: C_15  and  C_16 
REMARK    7  A    between atoms: C_17  and  C_16 
REMARK    8  A    between atoms: C_20  and  C_21 
REMARK       I    between atoms: C_21  and  N_23 
REMARK    9  A    between atoms: N_23  and  C_24 
ROOT
ATOM      1  C   UNL d   1      28.299 -13.540  -6.053  0.00  0.00     0.105 C 
ENDROOT
BRANCH   1   2
ATOM      2  C   UNL d   1      27.207 -14.357  -5.392  0.00  0.00     0.217 C 
ATOM      3  N   UNL d   1      26.216 -13.601  -4.804  0.00  0.00    -0.361 N 
ATOM      4  H   UNL d   1      26.210 -12.597  -4.946  0.00  0.00     0.162 HD
ATOM      5  O   UNL d   1      27.204 -15.585  -5.335  0.00  0.00    -0.274 OA
BRANCH   3   6
ATOM      6  C   UNL d   1      25.141 -14.274  -4.126  0.00  0.00     0.127 C 
BRANCH   6   7
ATOM      7  C   UNL d   1      25.199 -14.132  -2.609  0.00  0.00     0.056 C 
BRANCH   7   8
ATOM      8  C   UNL d   1      25.652 -15.378  -1.910  0.00  0.00    -0.048 A 
ATOM      9  C   UNL d   1      24.862 -16.318  -1.376  0.00  0.00    -0.003 A 
ATOM     10  C   UNL d   1      25.783 -17.316  -0.806  0.00  0.00     0.039 A 
ATOM     11  C   UNL d   1      23.447 -16.478  -1.270  0.00  0.00     0.050 A 
ATOM     12  C   UNL d   1      25.203 -18.495  -0.145  0.00  0.00     0.033 A 
ATOM     13  N   UNL d   1      27.014 -16.998  -0.982  0.00  0.00    -0.385 N 
ATOM     14  C   UNL d   1      23.858 -18.575  -0.088  0.00  0.00     0.039 A 
ATOM     15  C   UNL d   1      22.963 -17.545  -0.613  0.00  0.00     0.069 A 
ATOM     16  C   UNL d   1      27.104 -15.717  -1.704  0.00  0.00     0.155 A 
ATOM     17  H   UNL d   1      27.795 -17.561  -0.660  0.00  0.00     0.160 HD
BRANCH  15  18
ATOM     18  O   UNL d   1      21.602 -17.744  -0.523  0.00  0.00    -0.356 OA
ATOM     19  C   UNL d   1      21.196 -19.067  -0.167  0.00  0.00     0.210 C 
ENDBRANCH  15  18
ENDBRANCH   7   8
ENDBRANCH   6   7
ENDBRANCH   3   6
ENDBRANCH   1   2
BRANCH   1  20
ATOM     20  C   UNL d   1      28.403 -12.174  -5.375  0.00  0.00     0.041 C 
BRANCH  20  21
ATOM     21  C   UNL d   1      27.911 -10.963  -6.190  0.00  0.00     0.135 C 
ATOM     22  N   UNL d   1      26.552 -11.256  -6.683  0.00  0.00    -0.245 NA
ATOM     23  N   UNL d   1      25.530 -10.687  -5.769  0.00  0.00    -0.237 NA
ATOM     24  H   UNL d   1      26.441 -12.265  -6.814  0.00  0.00     0.142 HD
ATOM     25  C   UNL d   1      26.136  -9.839  -4.721  0.00  0.00     0.226 C 
ATOM     26  H   UNL d   1      24.887 -11.382  -5.395  0.00  0.00     0.142 HD
ATOM     27  S   UNL d   1      27.779  -9.382  -5.335  0.00  0.00    -0.117 SA
BRANCH  25  28
ATOM     28  C   UNL d   1      26.283 -10.601  -3.373  0.00  0.00     0.251 C 
ATOM     29  O   UNL d   1      25.530 -11.530  -3.068  0.00  0.00    -0.270 OA
ATOM     30  N   UNL d   1      27.287 -10.192  -2.501  0.00  0.00    -0.325 N 
ATOM     31  H   UNL d   1      27.732  -9.295  -2.642  0.00  0.00     0.169 HD
BRANCH  30  32
ATOM     32  C   UNL d   1      27.405 -10.819  -1.230  0.00  0.00     0.034 A 
ATOM     33  C   UNL d   1      27.500 -12.216  -1.124  0.00  0.00     0.029 A 
ATOM     34  C   UNL d   1      27.399 -12.857   0.109  0.00  0.00     0.002 A 
ATOM     35  C   UNL d   1      27.318 -12.095   1.266  0.00  0.00     0.000 A 
ATOM     36  C   UNL d   1      27.355 -10.701   1.183  0.00  0.00     0.002 A 
ATOM     37  C   UNL d   1      27.366 -10.059  -0.064  0.00  0.00     0.029 A 
ENDBRANCH  30  32
ENDBRANCH  25  28
ENDBRANCH  20  21
ENDBRANCH   1  20
TORSDOF 9
ENDMDL
MODEL 2
REMARK VINA RESULT:    -6.496      3.923      6.727
REMARK INTER + INTRA:         -14.085
REMARK INTER:                  -9.180
REMARK INTRA:                  -4.905
REMARK CONF_INDEPENDENT:        2.685
REMARK UNBOUND:                -4.905
REMARK  9 active torsions:
REMARK  status: ('A' for Active; 'I' for Inactive)
REMARK    1  A    between atoms: O_2  and  C_3 
REMARK    2  A    between atoms: C_9  and  C_10 
REMARK    3  A    between atoms: C_10  and  C_11 
REMARK    4  A    between atoms: C_11  and  N_12 
REMARK       I    between atoms: N_12  and  C_13 
REMARK    5  A    between atoms: C_13  and  C_15 
REMARK    6  A    between atoms: C_15  and  C_16 
REMARK    7  A    between atoms: C_17  and  C_16 
REMARK    8  A    between atoms: C_20  and  C_21 
REMARK       I    between atoms: C_21  and  N_23 
REMARK    9  A    between atoms: N_23  and  C_24 
ROOT
ATOM      1  C   UNL d   1      29.878 -14.631  -2.550  0.00  0.00     0.105 C 
ENDROOT
BRANCH   1   2
ATOM      2  C   UNL d   1      29.611 -16.120  -2.461  0.00  0.00     0.217 C 
ATOM      3  N   UNL d   1      30.392 -16.778  -1.535  0.00  0.00    -0.361 N 
ATOM      4  H   UNL d   1      30.983 -16.238  -0.913  0.00  0.00     0.162 HD
ATOM      5  O   UNL d   1      28.805 -16.719  -3.169  0.00  0.00    -0.274 OA
BRANCH   3   6
ATOM      6  C   UNL d   1      30.238 -18.200  -1.385  0.00  0.00     0.127 C 
BRANCH   6   7
ATOM      7  C   UNL d   1      31.432 -18.996  -1.901  0.00  0.00     0.056 C 
BRANCH   7   8
ATOM      8  C   UNL d   1      31.185 -19.651  -3.226  0.00  0.00    -0.048 A 
ATOM      9  C   UNL d   1      30.947 -19.024  -4.385  0.00  0.00    -0.003 A 
ATOM     10  C   UNL d   1      30.761 -20.101  -5.373  0.00  0.00     0.039 A 
ATOM     11  C   UNL d   1      30.840 -17.652  -4.765  0.00  0.00     0.050 A 
ATOM     12  C   UNL d   1      30.487 -19.723  -6.767  0.00  0.00     0.033 A 
ATOM     13  N   UNL d   1      30.877 -21.267  -4.848  0.00  0.00    -0.385 N 
ATOM     14  C   UNL d   1      30.405 -18.406  -7.047  0.00  0.00     0.039 A 
ATOM     15  C   UNL d   1      30.538 -17.354  -6.040  0.00  0.00     0.069 A 
ATOM     16  C   UNL d   1      31.157 -21.145  -3.407  0.00  0.00     0.155 A 
ATOM     17  H   UNL d   1      30.783 -22.133  -5.368  0.00  0.00     0.160 HD
BRANCH  15  18
ATOM     18  O   UNL d   1      30.461 -16.039  -6.444  0.00  0.00    -0.356 OA
ATOM     19  C   UNL d   1      31.566 -15.567  -7.216  0.00  0.00     0.210 C 
ENDBRANCH  15  18
ENDBRANCH   7   8
ENDBRANCH   6   7
ENDBRANCH   3   6
ENDBRANCH   1   2
BRANCH   1  20
ATOM     20  C   UNL d   1      28.575 -13.891  -2.852  0.00  0.00     0.041 C 
BRANCH  20  21
ATOM     21  C   UNL d   1      28.371 -13.419  -4.303  0.00  0.00     0.135 C 
ATOM     22  N   UNL d   1      28.557 -14.577  -5.198  0.00  0.00    -0.245 NA
ATOM     23  N   UNL d   1      27.251 -15.201  -5.525  0.00  0.00    -0.237 NA
ATOM     24  H   UNL d   1      29.211 -15.241  -4.775  0.00  0.00     0.142 HD
ATOM     25  C   UNL d   1      26.115 -14.401  -5.021  0.00  0.00     0.226 C 
ATOM     26  H   UNL d   1      27.191 -16.182  -5.264  0.00  0.00     0.142 HD
ATOM     27  S   UNL d   1      26.763 -12.732  -4.738  0.00  0.00    -0.117 SA
BRANCH  25  28
ATOM     28  C   UNL d   1      25.555 -14.968  -3.685  0.00  0.00     0.251 C 
ATOM     29  O   UNL d   1      24.572 -14.468  -3.130  0.00  0.00    -0.270 OA
ATOM     30  N   UNL d   1      26.207 -16.057  -3.117  0.00  0.00    -0.325 N 
ATOM     31  H   UNL d   1      27.134 -16.304  -3.437  0.00  0.00     0.169 HD
BRANCH  30  32
ATOM     32  C   UNL d   1      25.765 -16.558  -1.861  0.00  0.00     0.034 A 
ATOM     33  C   UNL d   1      26.670 -16.752  -0.805  0.00  0.00     0.029 A 
ATOM     34  C   UNL d   1      26.298 -17.438   0.349  0.00  0.00     0.002 A 
ATOM     35  C   UNL d   1      24.979 -17.836   0.508  0.00  0.00     0.000 A 
ATOM     36  C   UNL d   1      24.038 -17.532  -0.479  0.00  0.00     0.002 A 
ATOM     37  C   UNL d   1      24.433 -16.922  -1.679  0.00  0.00     0.029 A 
ENDBRANCH  30  32
ENDBRANCH  25  28
ENDBRANCH  20  21
ENDBRANCH   1  20
TORSDOF 9
ENDMDL
MODEL 3
REMARK VINA RESULT:    -6.187      2.737      6.108
REMARK INTER + INTRA:         -14.143
REMARK INTER:                  -8.872
REMARK INTRA:                  -5.272
REMARK CONF_INDEPENDENT:        2.685
REMARK UNBOUND:                -5.272
REMARK  9 active torsions:
REMARK  status: ('A' for Active; 'I' for Inactive)
REMARK    1  A    between atoms: O_2  and  C_3 
REMARK    2  A    between atoms: C_9  and  C_10 
REMARK    3  A    between atoms: C_10  and  C_11 
REMARK    4  A    between atoms: C_11  and  N_12 
REMARK       I    between atoms: N_12  and  C_13 
REMARK    5  A    between atoms: C_13  and  C_15 
REMARK    6  A    between atoms: C_15  and  C_16 
REMARK    7  A    between atoms: C_17  and  C_16 
REMARK    8  A    between atoms: C_20  and  C_21 
REMARK       I    between atoms: C_21  and  N_23 
REMARK    9  A    between atoms: N_23  and  C_24 
ROOT
ATOM      1  C   UNL d   1      29.272 -15.612  -4.289  0.00  0.00     0.105 C 
ENDROOT
BRANCH   1   2
ATOM      2  C   UNL d   1      27.914 -15.362  -4.910  0.00  0.00     0.217 C 
ATOM      3  N   UNL d   1      26.869 -15.386  -4.011  0.00  0.00    -0.361 N 
ATOM      4  H   UNL d   1      27.072 -15.446  -3.020  0.00  0.00     0.162 HD
ATOM      5  O   UNL d   1      27.727 -15.190  -6.113  0.00  0.00    -0.274 OA
BRANCH   3   6
ATOM      6  C   UNL d   1      25.531 -15.184  -4.498  0.00  0.00     0.127 C 
BRANCH   6   7
ATOM      7  C   UNL d   1      24.777 -14.084  -3.759  0.00  0.00     0.056 C 
BRANCH   7   8
ATOM      8  C   UNL d   1      25.671 -13.011  -3.213  0.00  0.00    -0.048 A 
ATOM      9  C   UNL d   1      26.316 -13.041  -2.040  0.00  0.00    -0.003 A 
ATOM     10  C   UNL d   1      27.040 -11.761  -1.968  0.00  0.00     0.039 A 
ATOM     11  C   UNL d   1      26.391 -13.989  -0.974  0.00  0.00     0.050 A 
ATOM     12  C   UNL d   1      27.863 -11.496  -0.779  0.00  0.00     0.033 A 
ATOM     13  N   UNL d   1      26.843 -11.031  -3.006  0.00  0.00    -0.385 N 
ATOM     14  C   UNL d   1      27.885 -12.442   0.183  0.00  0.00     0.039 A 
ATOM     15  C   UNL d   1      27.114 -13.683   0.115  0.00  0.00     0.069 A 
ATOM     16  C   UNL d   1      25.938 -11.722  -3.941  0.00  0.00     0.155 A 
ATOM     17  H   UNL d   1      27.258 -10.115  -3.140  0.00  0.00     0.160 HD
BRANCH  15  18
ATOM     18  O   UNL d   1      27.231 -14.590   1.145  0.00  0.00    -0.356 OA
ATOM     19  C   UNL d   1      27.782 -14.075   2.359  0.00  0.00     0.210 C 
ENDBRANCH  15  18
ENDBRANCH   7   8
ENDBRANCH   6   7
ENDBRANCH   3   6
ENDBRANCH   1   2
BRANCH   1  20
ATOM     20  C   UNL d   1      29.426 -14.764  -3.026  0.00  0.00     0.041 C 
BRANCH  20  21
ATOM     21  C   UNL d   1      30.657 -15.053  -2.148  0.00  0.00     0.135 C 
ATOM     22  N   UNL d   1      30.501 -14.323  -0.876  0.00  0.00    -0.245 NA
ATOM     23  N   UNL d   1      29.916 -15.204   0.165  0.00  0.00    -0.237 NA
ATOM     24  H   UNL d   1      29.947 -13.476  -1.028  0.00  0.00     0.142 HD
ATOM     25  C   UNL d   1      29.813 -16.606  -0.292  0.00  0.00     0.226 C 
ATOM     26  H   UNL d   1      29.046 -14.849   0.556  0.00  0.00     0.142 HD
ATOM     27  S   UNL d   1      30.966 -16.766  -1.682  0.00  0.00    -0.117 SA
BRANCH  25  28
ATOM     28  C   UNL d   1      28.375 -16.954  -0.773  0.00  0.00     0.251 C 
ATOM     29  O   UNL d   1      28.101 -17.065  -1.972  0.00  0.00    -0.270 OA
ATOM     30  N   UNL d   1      27.389 -17.123   0.194  0.00  0.00    -0.325 N 
ATOM     31  H   UNL d   1      27.556 -16.798   1.136  0.00  0.00     0.169 HD
BRANCH  30  32
ATOM     32  C   UNL d   1      26.049 -17.373  -0.213  0.00  0.00     0.034 A 
ATOM     33  C   UNL d   1      25.514 -16.745  -1.349  0.00  0.00     0.029 A 
ATOM     34  C   UNL d   1      24.152 -16.807  -1.636  0.00  0.00     0.002 A 
ATOM     35  C   UNL d   1      23.327 -17.600  -0.850  0.00  0.00     0.000 A 
ATOM     36  C   UNL d   1      23.872 -18.334   0.205  0.00  0.00     0.002 A 
ATOM     37  C   UNL d   1      25.225 -18.199   0.548  0.00  0.00     0.029 A 
ENDBRANCH  30  32
ENDBRANCH  25  28
ENDBRANCH  20  21
ENDBRANCH   1  20
TORSDOF 9
ENDMDL
MODEL 4
REMARK VINA RESULT:    -5.960      3.621      6.784
REMARK INTER + INTRA:         -13.599
REMARK INTER:                  -8.644
REMARK INTRA:                  -4.955
REMARK CONF_INDEPENDENT:        2.685
REMARK UNBOUND:                -4.955
REMARK  9 active torsions:
REMARK  status: ('A' for Active; 'I' for Inactive)
REMARK    1  A    between atoms: O_2  and  C_3 
REMARK    2  A    between atoms: C_9  and  C_10 
REMARK    3  A    between atoms: C_10  and  C_11 
REMARK    4  A    between atoms: C_11  and  N_12 
REMARK       I    between atoms: N_12  and  C_13 
REMARK    5  A    between atoms: C_13  and  C_15 
REMARK    6  A    between atoms: C_15  and  C_16 
REMARK    7  A    between atoms: C_17  and  C_16 
REMARK    8  A    between atoms: C_20  and  C_21 
REMARK       I    between atoms: C_21  and  N_23 
REMARK    9  A    between atoms: N_23  and  C_24 
ROOT
ATOM      1  C   UNL d   1      27.339 -16.812  -0.457  0.00  0.00     0.105 C 
ENDROOT
BRANCH   1   2
ATOM      2  C   UNL d   1      28.707 -16.249  -0.787  0.00  0.00     0.217 C 
ATOM      3  N   UNL d   1      29.755 -16.959  -0.242  0.00  0.00    -0.361 N 
ATOM      4  H   UNL d   1      29.567 -17.840   0.222  0.00  0.00     0.162 HD
ATOM      5  O   UNL d   1      28.891 -15.227  -1.445  0.00  0.00    -0.274 OA
BRANCH   3   6
ATOM      6  C   UNL d   1      31.098 -16.497  -0.471  0.00  0.00     0.127 C 
BRANCH   6   7
ATOM      7  C   UNL d   1      31.350 -15.086   0.049  0.00  0.00     0.056 C 
BRANCH   7   8
ATOM      8  C   UNL d   1      31.002 -14.912   1.496  0.00  0.00    -0.048 A 
ATOM      9  C   UNL d   1      29.854 -14.421   1.980  0.00  0.00    -0.003 A 
ATOM     10  C   UNL d   1      30.012 -14.446   3.444  0.00  0.00     0.039 A 
ATOM     11  C   UNL d   1      28.658 -13.923   1.378  0.00  0.00     0.050 A 
ATOM     12  C   UNL d   1      28.894 -13.967   4.270  0.00  0.00     0.033 A 
ATOM     13  N   UNL d   1      31.155 -14.909   3.802  0.00  0.00    -0.385 N 
ATOM     14  C   UNL d   1      27.797 -13.516   3.627  0.00  0.00     0.039 A 
ATOM     15  C   UNL d   1      27.683 -13.449   2.170  0.00  0.00     0.069 A 
ATOM     16  C   UNL d   1      31.948 -15.265   2.612  0.00  0.00     0.155 A 
ATOM     17  H   UNL d   1      31.449 -15.005   4.768  0.00  0.00     0.160 HD
BRANCH  15  18
ATOM     18  O   UNL d   1      26.505 -12.993   1.620  0.00  0.00    -0.356 OA
ATOM     19  C   UNL d   1      26.280 -11.585   1.729  0.00  0.00     0.210 C 
ENDBRANCH  15  18
ENDBRANCH   7   8
ENDBRANCH   6   7
ENDBRANCH   3   6
ENDBRANCH   1   2
BRANCH   1  20
ATOM     20  C   UNL d   1      26.383 -16.556  -1.622  0.00  0.00     0.041 C 
BRANCH  20  21
ATOM     21  C   UNL d   1      25.557 -15.258  -1.561  0.00  0.00     0.135 C 
ATOM     22  N   UNL d   1      26.449 -14.159  -1.146  0.00  0.00    -0.245 NA
ATOM     23  N   UNL d   1      26.968 -13.430  -2.329  0.00  0.00    -0.237 NA
ATOM     24  H   UNL d   1      27.199 -14.527  -0.554  0.00  0.00     0.142 HD
ATOM     25  C   UNL d   1      26.322 -13.878  -3.581  0.00  0.00     0.226 C 
ATOM     26  H   UNL d   1      27.983 -13.420  -2.388  0.00  0.00     0.142 HD
ATOM     27  S   UNL d   1      24.780 -14.692  -3.086  0.00  0.00    -0.117 SA
BRANCH  25  28
ATOM     28  C   UNL d   1      27.210 -14.888  -4.362  0.00  0.00     0.251 C 
ATOM     29  O   UNL d   1      26.756 -15.574  -5.282  0.00  0.00    -0.270 OA
ATOM     30  N   UNL d   1      28.543 -15.011  -3.982  0.00  0.00    -0.325 N 
ATOM     31  H   UNL d   1      28.842 -14.637  -3.092  0.00  0.00     0.169 HD
BRANCH  30  32
ATOM     32  C   UNL d   1      29.365 -15.975  -4.628  0.00  0.00     0.034 A 
ATOM     33  C   UNL d   1      29.792 -15.786  -5.952  0.00  0.00     0.029 A 
ATOM     34  C   UNL d   1      30.410 -16.809  -6.666  0.00  0.00     0.002 A 
ATOM     35  C   UNL d   1      30.715 -18.000  -6.023  0.00  0.00     0.000 A 
ATOM     36  C   UNL d   1      30.414 -18.152  -4.667  0.00  0.00     0.002 A 
ATOM     37  C   UNL d   1      29.710 -17.156  -3.974  0.00  0.00     0.029 A 
ENDBRANCH  30  32
ENDBRANCH  25  28
ENDBRANCH  20  21
ENDBRANCH   1  20
TORSDOF 9
ENDMDL
MODEL 5
REMARK VINA RESULT:    -5.777      2.805      5.963
REMARK INTER + INTRA:         -13.722
REMARK INTER:                  -8.461
REMARK INTRA:                  -5.260
REMARK CONF_INDEPENDENT:        2.685
REMARK UNBOUND:                -5.260
REMARK  9 active torsions:
REMARK  status: ('A' for Active; 'I' for Inactive)
REMARK    1  A    between atoms: O_2  and  C_3 
REMARK    2  A    between atoms: C_9  and  C_10 
REMARK    3  A    between atoms: C_10  and  C_11 
REMARK    4  A    between atoms: C_11  and  N_12 
REMARK       I    between atoms: N_12  and  C_13 
REMARK    5  A    between atoms: C_13  and  C_15 
REMARK    6  A    between atoms: C_15  and  C_16 
REMARK    7  A    between atoms: C_17  and  C_16 
REMARK    8  A    between atoms: C_20  and  C_21 
REMARK       I    between atoms: C_21  and  N_23 
REMARK    9  A    between atoms: N_23  and  C_24 
ROOT
ATOM      1  C   UNL d   1      27.976 -12.725  -0.031  0.00  0.00     0.105 C 
ENDROOT
BRANCH   1   2
ATOM      2  C   UNL d   1      28.716 -13.969  -0.480  0.00  0.00     0.217 C 
ATOM      3  N   UNL d   1      29.303 -14.677   0.546  0.00  0.00    -0.361 N 
ATOM      4  H   UNL d   1      29.115 -14.407   1.504  0.00  0.00     0.162 HD
ATOM      5  O   UNL d   1      28.831 -14.315  -1.655  0.00  0.00    -0.274 OA
BRANCH   3   6
ATOM      6  C   UNL d   1      30.052 -15.863   0.228  0.00  0.00     0.127 C 
BRANCH   6   7
ATOM      7  C   UNL d   1      29.275 -16.861  -0.624  0.00  0.00     0.056 C 
BRANCH   7   8
ATOM      8  C   UNL d   1      30.049 -17.371  -1.801  0.00  0.00    -0.048 A 
ATOM      9  C   UNL d   1      29.861 -17.026  -3.081  0.00  0.00    -0.003 A 
ATOM     10  C   UNL d   1      30.856 -17.804  -3.839  0.00  0.00     0.039 A 
ATOM     11  C   UNL d   1      28.951 -16.149  -3.747  0.00  0.00     0.050 A 
ATOM     12  C   UNL d   1      30.903 -17.632  -5.299  0.00  0.00     0.033 A 
ATOM     13  N   UNL d   1      31.574 -18.548  -3.078  0.00  0.00    -0.385 N 
ATOM     14  C   UNL d   1      30.014 -16.783  -5.852  0.00  0.00     0.039 A 
ATOM     15  C   UNL d   1      28.997 -16.062  -5.087  0.00  0.00     0.069 A 
ATOM     16  C   UNL d   1      31.157 -18.382  -1.675  0.00  0.00     0.155 A 
ATOM     17  H   UNL d   1      32.312 -19.156  -3.416  0.00  0.00     0.160 HD
BRANCH  15  18
ATOM     18  O   UNL d   1      28.155 -15.200  -5.754  0.00  0.00    -0.356 OA
ATOM     19  C   UNL d   1      28.720 -14.546  -6.892  0.00  0.00     0.210 C 
ENDBRANCH  15  18
ENDBRANCH   7   8
ENDBRANCH   6   7
ENDBRANCH   3   6
ENDBRANCH   1   2
BRANCH   1  20
ATOM     20  C   UNL d   1      26.821 -12.437  -0.990  0.00  0.00     0.041 C 
BRANCH  20  21
ATOM     21  C   UNL d   1      27.155 -11.597  -2.237  0.00  0.00     0.135 C 
ATOM     22  N   UNL d   1      28.309 -12.215  -2.917  0.00  0.00    -0.245 NA
ATOM     23  N   UNL d   1      27.855 -13.117  -4.004  0.00  0.00    -0.237 NA
ATOM     24  H   UNL d   1      28.899 -12.696  -2.232  0.00  0.00     0.142 HD
ATOM     25  C   UNL d   1      26.398 -13.020  -4.230  0.00  0.00     0.226 C 
ATOM     26  H   UNL d   1      28.177 -14.076  -3.899  0.00  0.00     0.142 HD
ATOM     27  S   UNL d   1      25.882 -11.442  -3.503  0.00  0.00    -0.117 SA
BRANCH  25  28
ATOM     28  C   UNL d   1      25.626 -14.181  -3.541  0.00  0.00     0.251 C 
ATOM     29  O   UNL d   1      24.458 -14.450  -3.837  0.00  0.00    -0.270 OA
ATOM     30  N   UNL d   1      26.289 -14.909  -2.558  0.00  0.00    -0.325 N 
ATOM     31  H   UNL d   1      27.139 -14.539  -2.154  0.00  0.00     0.169 HD
BRANCH  30  32
ATOM     32  C   UNL d   1      25.591 -15.932  -1.858  0.00  0.00     0.034 A 
ATOM     33  C   UNL d   1      24.206 -15.842  -1.646  0.00  0.00     0.029 A 
ATOM     34  C   UNL d   1      23.548 -16.716  -0.785  0.00  0.00     0.002 A 
ATOM     35  C   UNL d   1      24.252 -17.767  -0.213  0.00  0.00     0.000 A 
ATOM     36  C   UNL d   1      25.603 -17.945  -0.520  0.00  0.00     0.002 A 
ATOM     37  C   UNL d   1      26.284 -17.011  -1.315  0.00  0.00     0.029 A 
ENDBRANCH  30  32
ENDBRANCH  25  28
ENDBRANCH  20  21
ENDBRANCH   1  20
TORSDOF 9
ENDMDL
MODEL 6
REMARK VINA RESULT:    -5.770      3.469      6.716
REMARK INTER + INTRA:         -13.506
REMARK INTER:                  -8.455
REMARK INTRA:                  -5.052
REMARK CONF_INDEPENDENT:        2.685
REMARK UNBOUND:                -5.052
REMARK  9 active torsions:
REMARK  status: ('A' for Active; 'I' for Inactive)
REMARK    1  A    between atoms: O_2  and  C_3 
REMARK    2  A    between atoms: C_9  and  C_10 
REMARK    3  A    between atoms: C_10  and  C_11 
REMARK    4  A    between atoms: C_11  and  N_12 
REMARK       I    between atoms: N_12  and  C_13 
REMARK    5  A    between atoms: C_13  and  C_15 
REMARK    6  A    between atoms: C_15  and  C_16 
REMARK    7  A    between atoms: C_17  and  C_16 
REMARK    8  A    between atoms: C_20  and  C_21 
REMARK       I    between atoms: C_21  and  N_23 
REMARK    9  A    between atoms: N_23  and  C_24 
ROOT
ATOM      1  C   UNL d   1      27.430 -17.069  -0.577  0.00  0.00     0.105 C 
ENDROOT
BRANCH   1   2
ATOM      2  C   UNL d   1      28.760 -16.401  -0.858  0.00  0.00     0.217 C 
ATOM      3  N   UNL d   1      29.783 -16.813  -0.031  0.00  0.00    -0.361 N 
ATOM      4  H   UNL d   1      29.625 -17.586   0.604  0.00  0.00     0.162 HD
ATOM      5  O   UNL d   1      28.929 -15.536  -1.715  0.00  0.00    -0.274 OA
BRANCH   3   6
ATOM      6  C   UNL d   1      31.085 -16.224  -0.195  0.00  0.00     0.127 C 
BRANCH   6   7
ATOM      7  C   UNL d   1      31.278 -14.944   0.610  0.00  0.00     0.056 C 
BRANCH   7   8
ATOM      8  C   UNL d   1      30.130 -13.987   0.492  0.00  0.00    -0.048 A 
ATOM      9  C   UNL d   1      29.163 -13.795   1.398  0.00  0.00    -0.003 A 
ATOM     10  C   UNL d   1      28.282 -12.773   0.809  0.00  0.00     0.039 A 
ATOM     11  C   UNL d   1      28.877 -14.366   2.676  0.00  0.00     0.050 A 
ATOM     12  C   UNL d   1      27.111 -12.337   1.585  0.00  0.00     0.033 A 
ATOM     13  N   UNL d   1      28.687 -12.389  -0.347  0.00  0.00    -0.385 N 
ATOM     14  C   UNL d   1      26.911 -12.921   2.785  0.00  0.00     0.039 A 
ATOM     15  C   UNL d   1      27.769 -13.974   3.326  0.00  0.00     0.069 A 
ATOM     16  C   UNL d   1      29.916 -13.113  -0.715  0.00  0.00     0.155 A 
ATOM     17  H   UNL d   1      28.212 -11.691  -0.910  0.00  0.00     0.160 HD
BRANCH  15  18
ATOM     18  O   UNL d   1      27.483 -14.482   4.575  0.00  0.00    -0.356 OA
ATOM     19  C   UNL d   1      28.618 -14.824   5.373  0.00  0.00     0.210 C 
ENDBRANCH  15  18
ENDBRANCH   7   8
ENDBRANCH   6   7
ENDBRANCH   3   6
ENDBRANCH   1   2
BRANCH   1  20
ATOM     20  C   UNL d   1      26.433 -16.717  -1.681  0.00  0.00     0.041 C 
BRANCH  20  21
ATOM     21  C   UNL d   1      25.635 -15.412  -1.498  0.00  0.00     0.135 C 
ATOM     22  N   UNL d   1      26.569 -14.352  -1.075  0.00  0.00    -0.245 NA
ATOM     23  N   UNL d   1      27.031 -13.564  -2.244  0.00  0.00    -0.237 NA
ATOM     24  H   UNL d   1      27.347 -14.764  -0.550  0.00  0.00     0.142 HD
ATOM     25  C   UNL d   1      26.305 -13.929  -3.479  0.00  0.00     0.226 C 
ATOM     26  H   UNL d   1      28.041 -13.566  -2.363  0.00  0.00     0.142 HD
ATOM     27  S   UNL d   1      24.780 -14.749  -2.939  0.00  0.00    -0.117 SA
BRANCH  25  28
ATOM     28  C   UNL d   1      27.127 -14.906  -4.367  0.00  0.00     0.251 C 
ATOM     29  O   UNL d   1      26.597 -15.574  -5.260  0.00  0.00    -0.270 OA
ATOM     30  N   UNL d   1      28.491 -15.021  -4.116  0.00  0.00    -0.325 N 
ATOM     31  H   UNL d   1      28.868 -14.668  -3.247  0.00  0.00     0.169 HD
BRANCH  30  32
ATOM     32  C   UNL d   1      29.261 -15.956  -4.862  0.00  0.00     0.034 A 
ATOM     33  C   UNL d   1      29.783 -17.108  -4.252  0.00  0.00     0.029 A 
ATOM     34  C   UNL d   1      30.710 -17.916  -4.905  0.00  0.00     0.002 A 
ATOM     35  C   UNL d   1      31.039 -17.643  -6.226  0.00  0.00     0.000 A 
ATOM     36  C   UNL d   1      30.426 -16.576  -6.886  0.00  0.00     0.002 A 
ATOM     37  C   UNL d   1      29.562 -15.711  -6.200  0.00  0.00     0.029 A 
ENDBRANCH  30  32
ENDBRANCH  25  28
ENDBRANCH  20  21
ENDBRANCH   1  20
TORSDOF 9
ENDMDL
MODEL 7
REMARK VINA RESULT:    -5.308      2.904      6.452
REMARK INTER + INTRA:         -13.650
REMARK INTER:                  -7.993
REMARK INTRA:                  -5.657
REMARK CONF_INDEPENDENT:        2.685
REMARK UNBOUND:                -5.657
REMARK  9 active torsions:
REMARK  status: ('A' for Active; 'I' for Inactive)
REMARK    1  A    between atoms: O_2  and  C_3 
REMARK    2  A    between atoms: C_9  and  C_10 
REMARK    3  A    between atoms: C_10  and  C_11 
REMARK    4  A    between atoms: C_11  and  N_12 
REMARK       I    between atoms: N_12  and  C_13 
REMARK    5  A    between atoms: C_13  and  C_15 
REMARK    6  A    between atoms: C_15  and  C_16 
REMARK    7  A    between atoms: C_17  and  C_16 
REMARK    8  A    between atoms: C_20  and  C_21 
REMARK       I    between atoms: C_21  and  N_23 
REMARK    9  A    between atoms: N_23  and  C_24 
ROOT
ATOM      1  C   UNL d   1      30.561 -16.666  -1.170  0.00  0.00     0.105 C 
ENDROOT
BRANCH   1   2
ATOM      2  C   UNL d   1      29.818 -16.957  -2.458  0.00  0.00     0.217 C 
ATOM      3  N   UNL d   1      30.606 -17.495  -3.453  0.00  0.00    -0.361 N 
ATOM      4  H   UNL d   1      31.559 -17.764  -3.238  0.00  0.00     0.162 HD
ATOM      5  O   UNL d   1      28.628 -16.706  -2.639  0.00  0.00    -0.274 OA
BRANCH   3   6
ATOM      6  C   UNL d   1      30.008 -17.787  -4.728  0.00  0.00     0.127 C 
BRANCH   6   7
ATOM      7  C   UNL d   1      30.812 -17.257  -5.910  0.00  0.00     0.056 C 
BRANCH   7   8
ATOM      8  C   UNL d   1      30.376 -15.897  -6.366  0.00  0.00    -0.048 A 
ATOM      9  C   UNL d   1      29.266 -15.253  -5.983  0.00  0.00    -0.003 A 
ATOM     10  C   UNL d   1      29.292 -13.976  -6.716  0.00  0.00     0.039 A 
ATOM     11  C   UNL d   1      28.189 -15.574  -5.103  0.00  0.00     0.050 A 
ATOM     12  C   UNL d   1      28.189 -13.029  -6.496  0.00  0.00     0.033 A 
ATOM     13  N   UNL d   1      30.325 -13.869  -7.471  0.00  0.00    -0.385 N 
ATOM     14  C   UNL d   1      27.211 -13.403  -5.647  0.00  0.00     0.039 A 
ATOM     15  C   UNL d   1      27.177 -14.700  -4.971  0.00  0.00     0.069 A 
ATOM     16  C   UNL d   1      31.157 -15.079  -7.359  0.00  0.00     0.155 A 
ATOM     17  H   UNL d   1      30.519 -13.060  -8.053  0.00  0.00     0.160 HD
BRANCH  15  18
ATOM     18  O   UNL d   1      26.140 -14.967  -4.104  0.00  0.00    -0.356 OA
ATOM     19  C   UNL d   1      25.028 -14.072  -4.181  0.00  0.00     0.210 C 
ENDBRANCH  15  18
ENDBRANCH   7   8
ENDBRANCH   6   7
ENDBRANCH   3   6
ENDBRANCH   1   2
BRANCH   1  20
ATOM     20  C   UNL d   1      29.820 -15.585  -0.382  0.00  0.00     0.041 C 
BRANCH  20  21
ATOM     21  C   UNL d   1      30.071 -14.127  -0.810  0.00  0.00     0.135 C 
ATOM     22  N   UNL d   1      29.737 -14.000  -2.241  0.00  0.00    -0.245 NA
ATOM     23  N   UNL d   1      28.348 -13.505  -2.413  0.00  0.00    -0.237 NA
ATOM     24  H   UNL d   1      29.893 -14.894  -2.715  0.00  0.00     0.142 HD
ATOM     25  C   UNL d   1      27.741 -13.107  -1.125  0.00  0.00     0.226 C 
ATOM     26  H   UNL d   1      27.756 -14.132  -2.953  0.00  0.00     0.142 HD
ATOM     27  S   UNL d   1      29.121 -12.839   0.019  0.00  0.00    -0.117 SA
BRANCH  25  28
ATOM     28  C   UNL d   1      26.809 -14.215  -0.557  0.00  0.00     0.251 C 
ATOM     29  O   UNL d   1      26.418 -14.196   0.614  0.00  0.00    -0.270 OA
ATOM     30  N   UNL d   1      26.435 -15.251  -1.408  0.00  0.00    -0.325 N 
ATOM     31  H   UNL d   1      26.942 -15.391  -2.271  0.00  0.00     0.169 HD
BRANCH  30  32
ATOM     32  C   UNL d   1      25.642 -16.317  -0.902  0.00  0.00     0.034 A 
ATOM     33  C   UNL d   1      26.211 -17.320  -0.102  0.00  0.00     0.029 A 
ATOM     34  C   UNL d   1      25.505 -18.477   0.220  0.00  0.00     0.002 A 
ATOM     35  C   UNL d   1      24.175 -18.590  -0.161  0.00  0.00     0.000 A 
ATOM     36  C   UNL d   1      23.558 -17.541  -0.846  0.00  0.00     0.002 A 
ATOM     37  C   UNL d   1      24.296 -16.417  -1.247  0.00  0.00     0.029 A 
ENDBRANCH  30  32
ENDBRANCH  25  28
ENDBRANCH  20  21
ENDBRANCH   1  20
TORSDOF 9
ENDMDL
MODEL 8
REMARK VINA RESULT:    -5.008      3.199      6.436
REMARK INTER + INTRA:         -13.843
REMARK INTER:                  -7.693
REMARK INTRA:                  -6.150
REMARK CONF_INDEPENDENT:        2.685
REMARK UNBOUND:                -6.150
REMARK  9 active torsions:
REMARK  status: ('A' for Active; 'I' for Inactive)
REMARK    1  A    between atoms: O_2  and  C_3 
REMARK    2  A    between atoms: C_9  and  C_10 
REMARK    3  A    between atoms: C_10  and  C_11 
REMARK    4  A    between atoms: C_11  and  N_12 
REMARK       I    between atoms: N_12  and  C_13 
REMARK    5  A    between atoms: C_13  and  C_15 
REMARK    6  A    between atoms: C_15  and  C_16 
REMARK    7  A    between atoms: C_17  and  C_16 
REMARK    8  A    between atoms: C_20  and  C_21 
REMARK       I    between atoms: C_21  and  N_23 
REMARK    9  A    between atoms: N_23  and  C_24 
ROOT
ATOM      1  C   UNL d   1      30.607 -15.029   1.230  0.00  0.00     0.105 C 
ENDROOT
BRANCH   1   2
ATOM      2  C   UNL d   1      30.136 -15.512  -0.126  0.00  0.00     0.217 C 
ATOM      3  N   UNL d   1      30.019 -16.882  -0.227  0.00  0.00    -0.361 N 
ATOM      4  H   UNL d   1      30.132 -17.450   0.605  0.00  0.00     0.162 HD
ATOM      5  O   UNL d   1      29.910 -14.772  -1.082  0.00  0.00    -0.274 OA
BRANCH   3   6
ATOM      6  C   UNL d   1      29.602 -17.452  -1.480  0.00  0.00     0.127 C 
BRANCH   6   7
ATOM      7  C   UNL d   1      30.709 -17.487  -2.528  0.00  0.00     0.056 C 
BRANCH   7   8
ATOM      8  C   UNL d   1      30.267 -17.009  -3.878  0.00  0.00    -0.048 A 
ATOM      9  C   UNL d   1      29.412 -16.008  -4.122  0.00  0.00    -0.003 A 
ATOM     10  C   UNL d   1      29.303 -15.946  -5.589  0.00  0.00     0.039 A 
ATOM     11  C   UNL d   1      28.668 -15.116  -3.291  0.00  0.00     0.050 A 
ATOM     12  C   UNL d   1      28.426 -14.921  -6.176  0.00  0.00     0.033 A 
ATOM     13  N   UNL d   1      30.028 -16.832  -6.170  0.00  0.00    -0.385 N 
ATOM     14  C   UNL d   1      27.760 -14.114  -5.324  0.00  0.00     0.039 A 
ATOM     15  C   UNL d   1      27.840 -14.230  -3.869  0.00  0.00     0.069 A 
ATOM     16  C   UNL d   1      30.739 -17.638  -5.162  0.00  0.00     0.155 A 
ATOM     17  H   UNL d   1      30.086 -16.945  -7.176  0.00  0.00     0.160 HD
BRANCH  15  18
ATOM     18  O   UNL d   1      27.135 -13.335  -3.094  0.00  0.00    -0.356 OA
ATOM     19  C   UNL d   1      25.723 -13.310  -3.315  0.00  0.00     0.210 C 
ENDBRANCH  15  18
ENDBRANCH   7   8
ENDBRANCH   6   7
ENDBRANCH   3   6
ENDBRANCH   1   2
BRANCH   1  20
ATOM     20  C   UNL d   1      29.525 -14.160   1.872  0.00  0.00     0.041 C 
BRANCH  20  21
ATOM     21  C   UNL d   1      29.564 -12.656   1.541  0.00  0.00     0.135 C 
ATOM     22  N   UNL d   1      29.915 -12.503   0.117  0.00  0.00    -0.245 NA
ATOM     23  N   UNL d   1      28.692 -12.357  -0.711  0.00  0.00    -0.237 NA
ATOM     24  H   UNL d   1      30.498 -13.290  -0.183  0.00  0.00     0.142 HD
ATOM     25  C   UNL d   1      27.475 -12.225   0.118  0.00  0.00     0.226 C 
ATOM     26  H   UNL d   1      28.604 -13.066  -1.436  0.00  0.00     0.142 HD
ATOM     27  S   UNL d   1      28.043 -11.715   1.763  0.00  0.00    -0.117 SA
BRANCH  25  28
ATOM     28  C   UNL d   1      26.706 -13.572   0.234  0.00  0.00     0.251 C 
ATOM     29  O   UNL d   1      25.905 -13.784   1.150  0.00  0.00    -0.270 OA
ATOM     30  N   UNL d   1      26.957 -14.549  -0.723  0.00  0.00    -0.325 N 
ATOM     31  H   UNL d   1      27.773 -14.468  -1.314  0.00  0.00     0.169 HD
BRANCH  30  32
ATOM     32  C   UNL d   1      26.323 -15.818  -0.608  0.00  0.00     0.034 A 
ATOM     33  C   UNL d   1      25.122 -16.085  -1.282  0.00  0.00     0.029 A 
ATOM     34  C   UNL d   1      24.380 -17.233  -1.013  0.00  0.00     0.002 A 
ATOM     35  C   UNL d   1      24.895 -18.187  -0.145  0.00  0.00     0.000 A 
ATOM     36  C   UNL d   1      26.152 -17.993   0.431  0.00  0.00     0.002 A 
ATOM     37  C   UNL d   1      26.855 -16.796   0.229  0.00  0.00     0.029 A 
ENDBRANCH  30  32
ENDBRANCH  25  28
ENDBRANCH  20  21
ENDBRANCH   1  20
TORSDOF 9
ENDMDL
MODEL 9
REMARK VINA RESULT:    -4.981      2.557      4.650
REMARK INTER + INTRA:         -13.363
REMARK INTER:                  -7.665
REMARK INTRA:                  -5.698
REMARK CONF_INDEPENDENT:        2.685
REMARK UNBOUND:                -5.698
REMARK  9 active torsions:
REMARK  status: ('A' for Active; 'I' for Inactive)
REMARK    1  A    between atoms: O_2  and  C_3 
REMARK    2  A    between atoms: C_9  and  C_10 
REMARK    3  A    between atoms: C_10  and  C_11 
REMARK    4  A    between atoms: C_11  and  N_12 
REMARK       I    between atoms: N_12  and  C_13 
REMARK    5  A    between atoms: C_13  and  C_15 
REMARK    6  A    between atoms: C_15  and  C_16 
REMARK    7  A    between atoms: C_17  and  C_16 
REMARK    8  A    between atoms: C_20  and  C_21 
REMARK       I    between atoms: C_21  and  N_23 
REMARK    9  A    between atoms: N_23  and  C_24 
ROOT
ATOM      1  C   UNL d   1      29.834 -12.709  -3.438  0.00  0.00     0.105 C 
ENDROOT
BRANCH   1   2
ATOM      2  C   UNL d   1      29.269 -11.670  -2.492  0.00  0.00     0.217 C 
ATOM      3  N   UNL d   1      28.952 -12.158  -1.242  0.00  0.00    -0.361 N 
ATOM      4  H   UNL d   1      29.214 -13.107  -1.002  0.00  0.00     0.162 HD
ATOM      5  O   UNL d   1      29.064 -10.497  -2.799  0.00  0.00    -0.274 OA
BRANCH   3   6
ATOM      6  C   UNL d   1      28.386 -11.261  -0.271  0.00  0.00     0.127 C 
BRANCH   6   7
ATOM      7  C   UNL d   1      27.212 -11.861   0.495  0.00  0.00     0.056 C 
BRANCH   7   8
ATOM      8  C   UNL d   1      27.218 -13.360   0.519  0.00  0.00    -0.048 A 
ATOM      9  C   UNL d   1      26.809 -14.168  -0.467  0.00  0.00    -0.003 A 
ATOM     10  C   UNL d   1      27.005 -15.533   0.049  0.00  0.00     0.039 A 
ATOM     11  C   UNL d   1      26.264 -13.945  -1.768  0.00  0.00     0.050 A 
ATOM     12  C   UNL d   1      26.648 -16.662  -0.823  0.00  0.00     0.033 A 
ATOM     13  N   UNL d   1      27.488 -15.538   1.239  0.00  0.00    -0.385 N 
ATOM     14  C   UNL d   1      26.143 -16.369  -2.039  0.00  0.00     0.039 A 
ATOM     15  C   UNL d   1      25.905 -15.006  -2.510  0.00  0.00     0.069 A 
ATOM     16  C   UNL d   1      27.685 -14.156   1.708  0.00  0.00     0.155 A 
ATOM     17  H   UNL d   1      27.693 -16.383   1.762  0.00  0.00     0.160 HD
BRANCH  15  18
ATOM     18  O   UNL d   1      25.407 -14.824  -3.782  0.00  0.00    -0.356 OA
ATOM     19  C   UNL d   1      24.384 -13.833  -3.906  0.00  0.00     0.210 C 
ENDBRANCH  15  18
ENDBRANCH   7   8
ENDBRANCH   6   7
ENDBRANCH   3   6
ENDBRANCH   1   2
BRANCH   1  20
ATOM     20  C   UNL d   1      28.956 -13.961  -3.411  0.00  0.00     0.041 C 
BRANCH  20  21
ATOM     21  C   UNL d   1      29.258 -15.036  -4.472  0.00  0.00     0.135 C 
ATOM     22  N   UNL d   1      28.009 -15.768  -4.758  0.00  0.00    -0.245 NA
ATOM     23  N   UNL d   1      27.330 -15.199  -5.949  0.00  0.00    -0.237 NA
ATOM     24  H   UNL d   1      27.409 -15.768  -3.929  0.00  0.00     0.142 HD
ATOM     25  C   UNL d   1      28.162 -14.182  -6.626  0.00  0.00     0.226 C 
ATOM     26  H   UNL d   1      26.383 -14.877  -5.762  0.00  0.00     0.142 HD
ATOM     27  S   UNL d   1      29.863 -14.478  -6.075  0.00  0.00    -0.117 SA
BRANCH  25  28
ATOM     28  C   UNL d   1      27.739 -12.736  -6.239  0.00  0.00     0.251 C 
ATOM     29  O   UNL d   1      28.350 -11.748  -6.657  0.00  0.00    -0.270 OA
ATOM     30  N   UNL d   1      26.651 -12.583  -5.386  0.00  0.00    -0.325 N 
ATOM     31  H   UNL d   1      26.314 -13.380  -4.863  0.00  0.00     0.169 HD
BRANCH  30  32
ATOM     32  C   UNL d   1      26.281 -11.279  -4.955  0.00  0.00     0.034 A 
ATOM     33  C   UNL d   1      26.218 -10.964  -3.588  0.00  0.00     0.029 A 
ATOM     34  C   UNL d   1      25.654  -9.770  -3.146  0.00  0.00     0.002 A 
ATOM     35  C   UNL d   1      25.250  -8.823  -4.077  0.00  0.00     0.000 A 
ATOM     36  C   UNL d   1      25.428  -9.070  -5.440  0.00  0.00     0.002 A 
ATOM     37  C   UNL d   1      25.912 -10.310  -5.885  0.00  0.00     0.029 A 
ENDBRANCH  30  32
ENDBRANCH  25  28
ENDBRANCH  20  21
ENDBRANCH   1  20
TORSDOF 9
ENDMDL
