MODEL 1
REMARK VINA RESULT:    -8.910      0.000      0.000
REMARK INTER + INTRA:         -12.272
REMARK INTER:                 -10.700
REMARK INTRA:                  -1.572
REMARK CONF_INDEPENDENT:        1.790
REMARK UNBOUND:                -1.572
REMARK  6 active torsions:
REMARK  status: ('A' for Active; 'I' for Inactive)
REMARK    1  A    between atoms: O_2  and  C_3 
REMARK    2  A    between atoms: C_10  and  C_11 
REMARK       I    between atoms: C_11  and  N_13 
REMARK    3  A    between atoms: N_13  and  C_14 
REMARK    4  A    between atoms: C_14  and  N_16 
REMARK    5  A    between atoms: N_16  and  C_17 
REMARK    6  A    between atoms: C_22  and  N_23 
ROOT
ATOM      1  C   UNL d   1      25.945 -14.733  -2.708  0.00  0.00     0.179 C 
ATOM      2  S   UNL d   1      24.784 -14.073  -3.734  0.00  0.00    -0.040 SA
ENDROOT
BRANCH   1   3
ATOM      3  N   UNL d   1      27.225 -15.195  -3.143  0.00  0.00    -0.299 N 
ATOM      4  C   UNL d   1      27.599 -15.495  -4.482  0.00  0.00     0.260 C 
ATOM      5  O   UNL d   1      26.812 -15.476  -5.412  0.00  0.00    -0.267 OA
ATOM      6  H   UNL d   1      27.912 -15.429  -2.435  0.00  0.00     0.171 HD
BRANCH   4   7
ATOM      7  C   UNL d   1      28.976 -16.034  -4.807  0.00  0.00     0.067 A 
ATOM      8  C   UNL d   1      29.637 -16.807  -3.809  0.00  0.00     0.039 A 
ATOM      9  C   UNL d   1      30.812 -17.503  -4.100  0.00  0.00     0.012 A 
ATOM     10  C   UNL d   1      31.377 -17.397  -5.362  0.00  0.00     0.028 A 
ATOM     11 BR   UNL d   1      31.618 -18.637  -2.818  0.00  0.00    -0.051 Br
ATOM     12  C   UNL d   1      30.807 -16.548  -6.327  0.00  0.00    -0.026 A 
ATOM     13  C   UNL d   1      29.589 -15.887  -6.055  0.00  0.00     0.089 A 
ATOM     14  C   UNL d   1      31.518 -16.447  -7.645  0.00  0.00     0.051 C 
BRANCH  13  15
ATOM     15  O   UNL d   1      29.033 -15.016  -6.956  0.00  0.00    -0.354 OA
ATOM     16  C   UNL d   1      29.352 -13.649  -6.677  0.00  0.00     0.210 C 
ENDBRANCH  13  15
ENDBRANCH   4   7
ENDBRANCH   1   3
BRANCH   1  17
ATOM     17  N   UNL d   1      25.708 -14.969  -1.329  0.00  0.00    -0.331 N 
ATOM     18  H   UNL d   1      25.547 -14.135  -0.774  0.00  0.00     0.168 HD
BRANCH  17  19
ATOM     19  C   UNL d   1      24.908 -16.103  -0.898  0.00  0.00     0.061 A 
ATOM     20  C   UNL d   1      23.550 -16.150  -1.270  0.00  0.00     0.032 A 
ATOM     21  C   UNL d   1      22.740 -17.225  -0.885  0.00  0.00     0.002 A 
ATOM     22  C   UNL d   1      23.290 -18.279  -0.161  0.00  0.00     0.002 A 
ATOM     23  C   UNL d   1      24.648 -18.255   0.197  0.00  0.00     0.031 A 
ATOM     24  C   UNL d   1      25.488 -17.173  -0.146  0.00  0.00     0.057 A 
BRANCH  24  25
ATOM     25  N   UNL d   1      26.796 -17.124   0.332  0.00  0.00    -0.376 N 
ATOM     26  C   UNL d   1      27.256 -15.901   0.980  0.00  0.00     0.150 C 
ATOM     27  C   UNL d   1      28.493 -15.353   0.264  0.00  0.00     0.254 C 
ATOM     28  N   UNL d   1      29.595 -16.388   0.103  0.00  0.00    -0.072 N 
ATOM     29  C   UNL d   1      30.775 -15.837  -0.636  0.00  0.00     0.269 C 
ATOM     30  C   UNL d   1      29.086 -17.709  -0.520  0.00  0.00     0.254 C 
ATOM     31  H   UNL d   1      29.912 -16.625   1.045  0.00  0.00     0.279 HD
ATOM     32  C   UNL d   1      27.780 -18.205   0.177  0.00  0.00     0.150 C 
ENDBRANCH  24  25
ENDBRANCH  17  19
ENDBRANCH   1  17
TORSDOF 6
ENDMDL
MODEL 2
REMARK VINA RESULT:    -8.557      2.651      6.190
REMARK INTER + INTRA:         -12.726
REMARK INTER:                 -10.347
REMARK INTRA:                  -2.379
REMARK CONF_INDEPENDENT:        1.790
REMARK UNBOUND:                -2.379
REMARK  6 active torsions:
REMARK  status: ('A' for Active; 'I' for Inactive)
REMARK    1  A    between atoms: O_2  and  C_3 
REMARK    2  A    between atoms: C_10  and  C_11 
REMARK       I    between atoms: C_11  and  N_13 
REMARK    3  A    between atoms: N_13  and  C_14 
REMARK    4  A    between atoms: C_14  and  N_16 
REMARK    5  A    between atoms: N_16  and  C_17 
REMARK    6  A    between atoms: C_22  and  N_23 
ROOT
ATOM      1  C   UNL d   1      26.962 -14.074  -3.832  0.00  0.00     0.179 C 
ATOM      2  S   UNL d   1      25.876 -13.070  -4.638  0.00  0.00    -0.040 SA
ENDROOT
BRANCH   1   3
ATOM      3  N   UNL d   1      26.575 -15.066  -2.879  0.00  0.00    -0.299 N 
ATOM      4  C   UNL d   1      25.248 -15.348  -2.451  0.00  0.00     0.260 C 
ATOM      5  O   UNL d   1      24.283 -14.687  -2.797  0.00  0.00    -0.267 OA
ATOM      6  H   UNL d   1      27.308 -15.556  -2.379  0.00  0.00     0.171 HD
BRANCH   4   7
ATOM      7  C   UNL d   1      24.974 -16.390  -1.388  0.00  0.00     0.067 A 
ATOM      8  C   UNL d   1      23.662 -16.944  -1.328  0.00  0.00     0.039 A 
ATOM      9  C   UNL d   1      23.385 -18.046  -0.516  0.00  0.00     0.012 A 
ATOM     10  C   UNL d   1      24.384 -18.575   0.287  0.00  0.00     0.028 A 
ATOM     11 BR   UNL d   1      21.681 -18.868  -0.535  0.00  0.00    -0.051 Br
ATOM     12  C   UNL d   1      25.653 -17.974   0.332  0.00  0.00    -0.026 A 
ATOM     13  C   UNL d   1      25.954 -16.895  -0.528  0.00  0.00     0.089 A 
ATOM     14  C   UNL d   1      26.655 -18.575   1.273  0.00  0.00     0.051 C 
BRANCH  13  15
ATOM     15  O   UNL d   1      27.167 -16.256  -0.475  0.00  0.00    -0.354 OA
ATOM     16  C   UNL d   1      27.202 -15.213   0.505  0.00  0.00     0.210 C 
ENDBRANCH  13  15
ENDBRANCH   4   7
ENDBRANCH   1   3
BRANCH   1  17
ATOM     17  N   UNL d   1      28.369 -13.952  -3.968  0.00  0.00    -0.331 N 
ATOM     18  H   UNL d   1      28.841 -13.535  -3.173  0.00  0.00     0.168 HD
BRANCH  17  19
ATOM     19  C   UNL d   1      29.145 -15.002  -4.606  0.00  0.00     0.061 A 
ATOM     20  C   UNL d   1      29.278 -14.985  -6.008  0.00  0.00     0.032 A 
ATOM     21  C   UNL d   1      30.022 -15.971  -6.668  0.00  0.00     0.002 A 
ATOM     22  C   UNL d   1      30.672 -16.956  -5.929  0.00  0.00     0.002 A 
ATOM     23  C   UNL d   1      30.565 -16.971  -4.529  0.00  0.00     0.031 A 
ATOM     24  C   UNL d   1      29.798 -16.012  -3.831  0.00  0.00     0.057 A 
BRANCH  24  25
ATOM     25  N   UNL d   1      29.613 -16.131  -2.455  0.00  0.00    -0.376 N 
ATOM     26  C   UNL d   1      29.737 -14.936  -1.629  0.00  0.00     0.150 C 
ATOM     27  C   UNL d   1      30.810 -15.140  -0.556  0.00  0.00     0.254 C 
ATOM     28  N   UNL d   1      30.601 -16.404   0.261  0.00  0.00    -0.072 N 
ATOM     29  C   UNL d   1      31.686 -16.600   1.275  0.00  0.00     0.269 C 
ATOM     30  C   UNL d   1      30.400 -17.658  -0.621  0.00  0.00     0.254 C 
ATOM     31  H   UNL d   1      29.727 -16.279   0.775  0.00  0.00     0.279 HD
ATOM     32  C   UNL d   1      29.359 -17.399  -1.756  0.00  0.00     0.150 C 
ENDBRANCH  24  25
ENDBRANCH  17  19
ENDBRANCH   1  17
TORSDOF 6
ENDMDL
MODEL 3
REMARK VINA RESULT:    -8.556      3.888      6.391
REMARK INTER + INTRA:         -12.664
REMARK INTER:                 -10.346
REMARK INTRA:                  -2.317
REMARK CONF_INDEPENDENT:        1.790
REMARK UNBOUND:                -2.317
REMARK  6 active torsions:
REMARK  status: ('A' for Active; 'I' for Inactive)
REMARK    1  A    between atoms: O_2  and  C_3 
REMARK    2  A    between atoms: C_10  and  C_11 
REMARK       I    between atoms: C_11  and  N_13 
REMARK    3  A    between atoms: N_13  and  C_14 
REMARK    4  A    between atoms: C_14  and  N_16 
REMARK    5  A    between atoms: N_16  and  C_17 
REMARK    6  A    between atoms: C_22  and  N_23 
ROOT
ATOM      1  C   UNL d   1      26.821 -12.794  -2.519  0.00  0.00     0.179 C 
ATOM      2  S   UNL d   1      26.086 -12.335  -3.962  0.00  0.00    -0.040 SA
ENDROOT
BRANCH   1   3
ATOM      3  N   UNL d   1      26.455 -13.955  -1.771  0.00  0.00    -0.299 N 
ATOM      4  C   UNL d   1      25.476 -14.918  -2.140  0.00  0.00     0.260 C 
ATOM      5  O   UNL d   1      24.760 -14.797  -3.120  0.00  0.00    -0.267 OA
ATOM      6  H   UNL d   1      26.849 -14.068  -0.843  0.00  0.00     0.171 HD
BRANCH   4   7
ATOM      7  C   UNL d   1      25.138 -16.080  -1.230  0.00  0.00     0.067 A 
ATOM      8  C   UNL d   1      23.828 -16.634  -1.322  0.00  0.00     0.039 A 
ATOM      9  C   UNL d   1      23.505 -17.824  -0.668  0.00  0.00     0.012 A 
ATOM     10  C   UNL d   1      24.452 -18.449   0.128  0.00  0.00     0.028 A 
ATOM     11 BR   UNL d   1      21.809 -18.633  -0.895  0.00  0.00    -0.051 Br
ATOM     12  C   UNL d   1      25.713 -17.861   0.327  0.00  0.00    -0.026 A 
ATOM     13  C   UNL d   1      26.064 -16.688  -0.376  0.00  0.00     0.089 A 
ATOM     14  C   UNL d   1      26.655 -18.575   1.252  0.00  0.00     0.051 C 
BRANCH  13  15
ATOM     15  O   UNL d   1      27.267 -16.063  -0.168  0.00  0.00    -0.354 OA
ATOM     16  C   UNL d   1      28.371 -16.783  -0.728  0.00  0.00     0.210 C 
ENDBRANCH  13  15
ENDBRANCH   4   7
ENDBRANCH   1   3
BRANCH   1  17
ATOM     17  N   UNL d   1      27.811 -12.007  -1.875  0.00  0.00    -0.331 N 
ATOM     18  H   UNL d   1      28.547 -11.664  -2.483  0.00  0.00     0.168 HD
BRANCH  17  19
ATOM     19  C   UNL d   1      27.444 -11.061  -0.835  0.00  0.00     0.061 A 
ATOM     20  C   UNL d   1      27.050  -9.762  -1.213  0.00  0.00     0.032 A 
ATOM     21  C   UNL d   1      26.681  -8.818  -0.248  0.00  0.00     0.002 A 
ATOM     22  C   UNL d   1      26.665  -9.174   1.097  0.00  0.00     0.002 A 
ATOM     23  C   UNL d   1      27.035 -10.472   1.486  0.00  0.00     0.031 A 
ATOM     24  C   UNL d   1      27.443 -11.443   0.544  0.00  0.00     0.057 A 
BRANCH  24  25
ATOM     25  N   UNL d   1      27.921 -12.678   0.975  0.00  0.00    -0.376 N 
ATOM     26  C   UNL d   1      27.018 -13.561   1.702  0.00  0.00     0.150 C 
ATOM     27  C   UNL d   1      27.603 -13.910   3.073  0.00  0.00     0.254 C 
ATOM     28  N   UNL d   1      29.021 -14.451   2.994  0.00  0.00    -0.072 N 
ATOM     29  C   UNL d   1      29.583 -14.745   4.351  0.00  0.00     0.269 C 
ATOM     30  C   UNL d   1      29.959 -13.545   2.163  0.00  0.00     0.254 C 
ATOM     31  H   UNL d   1      28.968 -15.338   2.491  0.00  0.00     0.279 HD
ATOM     32  C   UNL d   1      29.307 -13.140   0.803  0.00  0.00     0.150 C 
ENDBRANCH  24  25
ENDBRANCH  17  19
ENDBRANCH   1  17
TORSDOF 6
ENDMDL
MODEL 4
REMARK VINA RESULT:    -8.374      3.567      7.687
REMARK INTER + INTRA:         -12.336
REMARK INTER:                 -10.164
REMARK INTRA:                  -2.172
REMARK CONF_INDEPENDENT:        1.790
REMARK UNBOUND:                -2.172
REMARK  6 active torsions:
REMARK  status: ('A' for Active; 'I' for Inactive)
REMARK    1  A    between atoms: O_2  and  C_3 
REMARK    2  A    between atoms: C_10  and  C_11 
REMARK       I    between atoms: C_11  and  N_13 
REMARK    3  A    between atoms: N_13  and  C_14 
REMARK    4  A    between atoms: C_14  and  N_16 
REMARK    5  A    between atoms: N_16  and  C_17 
REMARK    6  A    between atoms: C_22  and  N_23 
ROOT
ATOM      1  C   UNL d   1      27.916 -14.987  -4.388  0.00  0.00     0.179 C 
ATOM      2  S   UNL d   1      29.565 -14.950  -4.729  0.00  0.00    -0.040 SA
ENDROOT
BRANCH   1   3
ATOM      3  N   UNL d   1      27.335 -15.755  -3.333  0.00  0.00    -0.299 N 
ATOM      4  C   UNL d   1      25.954 -15.816  -3.001  0.00  0.00     0.260 C 
ATOM      5  O   UNL d   1      25.108 -15.124  -3.542  0.00  0.00    -0.267 OA
ATOM      6  H   UNL d   1      27.960 -16.230  -2.691  0.00  0.00     0.171 HD
BRANCH   4   7
ATOM      7  C   UNL d   1      25.468 -16.628  -1.818  0.00  0.00     0.067 A 
ATOM      8  C   UNL d   1      24.087 -16.978  -1.778  0.00  0.00     0.039 A 
ATOM      9  C   UNL d   1      23.604 -17.886  -0.835  0.00  0.00     0.012 A 
ATOM     10  C   UNL d   1      24.467 -18.416   0.113  0.00  0.00     0.028 A 
ATOM     11 BR   UNL d   1      21.800 -18.456  -0.863  0.00  0.00    -0.051 Br
ATOM     12  C   UNL d   1      25.808 -17.997   0.165  0.00  0.00    -0.026 A 
ATOM     13  C   UNL d   1      26.313 -17.122  -0.820  0.00  0.00     0.089 A 
ATOM     14  C   UNL d   1      26.655 -18.575   1.261  0.00  0.00     0.051 C 
BRANCH  13  15
ATOM     15  O   UNL d   1      27.603 -16.657  -0.769  0.00  0.00    -0.354 OA
ATOM     16  C   UNL d   1      27.709 -15.381  -0.129  0.00  0.00     0.210 C 
ENDBRANCH  13  15
ENDBRANCH   4   7
ENDBRANCH   1   3
BRANCH   1  17
ATOM     17  N   UNL d   1      26.951 -14.321  -5.188  0.00  0.00    -0.331 N 
ATOM     18  H   UNL d   1      26.093 -14.840  -5.343  0.00  0.00     0.168 HD
BRANCH  17  19
ATOM     19  C   UNL d   1      26.734 -12.890  -5.050  0.00  0.00     0.061 A 
ATOM     20  C   UNL d   1      26.090 -12.415  -3.891  0.00  0.00     0.032 A 
ATOM     21  C   UNL d   1      25.864 -11.045  -3.710  0.00  0.00     0.002 A 
ATOM     22  C   UNL d   1      26.317 -10.138  -4.665  0.00  0.00     0.002 A 
ATOM     23  C   UNL d   1      26.980 -10.598  -5.814  0.00  0.00     0.031 A 
ATOM     24  C   UNL d   1      27.197 -11.974  -6.046  0.00  0.00     0.057 A 
BRANCH  24  25
ATOM     25  N   UNL d   1      27.746 -12.401  -7.254  0.00  0.00    -0.376 N 
ATOM     26  C   UNL d   1      28.760 -13.449  -7.227  0.00  0.00     0.150 C 
ATOM     27  C   UNL d   1      30.049 -12.959  -7.893  0.00  0.00     0.254 C 
ATOM     28  N   UNL d   1      29.820 -12.392  -9.285  0.00  0.00    -0.072 N 
ATOM     29  C   UNL d   1      31.090 -11.884  -9.896  0.00  0.00     0.269 C 
ATOM     30  C   UNL d   1      28.696 -11.332  -9.320  0.00  0.00     0.254 C 
ATOM     31  H   UNL d   1      29.495 -13.167  -9.866  0.00  0.00     0.279 HD
ATOM     32  C   UNL d   1      27.420 -11.825  -8.567  0.00  0.00     0.150 C 
ENDBRANCH  24  25
ENDBRANCH  17  19
ENDBRANCH   1  17
TORSDOF 6
ENDMDL
MODEL 5
REMARK VINA RESULT:    -8.328      2.858      7.187
REMARK INTER + INTRA:         -12.116
REMARK INTER:                 -10.118
REMARK INTRA:                  -1.998
REMARK CONF_INDEPENDENT:        1.790
REMARK UNBOUND:                -1.998
REMARK  6 active torsions:
REMARK  status: ('A' for Active; 'I' for Inactive)
REMARK    1  A    between atoms: O_2  and  C_3 
REMARK    2  A    between atoms: C_10  and  C_11 
REMARK       I    between atoms: C_11  and  N_13 
REMARK    3  A    between atoms: N_13  and  C_14 
REMARK    4  A    between atoms: C_14  and  N_16 
REMARK    5  A    between atoms: N_16  and  C_17 
REMARK    6  A    between atoms: C_22  and  N_23 
ROOT
ATOM      1  C   UNL d   1      27.474 -13.981  -3.835  0.00  0.00     0.179 C 
ATOM      2  S   UNL d   1      26.528 -12.752  -4.492  0.00  0.00    -0.040 SA
ENDROOT
BRANCH   1   3
ATOM      3  N   UNL d   1      26.991 -14.945  -2.896  0.00  0.00    -0.299 N 
ATOM      4  C   UNL d   1      25.639 -15.355  -2.733  0.00  0.00     0.260 C 
ATOM      5  O   UNL d   1      24.711 -14.842  -3.336  0.00  0.00    -0.267 OA
ATOM      6  H   UNL d   1      27.643 -15.307  -2.209  0.00  0.00     0.171 HD
BRANCH   4   7
ATOM      7  C   UNL d   1      25.247 -16.348  -1.659  0.00  0.00     0.067 A 
ATOM      8  C   UNL d   1      23.898 -16.807  -1.645  0.00  0.00     0.039 A 
ATOM      9  C   UNL d   1      23.509 -17.865  -0.820  0.00  0.00     0.012 A 
ATOM     10  C   UNL d   1      24.433 -18.441   0.039  0.00  0.00     0.028 A 
ATOM     11 BR   UNL d   1      21.753 -18.566  -0.895  0.00  0.00    -0.051 Br
ATOM     12  C   UNL d   1      25.739 -17.928   0.125  0.00  0.00    -0.026 A 
ATOM     13  C   UNL d   1      26.151 -16.897  -0.745  0.00  0.00     0.089 A 
ATOM     14  C   UNL d   1      26.654 -18.573   1.125  0.00  0.00     0.051 C 
BRANCH  13  15
ATOM     15  O   UNL d   1      27.403 -16.342  -0.653  0.00  0.00    -0.354 OA
ATOM     16  C   UNL d   1      27.585 -15.576   0.542  0.00  0.00     0.210 C 
ENDBRANCH  13  15
ENDBRANCH   4   7
ENDBRANCH   1   3
BRANCH   1  17
ATOM     17  N   UNL d   1      28.863 -14.105  -4.094  0.00  0.00    -0.331 N 
ATOM     18  H   UNL d   1      29.443 -13.388  -3.671  0.00  0.00     0.168 HD
BRANCH  17  19
ATOM     19  C   UNL d   1      29.499 -15.412  -4.118  0.00  0.00     0.061 A 
ATOM     20  C   UNL d   1      29.688 -16.091  -2.899  0.00  0.00     0.032 A 
ATOM     21  C   UNL d   1      30.290 -17.355  -2.871  0.00  0.00     0.002 A 
ATOM     22  C   UNL d   1      30.670 -17.966  -4.062  0.00  0.00     0.002 A 
ATOM     23  C   UNL d   1      30.466 -17.308  -5.287  0.00  0.00     0.031 A 
ATOM     24  C   UNL d   1      29.892 -16.020  -5.352  0.00  0.00     0.057 A 
BRANCH  24  25
ATOM     25  N   UNL d   1      29.820 -15.347  -6.570  0.00  0.00    -0.376 N 
ATOM     26  C   UNL d   1      31.007 -15.303  -7.414  0.00  0.00     0.150 C 
ATOM     27  C   UNL d   1      31.401 -13.853  -7.705  0.00  0.00     0.254 C 
ATOM     28  N   UNL d   1      30.251 -13.025  -8.258  0.00  0.00    -0.072 N 
ATOM     29  C   UNL d   1      30.653 -11.601  -8.495  0.00  0.00     0.269 C 
ATOM     30  C   UNL d   1      28.972 -13.130  -7.396  0.00  0.00     0.254 C 
ATOM     31  H   UNL d   1      30.013 -13.426  -9.166  0.00  0.00     0.279 HD
ATOM     32  C   UNL d   1      28.637 -14.615  -7.048  0.00  0.00     0.150 C 
ENDBRANCH  24  25
ENDBRANCH  17  19
ENDBRANCH   1  17
TORSDOF 6
ENDMDL
MODEL 6
REMARK VINA RESULT:    -7.934      4.515      7.901
REMARK INTER + INTRA:         -12.239
REMARK INTER:                  -9.724
REMARK INTRA:                  -2.515
REMARK CONF_INDEPENDENT:        1.790
REMARK UNBOUND:                -2.515
REMARK  6 active torsions:
REMARK  status: ('A' for Active; 'I' for Inactive)
REMARK    1  A    between atoms: O_2  and  C_3 
REMARK    2  A    between atoms: C_10  and  C_11 
REMARK       I    between atoms: C_11  and  N_13 
REMARK    3  A    between atoms: N_13  and  C_14 
REMARK    4  A    between atoms: C_14  and  N_16 
REMARK    5  A    between atoms: N_16  and  C_17 
REMARK    6  A    between atoms: C_22  and  N_23 
ROOT
ATOM      1  C   UNL d   1      26.564 -13.930  -4.442  0.00  0.00     0.179 C 
ATOM      2  S   UNL d   1      27.529 -14.172  -5.801  0.00  0.00    -0.040 SA
ENDROOT
BRANCH   1   3
ATOM      3  N   UNL d   1      26.312 -14.931  -3.453  0.00  0.00    -0.299 N 
ATOM      4  C   UNL d   1      25.075 -15.165  -2.793  0.00  0.00     0.260 C 
ATOM      5  O   UNL d   1      24.096 -14.454  -2.941  0.00  0.00    -0.267 OA
ATOM      6  H   UNL d   1      27.100 -15.466  -3.107  0.00  0.00     0.171 HD
BRANCH   4   7
ATOM      7  C   UNL d   1      24.951 -16.224  -1.717  0.00  0.00     0.067 A 
ATOM      8  C   UNL d   1      23.654 -16.756  -1.459  0.00  0.00     0.039 A 
ATOM      9  C   UNL d   1      23.486 -17.868  -0.633  0.00  0.00     0.012 A 
ATOM     10  C   UNL d   1      24.588 -18.432  -0.008  0.00  0.00     0.028 A 
ATOM     11 BR   UNL d   1      21.783 -18.659  -0.395  0.00  0.00    -0.051 Br
ATOM     12  C   UNL d   1      25.861 -17.854  -0.155  0.00  0.00    -0.026 A 
ATOM     13  C   UNL d   1      26.044 -16.764  -1.033  0.00  0.00     0.089 A 
ATOM     14  C   UNL d   1      26.986 -18.492   0.605  0.00  0.00     0.051 C 
BRANCH  13  15
ATOM     15  O   UNL d   1      27.263 -16.148  -1.162  0.00  0.00    -0.354 OA
ATOM     16  C   UNL d   1      27.535 -15.228  -0.100  0.00  0.00     0.210 C 
ENDBRANCH  13  15
ENDBRANCH   4   7
ENDBRANCH   1   3
BRANCH   1  17
ATOM     17  N   UNL d   1      25.843 -12.730  -4.215  0.00  0.00    -0.331 N 
ATOM     18  H   UNL d   1      24.833 -12.833  -4.204  0.00  0.00     0.168 HD
BRANCH  17  19
ATOM     19  C   UNL d   1      26.325 -11.744  -3.263  0.00  0.00     0.061 A 
ATOM     20  C   UNL d   1      26.937 -12.196  -2.077  0.00  0.00     0.032 A 
ATOM     21  C   UNL d   1      27.424 -11.284  -1.132  0.00  0.00     0.002 A 
ATOM     22  C   UNL d   1      27.340  -9.918  -1.384  0.00  0.00     0.002 A 
ATOM     23  C   UNL d   1      26.753  -9.455  -2.572  0.00  0.00     0.031 A 
ATOM     24  C   UNL d   1      26.222 -10.343  -3.534  0.00  0.00     0.057 A 
BRANCH  24  25
ATOM     25  N   UNL d   1      25.536  -9.847  -4.641  0.00  0.00    -0.376 N 
ATOM     26  C   UNL d   1      25.902 -10.336  -5.964  0.00  0.00     0.150 C 
ATOM     27  C   UNL d   1      26.307  -9.169  -6.870  0.00  0.00     0.254 C 
ATOM     28  N   UNL d   1      25.266  -8.062  -6.915  0.00  0.00    -0.072 N 
ATOM     29  C   UNL d   1      25.706  -6.917  -7.774  0.00  0.00     0.269 C 
ATOM     30  C   UNL d   1      24.830  -7.596  -5.506  0.00  0.00     0.254 C 
ATOM     31  H   UNL d   1      24.433  -8.463  -7.349  0.00  0.00     0.279 HD
ATOM     32  C   UNL d   1      24.498  -8.807  -4.579  0.00  0.00     0.150 C 
ENDBRANCH  24  25
ENDBRANCH  17  19
ENDBRANCH   1  17
TORSDOF 6
ENDMDL
MODEL 7
REMARK VINA RESULT:    -7.836      1.683      1.866
REMARK INTER + INTRA:         -12.049
REMARK INTER:                  -9.625
REMARK INTRA:                  -2.424
REMARK CONF_INDEPENDENT:        1.790
REMARK UNBOUND:                -2.424
REMARK  6 active torsions:
REMARK  status: ('A' for Active; 'I' for Inactive)
REMARK    1  A    between atoms: O_2  and  C_3 
REMARK    2  A    between atoms: C_10  and  C_11 
REMARK       I    between atoms: C_11  and  N_13 
REMARK    3  A    between atoms: N_13  and  C_14 
REMARK    4  A    between atoms: C_14  and  N_16 
REMARK    5  A    between atoms: N_16  and  C_17 
REMARK    6  A    between atoms: C_22  and  N_23 
ROOT
ATOM      1  C   UNL d   1      26.237 -14.624  -2.688  0.00  0.00     0.179 C 
ATOM      2  S   UNL d   1      25.048 -14.092  -3.756  0.00  0.00    -0.040 SA
ENDROOT
BRANCH   1   3
ATOM      3  N   UNL d   1      27.567 -14.967  -3.082  0.00  0.00    -0.299 N 
ATOM      4  C   UNL d   1      27.980 -15.379  -4.379  0.00  0.00     0.260 C 
ATOM      5  O   UNL d   1      27.198 -15.574  -5.295  0.00  0.00    -0.267 OA
ATOM      6  H   UNL d   1      28.277 -15.024  -2.360  0.00  0.00     0.171 HD
BRANCH   4   7
ATOM      7  C   UNL d   1      29.415 -15.772  -4.656  0.00  0.00     0.067 A 
ATOM      8  C   UNL d   1      29.655 -16.704  -5.708  0.00  0.00     0.039 A 
ATOM      9  C   UNL d   1      30.952 -16.963  -6.155  0.00  0.00     0.012 A 
ATOM     10  C   UNL d   1      32.028 -16.349  -5.533  0.00  0.00     0.028 A 
ATOM     11 BR   UNL d   1      31.264 -18.096  -7.639  0.00  0.00    -0.051 Br
ATOM     12  C   UNL d   1      31.824 -15.515  -4.420  0.00  0.00    -0.026 A 
ATOM     13  C   UNL d   1      30.513 -15.207  -3.999  0.00  0.00     0.089 A 
ATOM     14  C   UNL d   1      33.050 -14.941  -3.771  0.00  0.00     0.051 C 
BRANCH  13  15
ATOM     15  O   UNL d   1      30.281 -14.437  -2.887  0.00  0.00    -0.354 OA
ATOM     16  C   UNL d   1      30.337 -13.034  -3.162  0.00  0.00     0.210 C 
ENDBRANCH  13  15
ENDBRANCH   4   7
ENDBRANCH   1   3
BRANCH   1  17
ATOM     17  N   UNL d   1      25.985 -14.862  -1.312  0.00  0.00    -0.331 N 
ATOM     18  H   UNL d   1      25.810 -14.030  -0.759  0.00  0.00     0.168 HD
BRANCH  17  19
ATOM     19  C   UNL d   1      25.190 -16.004  -0.892  0.00  0.00     0.061 A 
ATOM     20  C   UNL d   1      23.834 -16.057  -1.270  0.00  0.00     0.032 A 
ATOM     21  C   UNL d   1      23.029 -17.139  -0.895  0.00  0.00     0.002 A 
ATOM     22  C   UNL d   1      23.582 -18.194  -0.174  0.00  0.00     0.002 A 
ATOM     23  C   UNL d   1      24.938 -18.163   0.190  0.00  0.00     0.031 A 
ATOM     24  C   UNL d   1      25.773 -17.074  -0.143  0.00  0.00     0.057 A 
BRANCH  24  25
ATOM     25  N   UNL d   1      27.079 -17.020   0.341  0.00  0.00    -0.376 N 
ATOM     26  C   UNL d   1      27.406 -16.025   1.355  0.00  0.00     0.150 C 
ATOM     27  C   UNL d   1      28.546 -15.125   0.870  0.00  0.00     0.254 C 
ATOM     28  N   UNL d   1      29.760 -15.908   0.396  0.00  0.00    -0.072 N 
ATOM     29  C   UNL d   1      30.843 -15.006  -0.110  0.00  0.00     0.269 C 
ATOM     30  C   UNL d   1      29.398 -17.010  -0.627  0.00  0.00     0.254 C 
ATOM     31  H   UNL d   1      30.131 -16.395   1.214  0.00  0.00     0.279 HD
ATOM     32  C   UNL d   1      28.182 -17.862  -0.144  0.00  0.00     0.150 C 
ENDBRANCH  24  25
ENDBRANCH  17  19
ENDBRANCH   1  17
TORSDOF 6
ENDMDL
MODEL 8
REMARK VINA RESULT:    -7.693      3.698      6.338
REMARK INTER + INTRA:         -13.305
REMARK INTER:                  -9.483
REMARK INTRA:                  -3.822
REMARK CONF_INDEPENDENT:        1.790
REMARK UNBOUND:                -3.822
REMARK  6 active torsions:
REMARK  status: ('A' for Active; 'I' for Inactive)
REMARK    1  A    between atoms: O_2  and  C_3 
REMARK    2  A    between atoms: C_10  and  C_11 
REMARK       I    between atoms: C_11  and  N_13 
REMARK    3  A    between atoms: N_13  and  C_14 
REMARK    4  A    between atoms: C_14  and  N_16 
REMARK    5  A    between atoms: N_16  and  C_17 
REMARK    6  A    between atoms: C_22  and  N_23 
ROOT
ATOM      1  C   UNL d   1      26.351 -14.201  -4.270  0.00  0.00     0.179 C 
ATOM      2  S   UNL d   1      27.422 -14.445  -5.546  0.00  0.00    -0.040 SA
ENDROOT
BRANCH   1   3
ATOM      3  N   UNL d   1      26.075 -15.174  -3.261  0.00  0.00    -0.299 N 
ATOM      4  C   UNL d   1      24.832 -15.368  -2.598  0.00  0.00     0.260 C 
ATOM      5  O   UNL d   1      23.869 -14.639  -2.764  0.00  0.00    -0.267 OA
ATOM      6  H   UNL d   1      26.851 -15.720  -2.902  0.00  0.00     0.171 HD
BRANCH   4   7
ATOM      7  C   UNL d   1      24.682 -16.401  -1.501  0.00  0.00     0.067 A 
ATOM      8  C   UNL d   1      23.395 -16.983  -1.312  0.00  0.00     0.039 A 
ATOM      9  C   UNL d   1      23.221 -18.079  -0.465  0.00  0.00     0.012 A 
ATOM     10  C   UNL d   1      24.302 -18.575   0.247  0.00  0.00     0.028 A 
ATOM     11 BR   UNL d   1      21.541 -18.939  -0.314  0.00  0.00    -0.051 Br
ATOM     12  C   UNL d   1      25.556 -17.945   0.165  0.00  0.00    -0.026 A 
ATOM     13  C   UNL d   1      25.750 -16.873  -0.732  0.00  0.00     0.089 A 
ATOM     14  C   UNL d   1      26.655 -18.511   1.016  0.00  0.00     0.051 C 
BRANCH  13  15
ATOM     15  O   UNL d   1      26.947 -16.206  -0.800  0.00  0.00    -0.354 OA
ATOM     16  C   UNL d   1      28.004 -17.014  -1.327  0.00  0.00     0.210 C 
ENDBRANCH  13  15
ENDBRANCH   4   7
ENDBRANCH   1   3
BRANCH   1  17
ATOM     17  N   UNL d   1      25.560 -13.030  -4.143  0.00  0.00    -0.331 N 
ATOM     18  H   UNL d   1      24.620 -13.184  -3.794  0.00  0.00     0.168 HD
BRANCH  17  19
ATOM     19  C   UNL d   1      26.146 -11.787  -3.670  0.00  0.00     0.061 A 
ATOM     20  C   UNL d   1      25.933 -10.613  -4.420  0.00  0.00     0.032 A 
ATOM     21  C   UNL d   1      26.471  -9.390  -4.001  0.00  0.00     0.002 A 
ATOM     22  C   UNL d   1      27.190  -9.323  -2.811  0.00  0.00     0.002 A 
ATOM     23  C   UNL d   1      27.390 -10.482  -2.043  0.00  0.00     0.031 A 
ATOM     24  C   UNL d   1      26.890 -11.739  -2.449  0.00  0.00     0.057 A 
BRANCH  24  25
ATOM     25  N   UNL d   1      27.213 -12.886  -1.728  0.00  0.00    -0.376 N 
ATOM     26  C   UNL d   1      26.280 -13.359  -0.713  0.00  0.00     0.150 C 
ATOM     27  C   UNL d   1      26.973 -13.443   0.649  0.00  0.00     0.254 C 
ATOM     28  N   UNL d   1      28.263 -14.247   0.612  0.00  0.00    -0.072 N 
ATOM     29  C   UNL d   1      28.940 -14.278   1.948  0.00  0.00     0.269 C 
ATOM     30  C   UNL d   1      29.220 -13.787  -0.512  0.00  0.00     0.254 C 
ATOM     31  H   UNL d   1      28.001 -15.207   0.384  0.00  0.00     0.279 HD
ATOM     32  C   UNL d   1      28.472 -13.634  -1.874  0.00  0.00     0.150 C 
ENDBRANCH  24  25
ENDBRANCH  17  19
ENDBRANCH   1  17
TORSDOF 6
ENDMDL
MODEL 9
REMARK VINA RESULT:    -7.466      2.958      6.496
REMARK INTER + INTRA:         -12.645
REMARK INTER:                  -9.256
REMARK INTRA:                  -3.389
REMARK CONF_INDEPENDENT:        1.790
REMARK UNBOUND:                -3.389
REMARK  6 active torsions:
REMARK  status: ('A' for Active; 'I' for Inactive)
REMARK    1  A    between atoms: O_2  and  C_3 
REMARK    2  A    between atoms: C_10  and  C_11 
REMARK       I    between atoms: C_11  and  N_13 
REMARK    3  A    between atoms: N_13  and  C_14 
REMARK    4  A    between atoms: C_14  and  N_16 
REMARK    5  A    between atoms: N_16  and  C_17 
REMARK    6  A    between atoms: C_22  and  N_23 
ROOT
ATOM      1  C   UNL d   1      25.955 -11.971  -3.363  0.00  0.00     0.179 C 
ATOM      2  S   UNL d   1      26.345 -10.445  -2.770  0.00  0.00    -0.040 SA
ENDROOT
BRANCH   1   3
ATOM      3  N   UNL d   1      25.965 -13.162  -2.572  0.00  0.00    -0.299 N 
ATOM      4  C   UNL d   1      25.155 -14.313  -2.778  0.00  0.00     0.260 C 
ATOM      5  O   UNL d   1      24.276 -14.366  -3.621  0.00  0.00    -0.267 OA
ATOM      6  H   UNL d   1      26.523 -13.166  -1.726  0.00  0.00     0.171 HD
BRANCH   4   7
ATOM      7  C   UNL d   1      25.219 -15.493  -1.831  0.00  0.00     0.067 A 
ATOM      8  C   UNL d   1      24.030 -16.256  -1.645  0.00  0.00     0.039 A 
ATOM      9  C   UNL d   1      24.057 -17.468  -0.952  0.00  0.00     0.012 A 
ATOM     10  C   UNL d   1      25.243 -17.911  -0.388  0.00  0.00     0.028 A 
ATOM     11 BR   UNL d   1      22.509 -18.550  -0.818  0.00  0.00    -0.051 Br
ATOM     12  C   UNL d   1      26.403 -17.119  -0.460  0.00  0.00    -0.026 A 
ATOM     13  C   UNL d   1      26.394 -15.921  -1.206  0.00  0.00     0.089 A 
ATOM     14  C   UNL d   1      27.627 -17.647   0.230  0.00  0.00     0.051 C 
BRANCH  13  15
ATOM     15  O   UNL d   1      27.494 -15.102  -1.256  0.00  0.00    -0.354 OA
ATOM     16  C   UNL d   1      27.674 -14.340  -0.057  0.00  0.00     0.210 C 
ENDBRANCH  13  15
ENDBRANCH   4   7
ENDBRANCH   1   3
BRANCH   1  17
ATOM     17  N   UNL d   1      25.671 -12.216  -4.732  0.00  0.00    -0.331 N 
ATOM     18  H   UNL d   1      24.780 -11.854  -5.055  0.00  0.00     0.168 HD
BRANCH  17  19
ATOM     19  C   UNL d   1      26.720 -12.124  -5.734  0.00  0.00     0.061 A 
ATOM     20  C   UNL d   1      26.528 -11.264  -6.833  0.00  0.00     0.032 A 
ATOM     21  C   UNL d   1      27.512 -11.136  -7.821  0.00  0.00     0.002 A 
ATOM     22  C   UNL d   1      28.710 -11.835  -7.697  0.00  0.00     0.002 A 
ATOM     23  C   UNL d   1      28.922 -12.679  -6.595  0.00  0.00     0.031 A 
ATOM     24  C   UNL d   1      27.940 -12.857  -5.595  0.00  0.00     0.057 A 
BRANCH  24  25
ATOM     25  N   UNL d   1      28.134 -13.796  -4.584  0.00  0.00    -0.376 N 
ATOM     26  C   UNL d   1      28.856 -13.389  -3.384  0.00  0.00     0.150 C 
ATOM     27  C   UNL d   1      30.075 -14.289  -3.165  0.00  0.00     0.254 C 
ATOM     28  N   UNL d   1      29.731 -15.770  -3.175  0.00  0.00    -0.072 N 
ATOM     29  C   UNL d   1      30.947 -16.627  -3.000  0.00  0.00     0.269 C 
ATOM     30  C   UNL d   1      28.905 -16.182  -4.416  0.00  0.00     0.254 C 
ATOM     31  H   UNL d   1      29.126 -15.934  -2.367  0.00  0.00     0.279 HD
ATOM     32  C   UNL d   1      27.714 -15.203  -4.662  0.00  0.00     0.150 C 
ENDBRANCH  24  25
ENDBRANCH  17  19
ENDBRANCH   1  17
TORSDOF 6
ENDMDL
