MODEL 1
REMARK VINA RESULT:    -8.044      0.000      0.000
REMARK INTER + INTRA:         -16.197
REMARK INTER:                 -11.922
REMARK INTRA:                  -4.275
REMARK CONF_INDEPENDENT:        3.878
REMARK UNBOUND:                -4.275
REMARK  13 active torsions:
REMARK  status: ('A' for Active; 'I' for Inactive)
REMARK    1  A    between atoms: C_3  and  O_2 
REMARK    2  A    between atoms: C_3  and  C_32 
REMARK    3  A    between atoms: C_3  and  C_4 
REMARK       I    between atoms: C_4  and  N_6 
REMARK    4  A    between atoms: N_6  and  C_28 
REMARK    5  A    between atoms: C_7  and  N_6 
REMARK    6  A    between atoms: C_7  and  C_19 
REMARK    7  A    between atoms: C_7  and  C_8 
REMARK       I    between atoms: C_8  and  N_10 
REMARK    8  A    between atoms: N_10  and  C_11 
REMARK    9  A    between atoms: C_11  and  C_14 
REMARK   10  A    between atoms: C_14  and  C_15 
REMARK   11  A    between atoms: C_20  and  O_21 
REMARK   12  A    between atoms: C_23  and  O_24 
REMARK   13  A    between atoms: C_26  and  O_27 
ROOT
ATOM      1  C   UNL d   1      27.657 -14.902  -0.584  0.00  0.00     0.219 C 
ENDROOT
BRANCH   1   2
ATOM      2  C   UNL d   1      28.836 -15.841  -0.967  0.00  0.00     0.040 C 
ATOM      3  C   UNL d   1      29.948 -16.224  -0.164  0.00  0.00     0.080 C 
ATOM      4  C   UNL d   1      30.826 -17.236  -0.504  0.00  0.00     0.073 C 
ATOM      5  C   UNL d   1      30.795 -17.739  -1.769  0.00  0.00     0.071 C 
ATOM      6  C   UNL d   1      29.861 -17.266  -2.678  0.00  0.00     0.073 C 
ATOM      7  C   UNL d   1      28.872 -16.359  -2.265  0.00  0.00     0.080 C 
BRANCH   3   8
ATOM      8  O   UNL d   1      30.445 -15.646   0.962  0.00  0.00    -0.360 OA
ATOM      9  H   UNL d   1      30.405 -16.226   1.730  0.00  0.00     0.217 HD
ENDBRANCH   3   8
BRANCH   5  10
ATOM     10  O   UNL d   1      31.722 -18.665  -2.124  0.00  0.00    -0.361 OA
ATOM     11  H   UNL d   1      31.709 -19.355  -1.433  0.00  0.00     0.217 HD
ENDBRANCH   5  10
BRANCH   7  12
ATOM     12  O   UNL d   1      27.930 -15.937  -3.160  0.00  0.00    -0.360 OA
ATOM     13  H   UNL d   1      27.126 -16.471  -3.034  0.00  0.00     0.217 HD
ENDBRANCH   7  12
ENDBRANCH   1   2
BRANCH   1  14
ATOM     14  C   UNL d   1      27.420 -14.417   1.070  0.00  0.00     0.246 C 
ATOM     15  O   UNL d   1      26.351 -13.791   1.354  0.00  0.00    -0.271 OA
ATOM     16  N   UNL d   1      28.429 -14.519   2.067  0.00  0.00    -0.351 N 
ATOM     17  H   UNL d   1      28.905 -15.407   1.955  0.00  0.00     0.163 HD
BRANCH  16  18
ATOM     18  C   UNL d   1      29.260 -13.288   2.925  0.00  0.00     0.026 C 
ATOM     19  C   UNL d   1      30.650 -12.552   2.443  0.00  0.00     0.038 C 
ATOM     20  C   UNL d   1      28.182 -12.228   2.914  0.00  0.00     0.038 C 
BRANCH  18  21
ATOM     21  C   UNL d   1      29.718 -13.789   4.382  0.00  0.00     0.038 C 
BRANCH  21  22
ATOM     22  C   UNL d   1      28.649 -14.023   5.509  0.00  0.00    -0.049 C 
ATOM     23  C   UNL d   1      27.780 -12.800   5.923  0.00  0.00     0.014 C 
ATOM     24  C   UNL d   1      27.780 -15.200   5.105  0.00  0.00     0.014 C 
ATOM     25  C   UNL d   1      29.396 -14.381   6.805  0.00  0.00     0.014 C 
ENDBRANCH  21  22
ENDBRANCH  18  21
ENDBRANCH  16  18
ENDBRANCH   1  14
BRANCH   1  26
ATOM     26  N   UNL d   1      27.336 -13.916  -1.726  0.00  0.00    -0.324 N 
ATOM     27  C   UNL d   1      26.070 -13.891  -2.379  0.00  0.00     0.255 C 
ATOM     28  O   UNL d   1      25.530 -12.792  -2.675  0.00  0.00    -0.270 OA
BRANCH  27  29
ATOM     29  C   UNL d   1      25.150 -15.133  -2.758  0.00  0.00     0.245 C 
BRANCH  29  30
ATOM     30  C   UNL d   1      24.809 -16.208  -1.618  0.00  0.00    -0.020 C 
ATOM     31  C   UNL d   1      25.545 -17.220  -1.042  0.00  0.00     0.010 C 
ATOM     32  C   UNL d   1      24.949 -18.213  -0.148  0.00  0.00     0.001 C 
ATOM     33  C   UNL d   1      23.623 -18.201   0.265  0.00  0.00     0.000 C 
ATOM     34  C   UNL d   1      22.861 -17.335  -0.407  0.00  0.00     0.001 C 
ATOM     35  C   UNL d   1      23.506 -16.421  -1.270  0.00  0.00     0.010 C 
ENDBRANCH  29  30
BRANCH  29  36
ATOM     36  O   UNL d   1      25.506 -15.503  -4.121  0.00  0.00    -0.377 OA
ATOM     37  C   UNL d   1      26.095 -14.422  -4.798  0.00  0.00     0.203 C 
ENDBRANCH  29  36
ENDBRANCH  27  29
BRANCH  26  38
ATOM     38  C   UNL d   1      28.120 -12.593  -1.738  0.00  0.00     0.025 C 
ATOM     39  C   UNL d   1      27.411 -11.508  -0.872  0.00  0.00     0.037 C 
ATOM     40  C   UNL d   1      29.559 -12.802  -1.220  0.00  0.00     0.037 C 
ATOM     41  C   UNL d   1      28.223 -11.931  -3.143  0.00  0.00     0.037 C 
ENDBRANCH  26  38
ENDBRANCH   1  26
TORSDOF 13
ENDMDL
MODEL 2
REMARK VINA RESULT:    -6.803      2.268      4.889
REMARK INTER + INTRA:         -15.974
REMARK INTER:                 -10.681
REMARK INTRA:                  -5.293
REMARK CONF_INDEPENDENT:        3.878
REMARK UNBOUND:                -5.293
REMARK  13 active torsions:
REMARK  status: ('A' for Active; 'I' for Inactive)
REMARK    1  A    between atoms: C_3  and  O_2 
REMARK    2  A    between atoms: C_3  and  C_32 
REMARK    3  A    between atoms: C_3  and  C_4 
REMARK       I    between atoms: C_4  and  N_6 
REMARK    4  A    between atoms: N_6  and  C_28 
REMARK    5  A    between atoms: C_7  and  N_6 
REMARK    6  A    between atoms: C_7  and  C_19 
REMARK    7  A    between atoms: C_7  and  C_8 
REMARK       I    between atoms: C_8  and  N_10 
REMARK    8  A    between atoms: N_10  and  C_11 
REMARK    9  A    between atoms: C_11  and  C_14 
REMARK   10  A    between atoms: C_14  and  C_15 
REMARK   11  A    between atoms: C_20  and  O_21 
REMARK   12  A    between atoms: C_23  and  O_24 
REMARK   13  A    between atoms: C_26  and  O_27 
ROOT
ATOM      1  C   UNL d   1      28.904 -13.299  -3.663  0.00  0.00     0.219 C 
ENDROOT
BRANCH   1   2
ATOM      2  C   UNL d   1      27.723 -12.293  -3.757  0.00  0.00     0.040 C 
ATOM      3  C   UNL d   1      26.995 -11.693  -2.690  0.00  0.00     0.080 C 
ATOM      4  C   UNL d   1      26.114 -10.642  -2.859  0.00  0.00     0.073 C 
ATOM      5  C   UNL d   1      25.718 -10.309  -4.120  0.00  0.00     0.071 C 
ATOM      6  C   UNL d   1      26.236 -10.992  -5.208  0.00  0.00     0.073 C 
ATOM      7  C   UNL d   1      27.253 -11.943  -5.026  0.00  0.00     0.080 C 
BRANCH   3   8
ATOM      8  O   UNL d   1      26.903 -12.066  -1.385  0.00  0.00    -0.360 OA
ATOM      9  H   UNL d   1      26.530 -12.948  -1.273  0.00  0.00     0.217 HD
ENDBRANCH   3   8
BRANCH   5  10
ATOM     10  O   UNL d   1      24.780  -9.340  -4.272  0.00  0.00    -0.361 OA
ATOM     11  H   UNL d   1      24.524  -9.054  -3.375  0.00  0.00     0.217 HD
ENDBRANCH   5  10
BRANCH   7  12
ATOM     12  O   UNL d   1      27.787 -12.576  -6.114  0.00  0.00    -0.360 OA
ATOM     13  H   UNL d   1      27.423 -13.477  -6.154  0.00  0.00     0.217 HD
ENDBRANCH   7  12
ENDBRANCH   1   2
BRANCH   1  14
ATOM     14  C   UNL d   1      29.934 -13.319  -2.261  0.00  0.00     0.246 C 
ATOM     15  O   UNL d   1      31.186 -13.426  -2.449  0.00  0.00    -0.271 OA
ATOM     16  N   UNL d   1      29.441 -13.410  -0.930  0.00  0.00    -0.351 N 
ATOM     17  H   UNL d   1      28.629 -12.809  -0.844  0.00  0.00     0.163 HD
BRANCH  16  18
ATOM     18  C   UNL d   1      29.609 -14.667   0.225  0.00  0.00     0.026 C 
ATOM     19  C   UNL d   1      29.880 -16.253  -0.114  0.00  0.00     0.038 C 
ATOM     20  C   UNL d   1      30.840 -14.161   0.943  0.00  0.00     0.038 C 
BRANCH  18  21
ATOM     21  C   UNL d   1      28.292 -14.813   1.136  0.00  0.00     0.038 C 
BRANCH  21  22
ATOM     22  C   UNL d   1      27.683 -13.553   1.852  0.00  0.00    -0.049 C 
ATOM     23  C   UNL d   1      28.521 -12.243   1.808  0.00  0.00     0.014 C 
ATOM     24  C   UNL d   1      26.285 -13.326   1.309  0.00  0.00     0.014 C 
ATOM     25  C   UNL d   1      27.588 -13.862   3.355  0.00  0.00     0.014 C 
ENDBRANCH  21  22
ENDBRANCH  18  21
ENDBRANCH  16  18
ENDBRANCH   1  14
BRANCH   1  26
ATOM     26  N   UNL d   1      28.573 -14.619  -4.389  0.00  0.00    -0.324 N 
ATOM     27  C   UNL d   1      27.233 -15.053  -4.610  0.00  0.00     0.255 C 
ATOM     28  O   UNL d   1      26.908 -15.575  -5.709  0.00  0.00    -0.270 OA
BRANCH  27  29
ATOM     29  C   UNL d   1      25.993 -14.908  -3.624  0.00  0.00     0.245 C 
BRANCH  29  30
ATOM     30  C   UNL d   1      25.950 -15.824  -2.309  0.00  0.00    -0.020 C 
ATOM     31  C   UNL d   1      26.929 -16.490  -1.604  0.00  0.00     0.010 C 
ATOM     32  C   UNL d   1      26.618 -17.437  -0.533  0.00  0.00     0.001 C 
ATOM     33  C   UNL d   1      25.336 -17.706  -0.072  0.00  0.00     0.000 C 
ATOM     34  C   UNL d   1      24.372 -17.202  -0.845  0.00  0.00     0.001 C 
ATOM     35  C   UNL d   1      24.750 -16.311  -1.875  0.00  0.00     0.010 C 
ENDBRANCH  29  30
BRANCH  29  36
ATOM     36  O   UNL d   1      24.829 -14.668  -4.466  0.00  0.00    -0.377 OA
ATOM     37  C   UNL d   1      23.986 -13.700  -3.895  0.00  0.00     0.203 C 
ENDBRANCH  29  36
ENDBRANCH  27  29
BRANCH  26  38
ATOM     38  C   UNL d   1      29.616 -15.137  -5.393  0.00  0.00     0.025 C 
ATOM     39  C   UNL d   1      29.205 -14.804  -6.859  0.00  0.00     0.037 C 
ATOM     40  C   UNL d   1      31.006 -14.532  -5.101  0.00  0.00     0.037 C 
ATOM     41  C   UNL d   1      29.775 -16.686  -5.399  0.00  0.00     0.037 C 
ENDBRANCH  26  38
ENDBRANCH   1  26
TORSDOF 13
ENDMDL
MODEL 3
REMARK VINA RESULT:    -6.662      3.513      6.912
REMARK INTER + INTRA:         -15.992
REMARK INTER:                 -10.539
REMARK INTRA:                  -5.452
REMARK CONF_INDEPENDENT:        3.878
REMARK UNBOUND:                -5.452
REMARK  13 active torsions:
REMARK  status: ('A' for Active; 'I' for Inactive)
REMARK    1  A    between atoms: C_3  and  O_2 
REMARK    2  A    between atoms: C_3  and  C_32 
REMARK    3  A    between atoms: C_3  and  C_4 
REMARK       I    between atoms: C_4  and  N_6 
REMARK    4  A    between atoms: N_6  and  C_28 
REMARK    5  A    between atoms: C_7  and  N_6 
REMARK    6  A    between atoms: C_7  and  C_19 
REMARK    7  A    between atoms: C_7  and  C_8 
REMARK       I    between atoms: C_8  and  N_10 
REMARK    8  A    between atoms: N_10  and  C_11 
REMARK    9  A    between atoms: C_11  and  C_14 
REMARK   10  A    between atoms: C_14  and  C_15 
REMARK   11  A    between atoms: C_20  and  O_21 
REMARK   12  A    between atoms: C_23  and  O_24 
REMARK   13  A    between atoms: C_26  and  O_27 
ROOT
ATOM      1  C   UNL d   1      26.795 -13.246  -4.162  0.00  0.00     0.219 C 
ENDROOT
BRANCH   1   2
ATOM      2  C   UNL d   1      27.449 -13.037  -5.557  0.00  0.00     0.040 C 
ATOM      3  C   UNL d   1      27.642 -11.814  -6.260  0.00  0.00     0.080 C 
ATOM      4  C   UNL d   1      28.432 -11.695  -7.389  0.00  0.00     0.073 C 
ATOM      5  C   UNL d   1      28.855 -12.826  -8.019  0.00  0.00     0.071 C 
ATOM      6  C   UNL d   1      28.530 -14.069  -7.500  0.00  0.00     0.073 C 
ATOM      7  C   UNL d   1      27.870 -14.166  -6.264  0.00  0.00     0.080 C 
BRANCH   3   8
ATOM      8  O   UNL d   1      27.042 -10.606  -6.081  0.00  0.00    -0.360 OA
ATOM      9  H   UNL d   1      26.979 -10.094  -6.895  0.00  0.00     0.217 HD
ENDBRANCH   3   8
BRANCH   5  10
ATOM     10  O   UNL d   1      29.548 -12.703  -9.180  0.00  0.00    -0.361 OA
ATOM     11  H   UNL d   1      29.146 -13.325  -9.815  0.00  0.00     0.217 HD
ENDBRANCH   5  10
BRANCH   7  12
ATOM     12  O   UNL d   1      27.598 -15.400  -5.742  0.00  0.00    -0.360 OA
ATOM     13  H   UNL d   1      28.003 -15.456  -4.859  0.00  0.00     0.217 HD
ENDBRANCH   7  12
ENDBRANCH   1   2
BRANCH   1  14
ATOM     14  C   UNL d   1      25.706 -14.576  -3.891  0.00  0.00     0.246 C 
ATOM     15  O   UNL d   1      24.464 -14.366  -4.062  0.00  0.00    -0.271 OA
ATOM     16  N   UNL d   1      26.109 -15.812  -3.315  0.00  0.00    -0.351 N 
ATOM     17  H   UNL d   1      27.003 -16.078  -3.714  0.00  0.00     0.163 HD
BRANCH  16  18
ATOM     18  C   UNL d   1      25.680 -16.522  -1.813  0.00  0.00     0.026 C 
ATOM     19  C   UNL d   1      26.646 -17.486  -0.895  0.00  0.00     0.038 C 
ATOM     20  C   UNL d   1      25.446 -15.258  -1.017  0.00  0.00     0.038 C 
BRANCH  18  21
ATOM     21  C   UNL d   1      24.404 -17.489  -1.961  0.00  0.00     0.038 C 
BRANCH  21  22
ATOM     22  C   UNL d   1      23.452 -17.734  -0.734  0.00  0.00    -0.049 C 
ATOM     23  C   UNL d   1      24.118 -18.200   0.593  0.00  0.00     0.014 C 
ATOM     24  C   UNL d   1      22.620 -16.484  -0.520  0.00  0.00     0.014 C 
ATOM     25  C   UNL d   1      22.514 -18.900  -1.088  0.00  0.00     0.014 C 
ENDBRANCH  21  22
ENDBRANCH  18  21
ENDBRANCH  16  18
ENDBRANCH   1  14
BRANCH   1  26
ATOM     26  N   UNL d   1      27.733 -12.781  -3.031  0.00  0.00    -0.324 N 
ATOM     27  C   UNL d   1      29.095 -13.197  -2.949  0.00  0.00     0.255 C 
ATOM     28  O   UNL d   1      29.990 -12.374  -2.620  0.00  0.00    -0.270 OA
BRANCH  27  29
ATOM     29  C   UNL d   1      29.693 -14.629  -3.295  0.00  0.00     0.245 C 
BRANCH  29  30
ATOM     30  C   UNL d   1      30.548 -14.796  -4.641  0.00  0.00    -0.020 C 
ATOM     31  C   UNL d   1      31.191 -13.889  -5.455  0.00  0.00     0.010 C 
ATOM     32  C   UNL d   1      31.749 -14.259  -6.756  0.00  0.00     0.001 C 
ATOM     33  C   UNL d   1      31.756 -15.551  -7.267  0.00  0.00     0.000 C 
ATOM     34  C   UNL d   1      30.998 -16.404  -6.576  0.00  0.00     0.001 C 
ATOM     35  C   UNL d   1      30.474 -15.968  -5.338  0.00  0.00     0.010 C 
ENDBRANCH  29  30
BRANCH  29  36
ATOM     36  O   UNL d   1      28.702 -15.602  -2.856  0.00  0.00    -0.377 OA
ATOM     37  C   UNL d   1      29.317 -16.697  -2.225  0.00  0.00     0.203 C 
ENDBRANCH  29  36
ENDBRANCH  27  29
BRANCH  26  38
ATOM     38  C   UNL d   1      27.407 -11.431  -2.372  0.00  0.00     0.025 C 
ATOM     39  C   UNL d   1      25.983 -10.938  -2.770  0.00  0.00     0.037 C 
ATOM     40  C   UNL d   1      27.502 -11.533  -0.834  0.00  0.00     0.037 C 
ATOM     41  C   UNL d   1      28.337 -10.266  -2.819  0.00  0.00     0.037 C 
ENDBRANCH  26  38
ENDBRANCH   1  26
TORSDOF 13
ENDMDL
MODEL 4
REMARK VINA RESULT:    -6.161      1.871      4.575
REMARK INTER + INTRA:         -15.803
REMARK INTER:                 -10.039
REMARK INTRA:                  -5.764
REMARK CONF_INDEPENDENT:        3.878
REMARK UNBOUND:                -5.764
REMARK  13 active torsions:
REMARK  status: ('A' for Active; 'I' for Inactive)
REMARK    1  A    between atoms: C_3  and  O_2 
REMARK    2  A    between atoms: C_3  and  C_32 
REMARK    3  A    between atoms: C_3  and  C_4 
REMARK       I    between atoms: C_4  and  N_6 
REMARK    4  A    between atoms: N_6  and  C_28 
REMARK    5  A    between atoms: C_7  and  N_6 
REMARK    6  A    between atoms: C_7  and  C_19 
REMARK    7  A    between atoms: C_7  and  C_8 
REMARK       I    between atoms: C_8  and  N_10 
REMARK    8  A    between atoms: N_10  and  C_11 
REMARK    9  A    between atoms: C_11  and  C_14 
REMARK   10  A    between atoms: C_14  and  C_15 
REMARK   11  A    between atoms: C_20  and  O_21 
REMARK   12  A    between atoms: C_23  and  O_24 
REMARK   13  A    between atoms: C_26  and  O_27 
ROOT
ATOM      1  C   UNL d   1      29.113 -14.046  -2.539  0.00  0.00     0.219 C 
ENDROOT
BRANCH   1   2
ATOM      2  C   UNL d   1      27.666 -14.044  -3.108  0.00  0.00     0.040 C 
ATOM      3  C   UNL d   1      27.132 -14.858  -4.148  0.00  0.00     0.080 C 
ATOM      4  C   UNL d   1      25.783 -14.947  -4.434  0.00  0.00     0.073 C 
ATOM      5  C   UNL d   1      24.930 -14.042  -3.879  0.00  0.00     0.071 C 
ATOM      6  C   UNL d   1      25.415 -13.082  -3.005  0.00  0.00     0.073 C 
ATOM      7  C   UNL d   1      26.758 -13.113  -2.599  0.00  0.00     0.080 C 
BRANCH   3   8
ATOM      8  O   UNL d   1      27.777 -15.575  -5.106  0.00  0.00    -0.360 OA
ATOM      9  H   UNL d   1      28.728 -15.630  -4.958  0.00  0.00     0.217 HD
ENDBRANCH   3   8
BRANCH   5  10
ATOM     10  O   UNL d   1      23.621 -14.075  -4.240  0.00  0.00    -0.361 OA
ATOM     11  H   UNL d   1      23.530 -13.495  -5.019  0.00  0.00     0.217 HD
ENDBRANCH   5  10
BRANCH   7  12
ATOM     12  O   UNL d   1      27.211 -12.187  -1.700  0.00  0.00    -0.360 OA
ATOM     13  H   UNL d   1      27.645 -12.657  -0.967  0.00  0.00     0.217 HD
ENDBRANCH   7  12
ENDBRANCH   1   2
BRANCH   1  14
ATOM     14  C   UNL d   1      29.796 -12.595  -1.866  0.00  0.00     0.246 C 
ATOM     15  O   UNL d   1      30.543 -11.890  -2.616  0.00  0.00    -0.271 OA
ATOM     16  N   UNL d   1      29.717 -12.259  -0.486  0.00  0.00    -0.351 N 
ATOM     17  H   UNL d   1      28.783 -12.475  -0.154  0.00  0.00     0.163 HD
BRANCH  16  18
ATOM     18  C   UNL d   1      30.957 -12.137   0.693  0.00  0.00     0.026 C 
ATOM     19  C   UNL d   1      32.360 -12.996   0.703  0.00  0.00     0.038 C 
ATOM     20  C   UNL d   1      31.337 -10.689   0.482  0.00  0.00     0.038 C 
BRANCH  18  21
ATOM     21  C   UNL d   1      30.414 -12.500   2.161  0.00  0.00     0.038 C 
BRANCH  21  22
ATOM     22  C   UNL d   1      30.239 -14.002   2.590  0.00  0.00    -0.049 C 
ATOM     23  C   UNL d   1      31.473 -14.702   3.229  0.00  0.00     0.014 C 
ATOM     24  C   UNL d   1      29.025 -14.101   3.495  0.00  0.00     0.014 C 
ATOM     25  C   UNL d   1      29.980 -14.830   1.320  0.00  0.00     0.014 C 
ENDBRANCH  21  22
ENDBRANCH  18  21
ENDBRANCH  16  18
ENDBRANCH   1  14
BRANCH   1  26
ATOM     26  N   UNL d   1      29.470 -15.416  -1.928  0.00  0.00    -0.324 N 
ATOM     27  C   UNL d   1      28.523 -16.202  -1.208  0.00  0.00     0.255 C 
ATOM     28  O   UNL d   1      28.479 -17.450  -1.372  0.00  0.00    -0.270 OA
BRANCH  27  29
ATOM     29  C   UNL d   1      27.397 -15.687  -0.210  0.00  0.00     0.245 C 
BRANCH  29  30
ATOM     30  C   UNL d   1      25.980 -16.437  -0.202  0.00  0.00    -0.020 C 
ATOM     31  C   UNL d   1      25.589 -17.686   0.228  0.00  0.00     0.010 C 
ATOM     32  C   UNL d   1      24.261 -18.232  -0.052  0.00  0.00     0.001 C 
ATOM     33  C   UNL d   1      23.249 -17.539  -0.702  0.00  0.00     0.000 C 
ATOM     34  C   UNL d   1      23.657 -16.401  -1.268  0.00  0.00     0.001 C 
ATOM     35  C   UNL d   1      24.961 -15.947  -0.969  0.00  0.00     0.010 C 
ENDBRANCH  29  30
BRANCH  29  36
ATOM     36  O   UNL d   1      27.531 -14.238  -0.156  0.00  0.00    -0.377 OA
ATOM     37  C   UNL d   1      26.685 -13.690   0.824  0.00  0.00     0.203 C 
ENDBRANCH  29  36
ENDBRANCH  27  29
BRANCH  26  38
ATOM     38  C   UNL d   1      30.612 -16.197  -2.600  0.00  0.00     0.025 C 
ATOM     39  C   UNL d   1      30.070 -17.142  -3.715  0.00  0.00     0.037 C 
ATOM     40  C   UNL d   1      31.654 -15.233  -3.207  0.00  0.00     0.037 C 
ATOM     41  C   UNL d   1      31.372 -17.159  -1.640  0.00  0.00     0.037 C 
ENDBRANCH  26  38
ENDBRANCH   1  26
TORSDOF 13
ENDMDL
MODEL 5
REMARK VINA RESULT:    -6.055      1.917      4.478
REMARK INTER + INTRA:         -15.706
REMARK INTER:                  -9.933
REMARK INTRA:                  -5.774
REMARK CONF_INDEPENDENT:        3.878
REMARK UNBOUND:                -5.774
REMARK  13 active torsions:
REMARK  status: ('A' for Active; 'I' for Inactive)
REMARK    1  A    between atoms: C_3  and  O_2 
REMARK    2  A    between atoms: C_3  and  C_32 
REMARK    3  A    between atoms: C_3  and  C_4 
REMARK       I    between atoms: C_4  and  N_6 
REMARK    4  A    between atoms: N_6  and  C_28 
REMARK    5  A    between atoms: C_7  and  N_6 
REMARK    6  A    between atoms: C_7  and  C_19 
REMARK    7  A    between atoms: C_7  and  C_8 
REMARK       I    between atoms: C_8  and  N_10 
REMARK    8  A    between atoms: N_10  and  C_11 
REMARK    9  A    between atoms: C_11  and  C_14 
REMARK   10  A    between atoms: C_14  and  C_15 
REMARK   11  A    between atoms: C_20  and  O_21 
REMARK   12  A    between atoms: C_23  and  O_24 
REMARK   13  A    between atoms: C_26  and  O_27 
ROOT
ATOM      1  C   UNL d   1      29.352 -14.576  -1.524  0.00  0.00     0.219 C 
ENDROOT
BRANCH   1   2
ATOM      2  C   UNL d   1      28.076 -14.509  -2.410  0.00  0.00     0.040 C 
ATOM      3  C   UNL d   1      27.857 -15.116  -3.679  0.00  0.00     0.080 C 
ATOM      4  C   UNL d   1      26.619 -15.191  -4.290  0.00  0.00     0.073 C 
ATOM      5  C   UNL d   1      25.593 -14.445  -3.795  0.00  0.00     0.071 C 
ATOM      6  C   UNL d   1      25.790 -13.662  -2.668  0.00  0.00     0.073 C 
ATOM      7  C   UNL d   1      27.005 -13.729  -1.966  0.00  0.00     0.080 C 
BRANCH   3   8
ATOM      8  O   UNL d   1      28.758 -15.605  -4.574  0.00  0.00    -0.360 OA
ATOM      9  H   UNL d   1      29.671 -15.459  -4.305  0.00  0.00     0.217 HD
ENDBRANCH   3   8
BRANCH   5  10
ATOM     10  O   UNL d   1      24.407 -14.450  -4.455  0.00  0.00    -0.361 OA
ATOM     11  H   UNL d   1      24.429 -13.696  -5.076  0.00  0.00     0.217 HD
ENDBRANCH   5  10
BRANCH   7  12
ATOM     12  O   UNL d   1      27.168 -12.986  -0.830  0.00  0.00    -0.360 OA
ATOM     13  H   UNL d   1      26.987 -13.556  -0.063  0.00  0.00     0.217 HD
ENDBRANCH   7  12
ENDBRANCH   1   2
BRANCH   1  14
ATOM     14  C   UNL d   1      29.880 -13.176  -0.635  0.00  0.00     0.246 C 
ATOM     15  O   UNL d   1      30.863 -12.518  -1.099  0.00  0.00    -0.271 OA
ATOM     16  N   UNL d   1      29.398 -12.845   0.661  0.00  0.00    -0.351 N 
ATOM     17  H   UNL d   1      28.396 -13.002   0.683  0.00  0.00     0.163 HD
BRANCH  16  18
ATOM     18  C   UNL d   1      30.218 -12.813   2.168  0.00  0.00     0.026 C 
ATOM     19  C   UNL d   1      30.813 -14.122   2.966  0.00  0.00     0.038 C 
ATOM     20  C   UNL d   1      31.409 -11.972   1.768  0.00  0.00     0.038 C 
BRANCH  18  21
ATOM     21  C   UNL d   1      29.295 -12.192   3.329  0.00  0.00     0.038 C 
BRANCH  21  22
ATOM     22  C   UNL d   1      28.093 -11.249   2.963  0.00  0.00    -0.049 C 
ATOM     23  C   UNL d   1      26.921 -11.880   2.158  0.00  0.00     0.014 C 
ATOM     24  C   UNL d   1      27.592 -10.599   4.239  0.00  0.00     0.014 C 
ATOM     25  C   UNL d   1      28.620 -10.153   2.022  0.00  0.00     0.014 C 
ENDBRANCH  21  22
ENDBRANCH  18  21
ENDBRANCH  16  18
ENDBRANCH   1  14
BRANCH   1  26
ATOM     26  N   UNL d   1      29.540 -15.982  -0.922  0.00  0.00    -0.324 N 
ATOM     27  C   UNL d   1      28.444 -16.765  -0.453  0.00  0.00     0.255 C 
ATOM     28  O   UNL d   1      28.404 -18.003  -0.684  0.00  0.00    -0.270 OA
BRANCH  27  29
ATOM     29  C   UNL d   1      27.149 -16.255   0.316  0.00  0.00     0.245 C 
BRANCH  29  30
ATOM     30  C   UNL d   1      25.708 -16.685  -0.242  0.00  0.00    -0.020 C 
ATOM     31  C   UNL d   1      24.659 -15.963  -0.767  0.00  0.00     0.010 C 
ATOM     32  C   UNL d   1      23.349 -16.560  -1.029  0.00  0.00     0.001 C 
ATOM     33  C   UNL d   1      23.050 -17.904  -0.851  0.00  0.00     0.000 C 
ATOM     34  C   UNL d   1      23.994 -18.580  -0.192  0.00  0.00     0.001 C 
ATOM     35  C   UNL d   1      25.226 -17.930   0.046  0.00  0.00     0.010 C 
ENDBRANCH  29  30
BRANCH  29  36
ATOM     36  O   UNL d   1      27.453 -14.909   0.780  0.00  0.00    -0.377 OA
ATOM     37  C   UNL d   1      27.778 -14.909   2.147  0.00  0.00     0.203 C 
ENDBRANCH  29  36
ENDBRANCH  27  29
BRANCH  26  38
ATOM     38  C   UNL d   1      30.776 -16.773  -1.382  0.00  0.00     0.025 C 
ATOM     39  C   UNL d   1      31.929 -15.817  -1.814  0.00  0.00     0.037 C 
ATOM     40  C   UNL d   1      31.278 -17.708  -0.261  0.00  0.00     0.037 C 
ATOM     41  C   UNL d   1      30.533 -17.649  -2.645  0.00  0.00     0.037 C 
ENDBRANCH  26  38
ENDBRANCH   1  26
TORSDOF 13
ENDMDL
MODEL 6
REMARK VINA RESULT:    -5.932      2.159      6.095
REMARK INTER + INTRA:         -15.856
REMARK INTER:                  -9.810
REMARK INTRA:                  -6.046
REMARK CONF_INDEPENDENT:        3.878
REMARK UNBOUND:                -6.046
REMARK  13 active torsions:
REMARK  status: ('A' for Active; 'I' for Inactive)
REMARK    1  A    between atoms: C_3  and  O_2 
REMARK    2  A    between atoms: C_3  and  C_32 
REMARK    3  A    between atoms: C_3  and  C_4 
REMARK       I    between atoms: C_4  and  N_6 
REMARK    4  A    between atoms: N_6  and  C_28 
REMARK    5  A    between atoms: C_7  and  N_6 
REMARK    6  A    between atoms: C_7  and  C_19 
REMARK    7  A    between atoms: C_7  and  C_8 
REMARK       I    between atoms: C_8  and  N_10 
REMARK    8  A    between atoms: N_10  and  C_11 
REMARK    9  A    between atoms: C_11  and  C_14 
REMARK   10  A    between atoms: C_14  and  C_15 
REMARK   11  A    between atoms: C_20  and  O_21 
REMARK   12  A    between atoms: C_23  and  O_24 
REMARK   13  A    between atoms: C_26  and  O_27 
ROOT
ATOM      1  C   UNL d   1      28.616 -14.458  -1.931  0.00  0.00     0.219 C 
ENDROOT
BRANCH   1   2
ATOM      2  C   UNL d   1      28.564 -14.367  -0.380  0.00  0.00     0.040 C 
ATOM      3  C   UNL d   1      27.448 -14.043   0.443  0.00  0.00     0.080 C 
ATOM      4  C   UNL d   1      27.435 -14.206   1.816  0.00  0.00     0.073 C 
ATOM      5  C   UNL d   1      28.609 -14.450   2.462  0.00  0.00     0.071 C 
ATOM      6  C   UNL d   1      29.783 -14.577   1.736  0.00  0.00     0.073 C 
ATOM      7  C   UNL d   1      29.748 -14.575   0.332  0.00  0.00     0.080 C 
BRANCH   3   8
ATOM      8  O   UNL d   1      26.280 -13.427   0.117  0.00  0.00    -0.360 OA
ATOM      9  H   UNL d   1      26.324 -12.960  -0.725  0.00  0.00     0.217 HD
ENDBRANCH   3   8
BRANCH   5  10
ATOM     10  O   UNL d   1      28.604 -14.513   3.818  0.00  0.00    -0.361 OA
ATOM     11  H   UNL d   1      28.961 -15.389   4.059  0.00  0.00     0.217 HD
ENDBRANCH   5  10
BRANCH   7  12
ATOM     12  O   UNL d   1      30.908 -14.748  -0.370  0.00  0.00    -0.360 OA
ATOM     13  H   UNL d   1      30.820 -15.549  -0.915  0.00  0.00     0.217 HD
ENDBRANCH   7  12
ENDBRANCH   1   2
BRANCH   1  14
ATOM     14  C   UNL d   1      28.988 -15.968  -2.712  0.00  0.00     0.246 C 
ATOM     15  O   UNL d   1      29.516 -16.883  -2.007  0.00  0.00    -0.271 OA
ATOM     16  N   UNL d   1      28.905 -16.162  -4.119  0.00  0.00    -0.351 N 
ATOM     17  H   UNL d   1      28.062 -15.711  -4.458  0.00  0.00     0.163 HD
BRANCH  16  18
ATOM     18  C   UNL d   1      30.145 -16.468  -5.265  0.00  0.00     0.026 C 
ATOM     19  C   UNL d   1      31.740 -16.117  -5.070  0.00  0.00     0.038 C 
ATOM     20  C   UNL d   1      30.037 -17.974  -5.328  0.00  0.00     0.038 C 
BRANCH  18  21
ATOM     21  C   UNL d   1      29.872 -15.699  -6.650  0.00  0.00     0.038 C 
BRANCH  21  22
ATOM     22  C   UNL d   1      29.878 -14.127  -6.695  0.00  0.00    -0.049 C 
ATOM     23  C   UNL d   1      29.955 -13.382  -5.331  0.00  0.00     0.014 C 
ATOM     24  C   UNL d   1      30.990 -13.682  -7.626  0.00  0.00     0.014 C 
ATOM     25  C   UNL d   1      28.530 -13.665  -7.275  0.00  0.00     0.014 C 
ENDBRANCH  21  22
ENDBRANCH  18  21
ENDBRANCH  16  18
ENDBRANCH   1  14
BRANCH   1  26
ATOM     26  N   UNL d   1      27.610 -13.487  -2.581  0.00  0.00    -0.324 N 
ATOM     27  C   UNL d   1      26.212 -13.762  -2.641  0.00  0.00     0.255 C 
ATOM     28  O   UNL d   1      25.376 -12.845  -2.428  0.00  0.00    -0.270 OA
BRANCH  27  29
ATOM     29  C   UNL d   1      25.512 -15.167  -2.894  0.00  0.00     0.245 C 
BRANCH  29  30
ATOM     30  C   UNL d   1      25.371 -16.185  -1.663  0.00  0.00    -0.020 C 
ATOM     31  C   UNL d   1      26.283 -16.972  -0.996  0.00  0.00     0.010 C 
ATOM     32  C   UNL d   1      25.881 -17.982  -0.017  0.00  0.00     0.001 C 
ATOM     33  C   UNL d   1      24.571 -18.201   0.391  0.00  0.00     0.000 C 
ATOM     34  C   UNL d   1      23.665 -17.570  -0.358  0.00  0.00     0.001 C 
ATOM     35  C   UNL d   1      24.130 -16.624  -1.299  0.00  0.00     0.010 C 
ENDBRANCH  29  30
BRANCH  29  36
ATOM     36  O   UNL d   1      25.909 -15.586  -4.231  0.00  0.00    -0.377 OA
ATOM     37  C   UNL d   1      26.178 -14.475  -5.047  0.00  0.00     0.203 C 
ENDBRANCH  29  36
ENDBRANCH  27  29
BRANCH  26  38
ATOM     38  C   UNL d   1      27.999 -11.999  -2.600  0.00  0.00     0.025 C 
ATOM     39  C   UNL d   1      29.544 -11.818  -2.503  0.00  0.00     0.037 C 
ATOM     40  C   UNL d   1      27.482 -11.313  -3.883  0.00  0.00     0.037 C 
ATOM     41  C   UNL d   1      27.457 -11.186  -1.388  0.00  0.00     0.037 C 
ENDBRANCH  26  38
ENDBRANCH   1  26
TORSDOF 13
ENDMDL
MODEL 7
REMARK VINA RESULT:    -5.660      3.398      7.387
REMARK INTER + INTRA:         -15.613
REMARK INTER:                  -9.537
REMARK INTRA:                  -6.075
REMARK CONF_INDEPENDENT:        3.878
REMARK UNBOUND:                -6.075
REMARK  13 active torsions:
REMARK  status: ('A' for Active; 'I' for Inactive)
REMARK    1  A    between atoms: C_3  and  O_2 
REMARK    2  A    between atoms: C_3  and  C_32 
REMARK    3  A    between atoms: C_3  and  C_4 
REMARK       I    between atoms: C_4  and  N_6 
REMARK    4  A    between atoms: N_6  and  C_28 
REMARK    5  A    between atoms: C_7  and  N_6 
REMARK    6  A    between atoms: C_7  and  C_19 
REMARK    7  A    between atoms: C_7  and  C_8 
REMARK       I    between atoms: C_8  and  N_10 
REMARK    8  A    between atoms: N_10  and  C_11 
REMARK    9  A    between atoms: C_11  and  C_14 
REMARK   10  A    between atoms: C_14  and  C_15 
REMARK   11  A    between atoms: C_20  and  O_21 
REMARK   12  A    between atoms: C_23  and  O_24 
REMARK   13  A    between atoms: C_26  and  O_27 
ROOT
ATOM      1  C   UNL d   1      29.158 -13.779  -4.468  0.00  0.00     0.219 C 
ENDROOT
BRANCH   1   2
ATOM      2  C   UNL d   1      27.614 -13.847  -4.294  0.00  0.00     0.040 C 
ATOM      3  C   UNL d   1      26.770 -12.936  -3.596  0.00  0.00     0.080 C 
ATOM      4  C   UNL d   1      25.391 -12.950  -3.683  0.00  0.00     0.073 C 
ATOM      5  C   UNL d   1      24.777 -14.023  -4.255  0.00  0.00     0.071 C 
ATOM      6  C   UNL d   1      25.538 -15.055  -4.780  0.00  0.00     0.073 C 
ATOM      7  C   UNL d   1      26.937 -14.944  -4.832  0.00  0.00     0.080 C 
BRANCH   3   8
ATOM      8  O   UNL d   1      27.088 -12.003  -2.659  0.00  0.00    -0.360 OA
ATOM      9  H   UNL d   1      28.010 -12.048  -2.382  0.00  0.00     0.217 HD
ENDBRANCH   3   8
BRANCH   5  10
ATOM     10  O   UNL d   1      23.420 -14.075  -4.250  0.00  0.00    -0.361 OA
ATOM     11  H   UNL d   1      23.117 -13.550  -5.016  0.00  0.00     0.217 HD
ENDBRANCH   5  10
BRANCH   7  12
ATOM     12  O   UNL d   1      27.672 -15.950  -5.395  0.00  0.00    -0.360 OA
ATOM     13  H   UNL d   1      28.160 -16.406  -4.688  0.00  0.00     0.217 HD
ENDBRANCH   7  12
ENDBRANCH   1   2
BRANCH   1  14
ATOM     14  C   UNL d   1      29.983 -12.248  -4.418  0.00  0.00     0.246 C 
ATOM     15  O   UNL d   1      29.870 -11.551  -3.361  0.00  0.00    -0.271 OA
ATOM     16  N   UNL d   1      30.613 -11.661  -5.550  0.00  0.00    -0.351 N 
ATOM     17  H   UNL d   1      31.108 -12.387  -6.057  0.00  0.00     0.163 HD
BRANCH  16  18
ATOM     18  C   UNL d   1      30.219 -10.233  -6.414  0.00  0.00     0.026 C 
ATOM     19  C   UNL d   1      29.300  -8.992  -5.850  0.00  0.00     0.038 C 
ATOM     20  C   UNL d   1      31.615  -9.685  -6.608  0.00  0.00     0.038 C 
BRANCH  18  21
ATOM     21  C   UNL d   1      29.415 -10.564  -7.767  0.00  0.00     0.038 C 
BRANCH  21  22
ATOM     22  C   UNL d   1      28.187 -11.544  -7.736  0.00  0.00    -0.049 C 
ATOM     23  C   UNL d   1      27.243 -11.454  -6.502  0.00  0.00     0.014 C 
ATOM     24  C   UNL d   1      27.413 -11.378  -9.030  0.00  0.00     0.014 C 
ATOM     25  C   UNL d   1      28.730 -12.981  -7.662  0.00  0.00     0.014 C 
ENDBRANCH  21  22
ENDBRANCH  18  21
ENDBRANCH  16  18
ENDBRANCH   1  14
BRANCH   1  26
ATOM     26  N   UNL d   1      29.840 -15.037  -3.894  0.00  0.00    -0.324 N 
ATOM     27  C   UNL d   1      29.232 -15.843  -2.888  0.00  0.00     0.255 C 
ATOM     28  O   UNL d   1      29.307 -17.099  -2.951  0.00  0.00    -0.270 OA
BRANCH  27  29
ATOM     29  C   UNL d   1      28.361 -15.355  -1.650  0.00  0.00     0.245 C 
BRANCH  29  30
ATOM     30  C   UNL d   1      26.930 -16.036  -1.404  0.00  0.00    -0.020 C 
ATOM     31  C   UNL d   1      25.641 -15.586  -1.586  0.00  0.00     0.010 C 
ATOM     32  C   UNL d   1      24.476 -16.325  -1.099  0.00  0.00     0.001 C 
ATOM     33  C   UNL d   1      24.537 -17.566  -0.480  0.00  0.00     0.000 C 
ATOM     34  C   UNL d   1      25.775 -17.938  -0.148  0.00  0.00     0.001 C 
ATOM     35  C   UNL d   1      26.851 -17.162  -0.636  0.00  0.00     0.010 C 
ENDBRANCH  29  30
BRANCH  29  36
ATOM     36  O   UNL d   1      28.592 -13.922  -1.528  0.00  0.00    -0.377 OA
ATOM     37  C   UNL d   1      29.766 -13.662  -0.801  0.00  0.00     0.203 C 
ENDBRANCH  29  36
ENDBRANCH  27  29
BRANCH  26  38
ATOM     38  C   UNL d   1      30.848 -15.755  -4.806  0.00  0.00     0.025 C 
ATOM     39  C   UNL d   1      31.355 -14.812  -5.940  0.00  0.00     0.037 C 
ATOM     40  C   UNL d   1      32.054 -16.272  -3.993  0.00  0.00     0.037 C 
ATOM     41  C   UNL d   1      30.252 -16.969  -5.577  0.00  0.00     0.037 C 
ENDBRANCH  26  38
ENDBRANCH   1  26
TORSDOF 13
ENDMDL
MODEL 8
REMARK VINA RESULT:    -5.578      2.232      4.287
REMARK INTER + INTRA:         -15.592
REMARK INTER:                  -9.456
REMARK INTRA:                  -6.136
REMARK CONF_INDEPENDENT:        3.878
REMARK UNBOUND:                -6.136
REMARK  13 active torsions:
REMARK  status: ('A' for Active; 'I' for Inactive)
REMARK    1  A    between atoms: C_3  and  O_2 
REMARK    2  A    between atoms: C_3  and  C_32 
REMARK    3  A    between atoms: C_3  and  C_4 
REMARK       I    between atoms: C_4  and  N_6 
REMARK    4  A    between atoms: N_6  and  C_28 
REMARK    5  A    between atoms: C_7  and  N_6 
REMARK    6  A    between atoms: C_7  and  C_19 
REMARK    7  A    between atoms: C_7  and  C_8 
REMARK       I    between atoms: C_8  and  N_10 
REMARK    8  A    between atoms: N_10  and  C_11 
REMARK    9  A    between atoms: C_11  and  C_14 
REMARK   10  A    between atoms: C_14  and  C_15 
REMARK   11  A    between atoms: C_20  and  O_21 
REMARK   12  A    between atoms: C_23  and  O_24 
REMARK   13  A    between atoms: C_26  and  O_27 
ROOT
ATOM      1  C   UNL d   1      29.103 -13.538  -2.668  0.00  0.00     0.219 C 
ENDROOT
BRANCH   1   2
ATOM      2  C   UNL d   1      29.061 -13.535  -4.222  0.00  0.00     0.040 C 
ATOM      3  C   UNL d   1      28.303 -14.383  -5.079  0.00  0.00     0.080 C 
ATOM      4  C   UNL d   1      28.153 -14.163  -6.436  0.00  0.00     0.073 C 
ATOM      5  C   UNL d   1      28.953 -13.247  -7.048  0.00  0.00     0.071 C 
ATOM      6  C   UNL d   1      29.867 -12.520  -6.302  0.00  0.00     0.073 C 
ATOM      7  C   UNL d   1      29.888 -12.639  -4.903  0.00  0.00     0.080 C 
BRANCH   3   8
ATOM      8  O   UNL d   1      27.709 -15.577  -4.815  0.00  0.00    -0.360 OA
ATOM      9  H   UNL d   1      27.143 -15.551  -4.035  0.00  0.00     0.217 HD
ENDBRANCH   3   8
BRANCH   5  10
ATOM     10  O   UNL d   1      28.867 -13.106  -8.396  0.00  0.00    -0.361 OA
ATOM     11  H   UNL d   1      28.882 -14.005  -8.774  0.00  0.00     0.217 HD
ENDBRANCH   5  10
BRANCH   7  12
ATOM     12  O   UNL d   1      30.764 -11.881  -4.176  0.00  0.00    -0.360 OA
ATOM     13  H   UNL d   1      30.251 -11.267  -3.622  0.00  0.00     0.217 HD
ENDBRANCH   7  12
ENDBRANCH   1   2
BRANCH   1  14
ATOM     14  C   UNL d   1      28.429 -12.210  -1.767  0.00  0.00     0.246 C 
ATOM     15  O   UNL d   1      28.980 -11.072  -1.891  0.00  0.00    -0.271 OA
ATOM     16  N   UNL d   1      27.427 -12.371  -0.770  0.00  0.00    -0.351 N 
ATOM     17  H   UNL d   1      26.743 -13.040  -1.104  0.00  0.00     0.163 HD
BRANCH  16  18
ATOM     18  C   UNL d   1      27.506 -12.111   0.924  0.00  0.00     0.026 C 
ATOM     19  C   UNL d   1      27.406 -10.652   1.678  0.00  0.00     0.038 C 
ATOM     20  C   UNL d   1      26.282 -12.897   1.337  0.00  0.00     0.038 C 
BRANCH  18  21
ATOM     21  C   UNL d   1      28.898 -12.630   1.537  0.00  0.00     0.038 C 
BRANCH  21  22
ATOM     22  C   UNL d   1      29.052 -14.127   1.992  0.00  0.00    -0.049 C 
ATOM     23  C   UNL d   1      28.319 -15.202   1.138  0.00  0.00     0.014 C 
ATOM     24  C   UNL d   1      30.531 -14.439   2.112  0.00  0.00     0.014 C 
ATOM     25  C   UNL d   1      28.400 -14.271   3.377  0.00  0.00     0.014 C 
ENDBRANCH  21  22
ENDBRANCH  18  21
ENDBRANCH  16  18
ENDBRANCH   1  14
BRANCH   1  26
ATOM     26  N   UNL d   1      29.005 -14.971  -2.109  0.00  0.00    -0.324 N 
ATOM     27  C   UNL d   1      27.779 -15.698  -2.081  0.00  0.00     0.255 C 
ATOM     28  O   UNL d   1      27.760 -16.923  -2.374  0.00  0.00    -0.270 OA
BRANCH  27  29
ATOM     29  C   UNL d   1      26.325 -15.132  -1.773  0.00  0.00     0.245 C 
BRANCH  29  30
ATOM     30  C   UNL d   1      25.192 -16.156  -1.284  0.00  0.00    -0.020 C 
ATOM     31  C   UNL d   1      23.816 -16.091  -1.278  0.00  0.00     0.010 C 
ATOM     32  C   UNL d   1      22.986 -17.080  -0.590  0.00  0.00     0.001 C 
ATOM     33  C   UNL d   1      23.481 -18.207   0.054  0.00  0.00     0.000 C 
ATOM     34  C   UNL d   1      24.808 -18.201   0.201  0.00  0.00     0.001 C 
ATOM     35  C   UNL d   1      25.542 -17.200  -0.475  0.00  0.00     0.010 C 
ENDBRANCH  29  30
BRANCH  29  36
ATOM     36  O   UNL d   1      26.079 -14.083  -2.753  0.00  0.00    -0.377 OA
ATOM     37  C   UNL d   1      25.065 -14.460  -3.650  0.00  0.00     0.203 C 
ENDBRANCH  29  36
ENDBRANCH  27  29
BRANCH  26  38
ATOM     38  C   UNL d   1      30.284 -15.823  -2.160  0.00  0.00     0.025 C 
ATOM     39  C   UNL d   1      30.313 -16.869  -1.005  0.00  0.00     0.037 C 
ATOM     40  C   UNL d   1      30.404 -16.553  -3.515  0.00  0.00     0.037 C 
ATOM     41  C   UNL d   1      31.596 -15.010  -1.952  0.00  0.00     0.037 C 
ENDBRANCH  26  38
ENDBRANCH   1  26
TORSDOF 13
ENDMDL
MODEL 9
REMARK VINA RESULT:    -5.102      2.380      6.358
REMARK INTER + INTRA:         -15.543
REMARK INTER:                  -8.980
REMARK INTRA:                  -6.562
REMARK CONF_INDEPENDENT:        3.878
REMARK UNBOUND:                -6.562
REMARK  13 active torsions:
REMARK  status: ('A' for Active; 'I' for Inactive)
REMARK    1  A    between atoms: C_3  and  O_2 
REMARK    2  A    between atoms: C_3  and  C_32 
REMARK    3  A    between atoms: C_3  and  C_4 
REMARK       I    between atoms: C_4  and  N_6 
REMARK    4  A    between atoms: N_6  and  C_28 
REMARK    5  A    between atoms: C_7  and  N_6 
REMARK    6  A    between atoms: C_7  and  C_19 
REMARK    7  A    between atoms: C_7  and  C_8 
REMARK       I    between atoms: C_8  and  N_10 
REMARK    8  A    between atoms: N_10  and  C_11 
REMARK    9  A    between atoms: C_11  and  C_14 
REMARK   10  A    between atoms: C_14  and  C_15 
REMARK   11  A    between atoms: C_20  and  O_21 
REMARK   12  A    between atoms: C_23  and  O_24 
REMARK   13  A    between atoms: C_26  and  O_27 
ROOT
ATOM      1  C   UNL d   1      27.792 -16.178  -1.042  0.00  0.00     0.219 C 
ENDROOT
BRANCH   1   2
ATOM      2  C   UNL d   1      26.380 -16.780  -0.795  0.00  0.00     0.040 C 
ATOM      3  C   UNL d   1      25.124 -16.283  -1.247  0.00  0.00     0.080 C 
ATOM      4  C   UNL d   1      23.945 -17.001  -1.174  0.00  0.00     0.073 C 
ATOM      5  C   UNL d   1      23.908 -18.134  -0.418  0.00  0.00     0.071 C 
ATOM      6  C   UNL d   1      25.055 -18.573   0.223  0.00  0.00     0.073 C 
ATOM      7  C   UNL d   1      26.280 -17.924   0.001  0.00  0.00     0.080 C 
BRANCH   3   8
ATOM      8  O   UNL d   1      24.793 -15.043  -1.696  0.00  0.00    -0.360 OA
ATOM      9  H   UNL d   1      25.351 -14.745  -2.423  0.00  0.00     0.217 HD
ENDBRANCH   3   8
BRANCH   5  10
ATOM     10  O   UNL d   1      22.723 -18.781  -0.273  0.00  0.00    -0.361 OA
ATOM     11  H   UNL d   1      22.872 -19.496   0.374  0.00  0.00     0.217 HD
ENDBRANCH   5  10
BRANCH   7  12
ATOM     12  O   UNL d   1      27.412 -18.397   0.605  0.00  0.00    -0.360 OA
ATOM     13  H   UNL d   1      28.169 -18.220   0.019  0.00  0.00     0.217 HD
ENDBRANCH   7  12
ENDBRANCH   1   2
BRANCH   1  14
ATOM     14  C   UNL d   1      28.942 -17.014  -2.047  0.00  0.00     0.246 C 
ATOM     15  O   UNL d   1      29.742 -17.823  -1.482  0.00  0.00    -0.271 OA
ATOM     16  N   UNL d   1      29.154 -16.702  -3.418  0.00  0.00    -0.351 N 
ATOM     17  H   UNL d   1      28.253 -16.542  -3.856  0.00  0.00     0.163 HD
BRANCH  16  18
ATOM     18  C   UNL d   1      30.532 -16.043  -4.199  0.00  0.00     0.026 C 
ATOM     19  C   UNL d   1      32.096 -16.284  -3.752  0.00  0.00     0.038 C 
ATOM     20  C   UNL d   1      30.364 -16.691  -5.555  0.00  0.00     0.038 C 
BRANCH  18  21
ATOM     21  C   UNL d   1      30.501 -14.435  -4.195  0.00  0.00     0.038 C 
BRANCH  21  22
ATOM     22  C   UNL d   1      30.953 -13.640  -2.917  0.00  0.00    -0.049 C 
ATOM     23  C   UNL d   1      30.814 -14.366  -1.548  0.00  0.00     0.014 C 
ATOM     24  C   UNL d   1      32.373 -13.153  -3.137  0.00  0.00     0.014 C 
ATOM     25  C   UNL d   1      30.028 -12.420  -2.766  0.00  0.00     0.014 C 
ENDBRANCH  21  22
ENDBRANCH  18  21
ENDBRANCH  16  18
ENDBRANCH   1  14
BRANCH   1  26
ATOM     26  N   UNL d   1      27.749 -14.637  -1.045  0.00  0.00    -0.324 N 
ATOM     27  C   UNL d   1      27.186 -13.891  -2.121  0.00  0.00     0.255 C 
ATOM     28  O   UNL d   1      26.478 -12.876  -1.887  0.00  0.00    -0.270 OA
BRANCH  27  29
ATOM     29  C   UNL d   1      27.278 -14.214  -3.676  0.00  0.00     0.245 C 
BRANCH  29  30
ATOM     30  C   UNL d   1      27.078 -13.013  -4.720  0.00  0.00    -0.020 C 
ATOM     31  C   UNL d   1      26.091 -12.064  -4.870  0.00  0.00     0.010 C 
ATOM     32  C   UNL d   1      26.023 -11.180  -6.034  0.00  0.00     0.001 C 
ATOM     33  C   UNL d   1      26.965 -11.152  -7.054  0.00  0.00     0.000 C 
ATOM     34  C   UNL d   1      27.830 -12.169  -7.012  0.00  0.00     0.001 C 
ATOM     35  C   UNL d   1      27.822 -12.994  -5.866  0.00  0.00     0.010 C 
ENDBRANCH  29  30
BRANCH  29  36
ATOM     36  O   UNL d   1      26.684 -15.531  -3.855  0.00  0.00    -0.377 OA
ATOM     37  C   UNL d   1      25.899 -15.575  -5.020  0.00  0.00     0.203 C 
ENDBRANCH  29  36
ENDBRANCH  27  29
BRANCH  26  38
ATOM     38  C   UNL d   1      27.737 -13.943   0.327  0.00  0.00     0.025 C 
ATOM     39  C   UNL d   1      26.280 -13.718   0.834  0.00  0.00     0.037 C 
ATOM     40  C   UNL d   1      28.520 -14.771   1.368  0.00  0.00     0.037 C 
ATOM     41  C   UNL d   1      28.348 -12.510   0.318  0.00  0.00     0.037 C 
ENDBRANCH  26  38
ENDBRANCH   1  26
TORSDOF 13
ENDMDL
