MODEL 1
REMARK VINA RESULT:    -7.959      0.000      0.000
REMARK INTER + INTRA:         -11.075
REMARK INTER:                 -10.047
REMARK INTRA:                  -1.028
REMARK CONF_INDEPENDENT:        2.088
REMARK UNBOUND:                -1.028
REMARK  7 active torsions:
REMARK  status: ('A' for Active; 'I' for Inactive)
REMARK    1  A    between atoms: O_2  and  C_3 
REMARK    2  A    between atoms: C_6  and  C_7 
REMARK    3  A    between atoms: N_11  and  C_12 
REMARK    4  A    between atoms: C_12  and  N_13 
REMARK    5  A    between atoms: C_15  and  O_16 
REMARK    6  A    between atoms: O_16  and  C_17 
REMARK    7  A    between atoms: C_23  and  O_24 
ROOT
ATOM      1  C   UNL d   1      28.027 -15.671  -0.245  0.00  0.00     0.225 C 
ATOM      2  C   UNL d   1      29.333 -16.276  -0.753  0.00  0.00     0.040 C 
ATOM      3  C   UNL d   1      30.448 -15.438  -0.132  0.00  0.00     0.030 C 
ATOM      4  C   UNL d   1      29.930 -14.910   1.197  0.00  0.00     0.238 C 
ATOM      5  N   UNL d   1      28.428 -15.156   1.154  0.00  0.00    -0.045 N 
ATOM      6  H   UNL d   1      28.314 -16.014   1.733  0.00  0.00     0.282 HD
ENDROOT
BRANCH   5   7
ATOM      7  C   UNL d   1      27.506 -14.152   1.810  0.00  0.00     0.385 C 
BRANCH   7   8
ATOM      8  N   UNL d   1      28.038 -13.546   3.040  0.00  0.00    -0.247 N 
ATOM      9  N   UNL d   1      28.634 -14.318   4.037  0.00  0.00    -0.269 N 
ATOM     10  C   UNL d   1      28.630 -13.794   5.202  0.00  0.00     0.204 C 
ATOM     11  H   UNL d   1      29.000 -15.247   3.900  0.00  0.00     0.190 HD
ATOM     12  S   UNL d   1      28.082 -12.169   5.243  0.00  0.00    -0.014 SA
ATOM     13  C   UNL d   1      27.703 -12.275   3.511  0.00  0.00     0.165 C 
ATOM     14  S   UNL d   1      27.043 -11.035   2.636  0.00  0.00    -0.051 SA
BRANCH  10  15
ATOM     15  O   UNL d   1      28.943 -14.529   6.280  0.00  0.00    -0.325 OA
BRANCH  15  16
ATOM     16  C   UNL d   1      29.612 -14.075   7.499  0.00  0.00     0.123 C 
ATOM     17  C   UNL d   1      30.692 -13.065   7.131  0.00  0.00     0.040 C 
ATOM     18  C   UNL d   1      28.558 -13.407   8.370  0.00  0.00     0.040 C 
ENDBRANCH  15  16
ENDBRANCH  10  15
ENDBRANCH   7   8
ENDBRANCH   5   7
BRANCH   1  19
ATOM     19  C   UNL d   1      26.764 -16.491  -0.285  0.00  0.00     0.006 A 
ATOM     20  C   UNL d   1      26.692 -17.726   0.395  0.00  0.00     0.015 A 
ATOM     21  C   UNL d   1      25.591 -18.574   0.230  0.00  0.00     0.037 A 
ATOM     22  C   UNL d   1      24.510 -18.175  -0.548  0.00  0.00     0.070 A 
ATOM     23  C   UNL d   1      24.538 -16.925  -1.160  0.00  0.00     0.074 A 
ATOM     24  C   UNL d   1      25.655 -16.088  -1.041  0.00  0.00     0.079 A 
BRANCH  22  25
ATOM     25  O   UNL d   1      23.435 -19.015  -0.571  0.00  0.00    -0.356 OA
ATOM     26  C   UNL d   1      22.223 -18.509  -0.010  0.00  0.00     0.210 C 
ENDBRANCH  22  25
BRANCH  24  27
ATOM     27  O   UNL d   1      25.776 -14.865  -1.651  0.00  0.00    -0.355 OA
ATOM     28  C   UNL d   1      25.536 -14.858  -3.062  0.00  0.00     0.210 C 
ENDBRANCH  24  27
ENDBRANCH   1  19
TORSDOF 7
ENDMDL
MODEL 2
REMARK VINA RESULT:    -7.733      1.656      2.082
REMARK INTER + INTRA:         -11.661
REMARK INTER:                  -9.821
REMARK INTRA:                  -1.840
REMARK CONF_INDEPENDENT:        2.088
REMARK UNBOUND:                -1.840
REMARK  7 active torsions:
REMARK  status: ('A' for Active; 'I' for Inactive)
REMARK    1  A    between atoms: O_2  and  C_3 
REMARK    2  A    between atoms: C_6  and  C_7 
REMARK    3  A    between atoms: N_11  and  C_12 
REMARK    4  A    between atoms: C_12  and  N_13 
REMARK    5  A    between atoms: C_15  and  O_16 
REMARK    6  A    between atoms: O_16  and  C_17 
REMARK    7  A    between atoms: C_23  and  O_24 
ROOT
ATOM      1  C   UNL d   1      29.114 -17.045  -0.889  0.00  0.00     0.225 C 
ATOM      2  C   UNL d   1      29.958 -18.316  -0.854  0.00  0.00     0.040 C 
ATOM      3  C   UNL d   1      31.404 -17.851  -0.700  0.00  0.00     0.030 C 
ATOM      4  C   UNL d   1      31.376 -16.534   0.060  0.00  0.00     0.238 C 
ATOM      5  N   UNL d   1      29.919 -16.093   0.022  0.00  0.00    -0.045 N 
ATOM      6  H   UNL d   1      29.568 -16.360   0.966  0.00  0.00     0.282 HD
ENDROOT
BRANCH   5   7
ATOM      7  C   UNL d   1      29.607 -14.616  -0.075  0.00  0.00     0.385 C 
BRANCH   7   8
ATOM      8  N   UNL d   1      28.838 -14.077   1.056  0.00  0.00    -0.247 N 
ATOM      9  N   UNL d   1      28.936 -14.627   2.334  0.00  0.00    -0.269 N 
ATOM     10  C   UNL d   1      27.931 -14.412   3.094  0.00  0.00     0.204 C 
ATOM     11  H   UNL d   1      29.699 -15.203   2.654  0.00  0.00     0.190 HD
ATOM     12  S   UNL d   1      26.779 -13.319   2.447  0.00  0.00    -0.014 SA
ATOM     13  C   UNL d   1      27.711 -13.261   0.936  0.00  0.00     0.165 C 
ATOM     14  S   UNL d   1      27.267 -12.373  -0.387  0.00  0.00    -0.051 SA
BRANCH  10  15
ATOM     15  O   UNL d   1      27.792 -15.086   4.246  0.00  0.00    -0.325 OA
BRANCH  15  16
ATOM     16  C   UNL d   1      28.392 -14.764   5.540  0.00  0.00     0.123 C 
ATOM     17  C   UNL d   1      29.910 -14.828   5.418  0.00  0.00     0.040 C 
ATOM     18  C   UNL d   1      27.963 -13.347   5.896  0.00  0.00     0.040 C 
ENDBRANCH  15  16
ENDBRANCH  10  15
ENDBRANCH   7   8
ENDBRANCH   5   7
BRANCH   1  19
ATOM     19  C   UNL d   1      27.640 -17.123  -0.586  0.00  0.00     0.006 A 
ATOM     20  C   UNL d   1      27.164 -17.983   0.427  0.00  0.00     0.015 A 
ATOM     21  C   UNL d   1      25.792 -18.191   0.606  0.00  0.00     0.037 A 
ATOM     22  C   UNL d   1      24.871 -17.489  -0.163  0.00  0.00     0.070 A 
ATOM     23  C   UNL d   1      25.330 -16.581  -1.112  0.00  0.00     0.074 A 
ATOM     24  C   UNL d   1      26.701 -16.399  -1.333  0.00  0.00     0.079 A 
BRANCH  22  25
ATOM     25  O   UNL d   1      23.554 -17.674   0.146  0.00  0.00    -0.356 OA
ATOM     26  C   UNL d   1      22.723 -18.180  -0.899  0.00  0.00     0.210 C 
ENDBRANCH  22  25
BRANCH  24  27
ATOM     27  O   UNL d   1      27.230 -15.558  -2.279  0.00  0.00    -0.355 OA
ATOM     28  C   UNL d   1      26.271 -14.866  -3.087  0.00  0.00     0.210 C 
ENDBRANCH  24  27
ENDBRANCH   1  19
TORSDOF 7
ENDMDL
MODEL 3
REMARK VINA RESULT:    -7.016      1.713      2.608
REMARK INTER + INTRA:         -11.160
REMARK INTER:                  -9.105
REMARK INTRA:                  -2.055
REMARK CONF_INDEPENDENT:        2.088
REMARK UNBOUND:                -2.055
REMARK  7 active torsions:
REMARK  status: ('A' for Active; 'I' for Inactive)
REMARK    1  A    between atoms: O_2  and  C_3 
REMARK    2  A    between atoms: C_6  and  C_7 
REMARK    3  A    between atoms: N_11  and  C_12 
REMARK    4  A    between atoms: C_12  and  N_13 
REMARK    5  A    between atoms: C_15  and  O_16 
REMARK    6  A    between atoms: O_16  and  C_17 
REMARK    7  A    between atoms: C_23  and  O_24 
ROOT
ATOM      1  C   UNL d   1      26.513 -15.780  -1.134  0.00  0.00     0.225 C 
ATOM      2  C   UNL d   1      27.262 -15.888  -2.459  0.00  0.00     0.040 C 
ATOM      3  C   UNL d   1      28.675 -15.381  -2.180  0.00  0.00     0.030 C 
ATOM      4  C   UNL d   1      28.983 -15.681  -0.720  0.00  0.00     0.238 C 
ATOM      5  N   UNL d   1      27.635 -16.029  -0.103  0.00  0.00    -0.045 N 
ATOM      6  H   UNL d   1      27.656 -17.070  -0.064  0.00  0.00     0.282 HD
ENDROOT
BRANCH   5   7
ATOM      7  C   UNL d   1      27.362 -15.619   1.328  0.00  0.00     0.385 C 
BRANCH   7   8
ATOM      8  N   UNL d   1      28.086 -14.417   1.768  0.00  0.00    -0.247 N 
ATOM      9  N   UNL d   1      28.939 -14.440   2.871  0.00  0.00    -0.269 N 
ATOM     10  C   UNL d   1      29.133 -13.307   3.429  0.00  0.00     0.204 C 
ATOM     11  H   UNL d   1      29.346 -15.275   3.263  0.00  0.00     0.190 HD
ATOM     12  S   UNL d   1      28.470 -11.977   2.573  0.00  0.00    -0.014 SA
ATOM     13  C   UNL d   1      27.749 -13.110   1.410  0.00  0.00     0.165 C 
ATOM     14  S   UNL d   1      26.819 -12.641   0.125  0.00  0.00    -0.051 SA
BRANCH  10  15
ATOM     15  O   UNL d   1      29.726 -13.233   4.630  0.00  0.00    -0.325 OA
BRANCH  15  16
ATOM     16  C   UNL d   1      29.129 -13.523   5.933  0.00  0.00     0.123 C 
ATOM     17  C   UNL d   1      27.977 -12.558   6.184  0.00  0.00     0.040 C 
ATOM     18  C   UNL d   1      28.602 -14.951   5.880  0.00  0.00     0.040 C 
ENDBRANCH  15  16
ENDBRANCH  10  15
ENDBRANCH   7   8
ENDBRANCH   5   7
BRANCH   1  19
ATOM     19  C   UNL d   1      25.261 -16.590  -0.921  0.00  0.00     0.006 A 
ATOM     20  C   UNL d   1      23.991 -16.010  -1.130  0.00  0.00     0.015 A 
ATOM     21  C   UNL d   1      22.822 -16.693  -0.776  0.00  0.00     0.037 A 
ATOM     22  C   UNL d   1      22.891 -17.992  -0.284  0.00  0.00     0.070 A 
ATOM     23  C   UNL d   1      24.136 -18.601  -0.147  0.00  0.00     0.074 A 
ATOM     24  C   UNL d   1      25.314 -17.910  -0.453  0.00  0.00     0.079 A 
BRANCH  22  25
ATOM     25  O   UNL d   1      21.701 -18.623  -0.063  0.00  0.00    -0.356 OA
ATOM     26  C   UNL d   1      21.005 -19.087  -1.221  0.00  0.00     0.210 C 
ENDBRANCH  22  25
BRANCH  24  27
ATOM     27  O   UNL d   1      26.577 -18.425  -0.301  0.00  0.00    -0.355 OA
ATOM     28  C   UNL d   1      26.897 -18.881   1.018  0.00  0.00     0.210 C 
ENDBRANCH  24  27
ENDBRANCH   1  19
TORSDOF 7
ENDMDL
MODEL 4
REMARK VINA RESULT:    -6.984      4.534      6.977
REMARK INTER + INTRA:         -12.058
REMARK INTER:                  -9.072
REMARK INTRA:                  -2.986
REMARK CONF_INDEPENDENT:        2.088
REMARK UNBOUND:                -2.986
REMARK  7 active torsions:
REMARK  status: ('A' for Active; 'I' for Inactive)
REMARK    1  A    between atoms: O_2  and  C_3 
REMARK    2  A    between atoms: C_6  and  C_7 
REMARK    3  A    between atoms: N_11  and  C_12 
REMARK    4  A    between atoms: C_12  and  N_13 
REMARK    5  A    between atoms: C_15  and  O_16 
REMARK    6  A    between atoms: O_16  and  C_17 
REMARK    7  A    between atoms: C_23  and  O_24 
ROOT
ATOM      1  C   UNL d   1      27.725 -16.496   0.400  0.00  0.00     0.225 C 
ATOM      2  C   UNL d   1      27.780 -15.305   1.354  0.00  0.00     0.040 C 
ATOM      3  C   UNL d   1      29.213 -14.783   1.285  0.00  0.00     0.030 C 
ATOM      4  C   UNL d   1      29.742 -15.097  -0.106  0.00  0.00     0.238 C 
ATOM      5  N   UNL d   1      28.745 -16.091  -0.686  0.00  0.00    -0.045 N 
ATOM      6  H   UNL d   1      28.160 -15.499  -1.312  0.00  0.00     0.282 HD
ENDROOT
BRANCH   5   7
ATOM      7  C   UNL d   1      29.255 -17.186  -1.597  0.00  0.00     0.385 C 
BRANCH   7   8
ATOM      8  N   UNL d   1      29.600 -16.740  -2.956  0.00  0.00    -0.247 N 
ATOM      9  N   UNL d   1      28.762 -15.896  -3.682  0.00  0.00    -0.269 N 
ATOM     10  C   UNL d   1      28.906 -15.950  -4.951  0.00  0.00     0.204 C 
ATOM     11  H   UNL d   1      28.044 -15.313  -3.278  0.00  0.00     0.190 HD
ATOM     12  S   UNL d   1      30.243 -16.893  -5.468  0.00  0.00    -0.014 SA
ATOM     13  C   UNL d   1      30.544 -17.356  -3.780  0.00  0.00     0.165 C 
ATOM     14  S   UNL d   1      31.759 -18.374  -3.308  0.00  0.00    -0.051 SA
BRANCH  10  15
ATOM     15  O   UNL d   1      28.003 -15.381  -5.764  0.00  0.00    -0.325 OA
BRANCH  15  16
ATOM     16  C   UNL d   1      26.940 -14.448  -5.395  0.00  0.00     0.123 C 
ATOM     17  C   UNL d   1      25.855 -15.201  -4.635  0.00  0.00     0.040 C 
ATOM     18  C   UNL d   1      27.561 -13.390  -4.493  0.00  0.00     0.040 C 
ENDBRANCH  15  16
ENDBRANCH  10  15
ENDBRANCH   7   8
ENDBRANCH   5   7
BRANCH   1  19
ATOM     19  C   UNL d   1      26.394 -16.970  -0.121  0.00  0.00     0.006 A 
ATOM     20  C   UNL d   1      25.701 -18.012   0.532  0.00  0.00     0.015 A 
ATOM     21  C   UNL d   1      24.551 -18.575  -0.033  0.00  0.00     0.037 A 
ATOM     22  C   UNL d   1      24.026 -18.059  -1.213  0.00  0.00     0.070 A 
ATOM     23  C   UNL d   1      24.660 -16.980  -1.824  0.00  0.00     0.074 A 
ATOM     24  C   UNL d   1      25.837 -16.440  -1.293  0.00  0.00     0.079 A 
BRANCH  22  25
ATOM     25  O   UNL d   1      22.846 -18.597  -1.639  0.00  0.00    -0.356 OA
ATOM     26  C   UNL d   1      21.839 -18.782  -0.645  0.00  0.00     0.210 C 
ENDBRANCH  22  25
BRANCH  24  27
ATOM     27  O   UNL d   1      26.542 -15.409  -1.861  0.00  0.00    -0.355 OA
ATOM     28  C   UNL d   1      26.150 -14.096  -1.446  0.00  0.00     0.210 C 
ENDBRANCH  24  27
ENDBRANCH   1  19
TORSDOF 7
ENDMDL
MODEL 5
REMARK VINA RESULT:    -6.657      3.126      4.894
REMARK INTER + INTRA:         -11.437
REMARK INTER:                  -8.745
REMARK INTRA:                  -2.692
REMARK CONF_INDEPENDENT:        2.088
REMARK UNBOUND:                -2.692
REMARK  7 active torsions:
REMARK  status: ('A' for Active; 'I' for Inactive)
REMARK    1  A    between atoms: O_2  and  C_3 
REMARK    2  A    between atoms: C_6  and  C_7 
REMARK    3  A    between atoms: N_11  and  C_12 
REMARK    4  A    between atoms: C_12  and  N_13 
REMARK    5  A    between atoms: C_15  and  O_16 
REMARK    6  A    between atoms: O_16  and  C_17 
REMARK    7  A    between atoms: C_23  and  O_24 
ROOT
ATOM      1  C   UNL d   1      29.590 -16.834  -0.706  0.00  0.00     0.225 C 
ATOM      2  C   UNL d   1      30.344 -18.149  -0.887  0.00  0.00     0.040 C 
ATOM      3  C   UNL d   1      31.745 -17.904  -0.331  0.00  0.00     0.030 C 
ATOM      4  C   UNL d   1      31.619 -16.855   0.764  0.00  0.00     0.238 C 
ATOM      5  N   UNL d   1      30.227 -16.266   0.580  0.00  0.00    -0.045 N 
ATOM      6  H   UNL d   1      29.670 -16.746   1.319  0.00  0.00     0.282 HD
ENDROOT
BRANCH   5   7
ATOM      7  C   UNL d   1      30.015 -14.796   0.865  0.00  0.00     0.385 C 
BRANCH   7   8
ATOM      8  N   UNL d   1      28.614 -14.355   0.797  0.00  0.00    -0.247 N 
ATOM      9  N   UNL d   1      28.057 -13.869  -0.386  0.00  0.00    -0.269 N 
ATOM     10  C   UNL d   1      27.041 -13.109  -0.234  0.00  0.00     0.204 C 
ATOM     11  H   UNL d   1      28.432 -14.035  -1.307  0.00  0.00     0.190 HD
ATOM     12  S   UNL d   1      26.459 -13.026   1.378  0.00  0.00    -0.014 SA
ATOM     13  C   UNL d   1      27.827 -14.028   1.903  0.00  0.00     0.165 C 
ATOM     14  S   UNL d   1      28.094 -14.470   3.475  0.00  0.00    -0.051 SA
BRANCH  10  15
ATOM     15  O   UNL d   1      26.571 -12.387  -1.261  0.00  0.00    -0.325 OA
BRANCH  15  16
ATOM     16  C   UNL d   1      26.710 -12.677  -2.688  0.00  0.00     0.123 C 
ATOM     17  C   UNL d   1      25.418 -13.300  -3.201  0.00  0.00     0.040 C 
ATOM     18  C   UNL d   1      26.959 -11.352  -3.395  0.00  0.00     0.040 C 
ENDBRANCH  15  16
ENDBRANCH  10  15
ENDBRANCH   7   8
ENDBRANCH   5   7
BRANCH   1  19
ATOM     19  C   UNL d   1      28.083 -16.834  -0.725  0.00  0.00     0.006 A 
ATOM     20  C   UNL d   1      27.356 -17.518   0.273  0.00  0.00     0.015 A 
ATOM     21  C   UNL d   1      25.968 -17.668   0.175  0.00  0.00     0.037 A 
ATOM     22  C   UNL d   1      25.272 -17.073  -0.871  0.00  0.00     0.070 A 
ATOM     23  C   UNL d   1      25.972 -16.331  -1.819  0.00  0.00     0.074 A 
ATOM     24  C   UNL d   1      27.366 -16.214  -1.757  0.00  0.00     0.079 A 
BRANCH  22  25
ATOM     25  O   UNL d   1      23.912 -17.180  -0.834  0.00  0.00    -0.356 OA
ATOM     26  C   UNL d   1      23.386 -18.430  -0.385  0.00  0.00     0.210 C 
ENDBRANCH  22  25
BRANCH  24  27
ATOM     27  O   UNL d   1      28.129 -15.540  -2.677  0.00  0.00    -0.355 OA
ATOM     28  C   UNL d   1      27.634 -15.566  -4.020  0.00  0.00     0.210 C 
ENDBRANCH  24  27
ENDBRANCH   1  19
TORSDOF 7
ENDMDL
MODEL 6
REMARK VINA RESULT:    -6.318      4.855      6.925
REMARK INTER + INTRA:         -11.692
REMARK INTER:                  -8.406
REMARK INTRA:                  -3.285
REMARK CONF_INDEPENDENT:        2.088
REMARK UNBOUND:                -3.285
REMARK  7 active torsions:
REMARK  status: ('A' for Active; 'I' for Inactive)
REMARK    1  A    between atoms: O_2  and  C_3 
REMARK    2  A    between atoms: C_6  and  C_7 
REMARK    3  A    between atoms: N_11  and  C_12 
REMARK    4  A    between atoms: C_12  and  N_13 
REMARK    5  A    between atoms: C_15  and  O_16 
REMARK    6  A    between atoms: O_16  and  C_17 
REMARK    7  A    between atoms: C_23  and  O_24 
ROOT
ATOM      1  C   UNL d   1      29.341 -16.695  -0.480  0.00  0.00     0.225 C 
ATOM      2  C   UNL d   1      30.157 -15.989   0.600  0.00  0.00     0.040 C 
ATOM      3  C   UNL d   1      31.430 -15.507  -0.090  0.00  0.00     0.030 C 
ATOM      4  C   UNL d   1      31.083 -15.243  -1.547  0.00  0.00     0.238 C 
ATOM      5  N   UNL d   1      29.726 -15.905  -1.749  0.00  0.00    -0.045 N 
ATOM      6  H   UNL d   1      29.064 -15.101  -1.704  0.00  0.00     0.282 HD
ENDROOT
BRANCH   5   7
ATOM      7  C   UNL d   1      29.422 -16.549  -3.083  0.00  0.00     0.385 C 
BRANCH   7   8
ATOM      8  N   UNL d   1      28.749 -15.667  -4.049  0.00  0.00    -0.247 N 
ATOM      9  N   UNL d   1      27.433 -15.248  -3.861  0.00  0.00    -0.269 N 
ATOM     10  C   UNL d   1      26.818 -14.900  -4.926  0.00  0.00     0.204 C 
ATOM     11  H   UNL d   1      26.948 -15.257  -2.977  0.00  0.00     0.190 HD
ATOM     12  S   UNL d   1      27.813 -14.826  -6.322  0.00  0.00    -0.014 SA
ATOM     13  C   UNL d   1      29.168 -15.461  -5.365  0.00  0.00     0.165 C 
ATOM     14  S   UNL d   1      30.673 -15.758  -5.985  0.00  0.00    -0.051 SA
BRANCH  10  15
ATOM     15  O   UNL d   1      25.489 -14.716  -4.917  0.00  0.00    -0.325 OA
BRANCH  15  16
ATOM     16  C   UNL d   1      24.729 -13.780  -4.089  0.00  0.00     0.123 C 
ATOM     17  C   UNL d   1      24.371 -14.455  -2.770  0.00  0.00     0.040 C 
ATOM     18  C   UNL d   1      25.626 -12.579  -3.826  0.00  0.00     0.040 C 
ENDBRANCH  15  16
ENDBRANCH  10  15
ENDBRANCH   7   8
ENDBRANCH   5   7
BRANCH   1  19
ATOM     19  C   UNL d   1      27.862 -16.899  -0.280  0.00  0.00     0.006 A 
ATOM     20  C   UNL d   1      27.369 -18.131   0.201  0.00  0.00     0.015 A 
ATOM     21  C   UNL d   1      25.995 -18.392   0.232  0.00  0.00     0.037 A 
ATOM     22  C   UNL d   1      25.086 -17.406  -0.137  0.00  0.00     0.070 A 
ATOM     23  C   UNL d   1      25.561 -16.161  -0.540  0.00  0.00     0.074 A 
ATOM     24  C   UNL d   1      26.935 -15.905  -0.620  0.00  0.00     0.079 A 
BRANCH  22  25
ATOM     25  O   UNL d   1      23.764 -17.707   0.022  0.00  0.00    -0.356 OA
ATOM     26  C   UNL d   1      23.218 -18.660  -0.891  0.00  0.00     0.210 C 
ENDBRANCH  22  25
BRANCH  24  27
ATOM     27  O   UNL d   1      27.479 -14.721  -1.050  0.00  0.00    -0.355 OA
ATOM     28  C   UNL d   1      26.949 -13.543  -0.433  0.00  0.00     0.210 C 
ENDBRANCH  24  27
ENDBRANCH   1  19
TORSDOF 7
ENDMDL
MODEL 7
REMARK VINA RESULT:    -6.161      2.298      3.665
REMARK INTER + INTRA:         -11.048
REMARK INTER:                  -8.249
REMARK INTRA:                  -2.799
REMARK CONF_INDEPENDENT:        2.088
REMARK UNBOUND:                -2.799
REMARK  7 active torsions:
REMARK  status: ('A' for Active; 'I' for Inactive)
REMARK    1  A    between atoms: O_2  and  C_3 
REMARK    2  A    between atoms: C_6  and  C_7 
REMARK    3  A    between atoms: N_11  and  C_12 
REMARK    4  A    between atoms: C_12  and  N_13 
REMARK    5  A    between atoms: C_15  and  O_16 
REMARK    6  A    between atoms: O_16  and  C_17 
REMARK    7  A    between atoms: C_23  and  O_24 
ROOT
ATOM      1  C   UNL d   1      30.063 -16.637  -1.764  0.00  0.00     0.225 C 
ATOM      2  C   UNL d   1      30.433 -18.113  -1.648  0.00  0.00     0.040 C 
ATOM      3  C   UNL d   1      31.483 -18.193  -0.544  0.00  0.00     0.030 C 
ATOM      4  C   UNL d   1      31.207 -17.055   0.426  0.00  0.00     0.238 C 
ATOM      5  N   UNL d   1      30.237 -16.142  -0.312  0.00  0.00    -0.045 N 
ATOM      6  H   UNL d   1      29.316 -16.392   0.106  0.00  0.00     0.282 HD
ENDROOT
BRANCH   5   7
ATOM      7  C   UNL d   1      30.338 -14.648  -0.098  0.00  0.00     0.385 C 
BRANCH   7   8
ATOM      8  N   UNL d   1      29.344 -14.094   0.834  0.00  0.00    -0.247 N 
ATOM      9  N   UNL d   1      29.232 -14.558   2.143  0.00  0.00    -0.269 N 
ATOM     10  C   UNL d   1      28.094 -14.366   2.691  0.00  0.00     0.204 C 
ATOM     11  H   UNL d   1      29.953 -15.063   2.637  0.00  0.00     0.190 HD
ATOM     12  S   UNL d   1      27.024 -13.392   1.769  0.00  0.00    -0.014 SA
ATOM     13  C   UNL d   1      28.217 -13.363   0.453  0.00  0.00     0.165 C 
ATOM     14  S   UNL d   1      27.978 -12.587  -0.989  0.00  0.00    -0.051 SA
BRANCH  10  15
ATOM     15  O   UNL d   1      27.780 -14.977   3.843  0.00  0.00    -0.325 OA
BRANCH  15  16
ATOM     16  C   UNL d   1      27.829 -14.410   5.190  0.00  0.00     0.123 C 
ATOM     17  C   UNL d   1      29.132 -14.825   5.862  0.00  0.00     0.040 C 
ATOM     18  C   UNL d   1      27.785 -12.895   5.044  0.00  0.00     0.040 C 
ENDBRANCH  15  16
ENDBRANCH  10  15
ENDBRANCH   7   8
ENDBRANCH   5   7
BRANCH   1  19
ATOM     19  C   UNL d   1      28.765 -16.245  -2.419  0.00  0.00     0.006 A 
ATOM     20  C   UNL d   1      28.741 -15.840  -3.772  0.00  0.00     0.015 A 
ATOM     21  C   UNL d   1      27.577 -15.314  -4.343  0.00  0.00     0.037 A 
ATOM     22  C   UNL d   1      26.399 -15.258  -3.607  0.00  0.00     0.070 A 
ATOM     23  C   UNL d   1      26.393 -15.728  -2.296  0.00  0.00     0.074 A 
ATOM     24  C   UNL d   1      27.564 -16.211  -1.699  0.00  0.00     0.079 A 
BRANCH  22  25
ATOM     25  O   UNL d   1      25.286 -14.830  -4.272  0.00  0.00    -0.356 OA
ATOM     26  C   UNL d   1      24.777 -13.550  -3.897  0.00  0.00     0.210 C 
ENDBRANCH  22  25
BRANCH  24  27
ATOM     27  O   UNL d   1      27.648 -16.647  -0.401  0.00  0.00    -0.355 OA
ATOM     28  C   UNL d   1      26.589 -17.512   0.025  0.00  0.00     0.210 C 
ENDBRANCH  24  27
ENDBRANCH   1  19
TORSDOF 7
ENDMDL
MODEL 8
REMARK VINA RESULT:    -5.739      3.928      7.095
REMARK INTER + INTRA:         -11.212
REMARK INTER:                  -7.828
REMARK INTRA:                  -3.384
REMARK CONF_INDEPENDENT:        2.088
REMARK UNBOUND:                -3.384
REMARK  7 active torsions:
REMARK  status: ('A' for Active; 'I' for Inactive)
REMARK    1  A    between atoms: O_2  and  C_3 
REMARK    2  A    between atoms: C_6  and  C_7 
REMARK    3  A    between atoms: N_11  and  C_12 
REMARK    4  A    between atoms: C_12  and  N_13 
REMARK    5  A    between atoms: C_15  and  O_16 
REMARK    6  A    between atoms: O_16  and  C_17 
REMARK    7  A    between atoms: C_23  and  O_24 
ROOT
ATOM      1  C   UNL d   1      29.159 -15.950   0.604  0.00  0.00     0.225 C 
ATOM      2  C   UNL d   1      30.613 -15.834   0.154  0.00  0.00     0.040 C 
ATOM      3  C   UNL d   1      30.951 -17.167  -0.508  0.00  0.00     0.030 C 
ATOM      4  C   UNL d   1      29.662 -17.718  -1.099  0.00  0.00     0.238 C 
ATOM      5  N   UNL d   1      28.557 -16.878  -0.472  0.00  0.00    -0.045 N 
ATOM      6  H   UNL d   1      28.322 -16.199  -1.227  0.00  0.00     0.282 HD
ENDROOT
BRANCH   5   7
ATOM      7  C   UNL d   1      27.233 -17.538  -0.155  0.00  0.00     0.385 C 
BRANCH   7   8
ATOM      8  N   UNL d   1      26.107 -17.078  -0.981  0.00  0.00    -0.247 N 
ATOM      9  N   UNL d   1      26.243 -16.022  -1.880  0.00  0.00    -0.269 N 
ATOM     10  C   UNL d   1      25.155 -15.422  -2.180  0.00  0.00     0.204 C 
ATOM     11  H   UNL d   1      27.122 -15.689  -2.245  0.00  0.00     0.190 HD
ATOM     12  S   UNL d   1      23.741 -16.183  -1.575  0.00  0.00    -0.014 SA
ATOM     13  C   UNL d   1      24.764 -17.359  -0.722  0.00  0.00     0.165 C 
ATOM     14  S   UNL d   1      24.170 -18.574   0.231  0.00  0.00    -0.051 SA
BRANCH  10  15
ATOM     15  O   UNL d   1      25.180 -14.249  -2.830  0.00  0.00    -0.325 OA
BRANCH  15  16
ATOM     16  C   UNL d   1      25.252 -14.037  -4.275  0.00  0.00     0.123 C 
ATOM     17  C   UNL d   1      25.775 -12.633  -4.551  0.00  0.00     0.040 C 
ATOM     18  C   UNL d   1      26.224 -15.067  -4.835  0.00  0.00     0.040 C 
ENDBRANCH  15  16
ENDBRANCH  10  15
ENDBRANCH   7   8
ENDBRANCH   5   7
BRANCH   1  19
ATOM     19  C   UNL d   1      28.366 -14.700   0.884  0.00  0.00     0.006 A 
ATOM     20  C   UNL d   1      28.051 -14.336   2.211  0.00  0.00     0.015 A 
ATOM     21  C   UNL d   1      27.176 -13.276   2.476  0.00  0.00     0.037 A 
ATOM     22  C   UNL d   1      26.666 -12.511   1.434  0.00  0.00     0.070 A 
ATOM     23  C   UNL d   1      27.033 -12.814   0.126  0.00  0.00     0.074 A 
ATOM     24  C   UNL d   1      27.869 -13.902  -0.155  0.00  0.00     0.079 A 
BRANCH  22  25
ATOM     25  O   UNL d   1      25.906 -11.433   1.786  0.00  0.00    -0.356 OA
ATOM     26  C   UNL d   1      26.616 -10.252   2.159  0.00  0.00     0.210 C 
ENDBRANCH  22  25
BRANCH  24  27
ATOM     27  O   UNL d   1      28.238 -14.291  -1.418  0.00  0.00    -0.355 OA
ATOM     28  C   UNL d   1      28.973 -13.317  -2.169  0.00  0.00     0.210 C 
ENDBRANCH  24  27
ENDBRANCH   1  19
TORSDOF 7
ENDMDL
MODEL 9
REMARK VINA RESULT:    -5.556      3.708      7.061
REMARK INTER + INTRA:         -11.033
REMARK INTER:                  -7.644
REMARK INTRA:                  -3.389
REMARK CONF_INDEPENDENT:        2.088
REMARK UNBOUND:                -3.389
REMARK  7 active torsions:
REMARK  status: ('A' for Active; 'I' for Inactive)
REMARK    1  A    between atoms: O_2  and  C_3 
REMARK    2  A    between atoms: C_6  and  C_7 
REMARK    3  A    between atoms: N_11  and  C_12 
REMARK    4  A    between atoms: C_12  and  N_13 
REMARK    5  A    between atoms: C_15  and  O_16 
REMARK    6  A    between atoms: O_16  and  C_17 
REMARK    7  A    between atoms: C_23  and  O_24 
ROOT
ATOM      1  C   UNL d   1      29.335 -13.921  -0.033  0.00  0.00     0.225 C 
ATOM      2  C   UNL d   1      30.702 -13.763   0.626  0.00  0.00     0.040 C 
ATOM      3  C   UNL d   1      30.432 -13.660   2.125  0.00  0.00     0.030 C 
ATOM      4  C   UNL d   1      29.164 -14.450   2.410  0.00  0.00     0.238 C 
ATOM      5  N   UNL d   1      28.541 -14.694   1.042  0.00  0.00    -0.045 N 
ATOM      6  H   UNL d   1      28.811 -15.679   0.834  0.00  0.00     0.282 HD
ENDROOT
BRANCH   5   7
ATOM      7  C   UNL d   1      27.034 -14.699   0.918  0.00  0.00     0.385 C 
BRANCH   7   8
ATOM      8  N   UNL d   1      26.521 -15.341  -0.301  0.00  0.00    -0.247 N 
ATOM      9  N   UNL d   1      26.000 -14.594  -1.357  0.00  0.00    -0.269 N 
ATOM     10  C   UNL d   1      25.190 -15.224  -2.119  0.00  0.00     0.204 C 
ATOM     11  H   UNL d   1      26.179 -13.613  -1.509  0.00  0.00     0.190 HD
ATOM     12  S   UNL d   1      25.088 -16.907  -1.799  0.00  0.00    -0.014 SA
ATOM     13  C   UNL d   1      26.163 -16.687  -0.402  0.00  0.00     0.165 C 
ATOM     14  S   UNL d   1      26.628 -17.915   0.604  0.00  0.00    -0.051 SA
BRANCH  10  15
ATOM     15  O   UNL d   1      24.438 -14.562  -3.010  0.00  0.00    -0.325 OA
BRANCH  15  16
ATOM     16  C   UNL d   1      24.875 -13.965  -4.271  0.00  0.00     0.123 C 
ATOM     17  C   UNL d   1      25.687 -12.709  -3.975  0.00  0.00     0.040 C 
ATOM     18  C   UNL d   1      25.753 -14.990  -4.976  0.00  0.00     0.040 C 
ENDBRANCH  15  16
ENDBRANCH  10  15
ENDBRANCH   7   8
ENDBRANCH   5   7
BRANCH   1  19
ATOM     19  C   UNL d   1      29.242 -14.490  -1.425  0.00  0.00     0.006 A 
ATOM     20  C   UNL d   1      29.080 -13.635  -2.537  0.00  0.00     0.015 A 
ATOM     21  C   UNL d   1      28.824 -14.154  -3.811  0.00  0.00     0.037 A 
ATOM     22  C   UNL d   1      28.806 -15.529  -4.016  0.00  0.00     0.070 A 
ATOM     23  C   UNL d   1      29.042 -16.380  -2.940  0.00  0.00     0.074 A 
ATOM     24  C   UNL d   1      29.251 -15.873  -1.652  0.00  0.00     0.079 A 
BRANCH  22  25
ATOM     25  O   UNL d   1      28.654 -15.949  -5.306  0.00  0.00    -0.356 OA
ATOM     26  C   UNL d   1      28.948 -14.991  -6.323  0.00  0.00     0.210 C 
ENDBRANCH  22  25
BRANCH  24  27
ATOM     27  O   UNL d   1      29.445 -16.647  -0.536  0.00  0.00    -0.355 OA
ATOM     28  C   UNL d   1      30.356 -17.740  -0.699  0.00  0.00     0.210 C 
ENDBRANCH  24  27
ENDBRANCH   1  19
TORSDOF 7
ENDMDL
