MODEL 1
REMARK VINA RESULT:   -31.738      0.000      0.000
REMARK INTER + INTRA:         -35.105
REMARK INTER:                 -33.827
REMARK INTRA:                  -1.279
REMARK CONF_INDEPENDENT:        2.088
REMARK UNBOUND:                -1.279
REMARK  7 active torsions:
REMARK  status: ('A' for Active; 'I' for Inactive)
REMARK    1  A    between atoms: O_2  and  C_3 
REMARK    2  A    between atoms: C_7  and  N_8 
REMARK    3  A    between atoms: N_8  and  N_9 
REMARK       I    between atoms: N_9  and  C_10 
REMARK       I    between atoms: C_10  and  N_12 
REMARK    4  A    between atoms: N_12  and  C_13 
REMARK    5  A    between atoms: C_13  and  C_14 
REMARK    6  A    between atoms: C_18  and  N_19 
REMARK       I    between atoms: N_19  and  C_20 
REMARK    7  A    between atoms: C_20  and  C_22 
ROOT
ATOM      1  C   UNL d   1      26.718 -17.830  -0.588  0.00  0.00     0.163 C 
ENDROOT
BRANCH   1   2
ATOM      2  N   UNL d   1      25.404 -18.342  -0.103  0.00  0.00    -0.338 N 
ATOM      3  C   UNL d   1      24.188 -17.948  -0.598  0.00  0.00     0.335 C 
ATOM      4  N   UNL d   1      23.096 -18.568   0.009  0.00  0.00    -0.237 N 
ATOM      5  O   UNL d   1      24.078 -17.113  -1.499  0.00  0.00    -0.246 OA
ATOM      6  H   UNL d   1      23.150 -19.235   0.776  0.00  0.00     0.192 HD
ATOM      7  H   UNL d   1      25.356 -19.125   0.532  0.00  0.00     0.164 HD
BRANCH   4   8
ATOM      8  N   UNL d   1      21.797 -18.211  -0.415  0.00  0.00    -0.124 N 
ATOM      9  H   UNL d   1      21.667 -17.342  -0.918  0.00  0.00     0.206 HD
BRANCH   8  10
ATOM     10  C   UNL d   1      20.685 -19.022  -0.165  0.00  0.00     0.743 A 
ATOM     11  N   UNL d   1      19.848 -19.312  -1.180  0.00  0.00    -0.074 NA
ATOM     12  C   UNL d   1      18.774 -20.075  -0.895  0.00  0.00     0.141 A 
ATOM     13  C   UNL d   1      18.489 -20.572   0.349  0.00  0.00     0.078 A 
ATOM     14  C   UNL d   1      19.416 -20.282   1.318  0.00  0.00     0.184 A 
ATOM     15  N   UNL d   1      20.495 -19.493   1.091  0.00  0.00    -0.037 NA
BRANCH  14  16
ATOM     16  O   UNL d   1      19.256 -20.737   2.611  0.00  0.00    -0.339 OA
ATOM     17  C   UNL d   1      20.288 -20.321   3.516  0.00  0.00     0.211 C 
ENDBRANCH  14  16
ENDBRANCH   8  10
ENDBRANCH   4   8
ENDBRANCH   1   2
BRANCH   1  18
ATOM     18  C   UNL d   1      26.967 -16.338  -0.380  0.00  0.00    -0.038 A 
ATOM     19  C   UNL d   1      26.753 -15.323  -1.316  0.00  0.00     0.009 A 
ATOM     20  C   UNL d   1      27.124 -13.990  -1.016  0.00  0.00     0.003 A 
ATOM     21  C   UNL d   1      27.668 -13.646   0.238  0.00  0.00     0.029 A 
ATOM     22  C   UNL d   1      27.855 -14.645   1.185  0.00  0.00     0.035 A 
ATOM     23  C   UNL d   1      27.450 -15.924   0.848  0.00  0.00     0.038 A 
BRANCH  22  24
ATOM     24  N   UNL d   1      28.448 -14.423   2.454  0.00  0.00    -0.327 N 
ATOM     25  C   UNL d   1      28.086 -13.390   3.327  0.00  0.00     0.226 C 
ATOM     26  O   UNL d   1      27.258 -12.501   3.106  0.00  0.00    -0.273 OA
ATOM     27  H   UNL d   1      29.105 -15.129   2.755  0.00  0.00     0.169 HD
BRANCH  25  28
ATOM     28  C   UNL d   1      28.783 -13.307   4.668  0.00  0.00     0.078 C 
ATOM     29  C   UNL d   1      27.806 -12.630   5.657  0.00  0.00     0.014 C 
ATOM     30  C   UNL d   1      28.404 -12.489   7.048  0.00  0.00     0.001 C 
ATOM     31  C   UNL d   1      28.905 -13.830   7.565  0.00  0.00     0.000 C 
ATOM     32  C   UNL d   1      29.901 -14.455   6.595  0.00  0.00     0.001 C 
ATOM     33  C   UNL d   1      29.293 -14.630   5.213  0.00  0.00     0.014 C 
ENDBRANCH  25  28
ENDBRANCH  22  24
ENDBRANCH   1  18
TORSDOF 7
ENDMDL
MODEL 2
REMARK VINA RESULT:   -30.955      3.991      6.894
REMARK INTER + INTRA:         -34.451
REMARK INTER:                 -33.043
REMARK INTRA:                  -1.408
REMARK CONF_INDEPENDENT:        2.088
REMARK UNBOUND:                -1.408
REMARK  7 active torsions:
REMARK  status: ('A' for Active; 'I' for Inactive)
REMARK    1  A    between atoms: O_2  and  C_3 
REMARK    2  A    between atoms: C_7  and  N_8 
REMARK    3  A    between atoms: N_8  and  N_9 
REMARK       I    between atoms: N_9  and  C_10 
REMARK       I    between atoms: C_10  and  N_12 
REMARK    4  A    between atoms: N_12  and  C_13 
REMARK    5  A    between atoms: C_13  and  C_14 
REMARK    6  A    between atoms: C_18  and  N_19 
REMARK       I    between atoms: N_19  and  C_20 
REMARK    7  A    between atoms: C_20  and  C_22 
ROOT
ATOM      1  C   UNL d   1      26.836 -17.961   0.403  0.00  0.00     0.163 C 
ENDROOT
BRANCH   1   2
ATOM      2  N   UNL d   1      25.413 -18.294   0.698  0.00  0.00    -0.338 N 
ATOM      3  C   UNL d   1      24.398 -18.243  -0.221  0.00  0.00     0.335 C 
ATOM      4  N   UNL d   1      23.149 -18.603   0.285  0.00  0.00    -0.237 N 
ATOM      5  O   UNL d   1      24.581 -17.903  -1.393  0.00  0.00    -0.246 OA
ATOM      6  H   UNL d   1      22.957 -18.857   1.251  0.00  0.00     0.192 HD
ATOM      7  H   UNL d   1      25.151 -18.716   1.577  0.00  0.00     0.164 HD
BRANCH   4   8
ATOM      8  N   UNL d   1      22.034 -18.561  -0.581  0.00  0.00    -0.124 N 
ATOM      9  H   UNL d   1      22.107 -18.046  -1.450  0.00  0.00     0.206 HD
BRANCH   8  10
ATOM     10  C   UNL d   1      20.832 -19.209  -0.275  0.00  0.00     0.743 A 
ATOM     11  N   UNL d   1      19.892 -19.323  -1.234  0.00  0.00    -0.074 NA
ATOM     12  C   UNL d   1      18.737 -19.931  -0.895  0.00  0.00     0.141 A 
ATOM     13  C   UNL d   1      18.469 -20.439   0.349  0.00  0.00     0.078 A 
ATOM     14  C   UNL d   1      19.494 -20.336   1.253  0.00  0.00     0.184 A 
ATOM     15  N   UNL d   1      20.662 -19.706   0.973  0.00  0.00    -0.037 NA
BRANCH  14  16
ATOM     16  O   UNL d   1      19.359 -20.823   2.538  0.00  0.00    -0.339 OA
ATOM     17  C   UNL d   1      20.281 -20.263   3.483  0.00  0.00     0.211 C 
ENDBRANCH  14  16
ENDBRANCH   8  10
ENDBRANCH   4   8
ENDBRANCH   1   2
BRANCH   1  18
ATOM     18  C   UNL d   1      27.061 -16.779  -0.537  0.00  0.00    -0.038 A 
ATOM     19  C   UNL d   1      26.303 -15.606  -0.590  0.00  0.00     0.009 A 
ATOM     20  C   UNL d   1      26.567 -14.635  -1.586  0.00  0.00     0.003 A 
ATOM     21  C   UNL d   1      27.620 -14.799  -2.509  0.00  0.00     0.029 A 
ATOM     22  C   UNL d   1      28.397 -15.949  -2.442  0.00  0.00     0.035 A 
ATOM     23  C   UNL d   1      28.112 -16.852  -1.433  0.00  0.00     0.038 A 
BRANCH  22  24
ATOM     24  N   UNL d   1      29.441 -16.246  -3.355  0.00  0.00    -0.327 N 
ATOM     25  C   UNL d   1      29.356 -16.060  -4.741  0.00  0.00     0.226 C 
ATOM     26  O   UNL d   1      28.364 -15.676  -5.370  0.00  0.00    -0.273 OA
ATOM     27  H   UNL d   1      30.318 -16.519  -2.938  0.00  0.00     0.169 HD
BRANCH  25  28
ATOM     28  C   UNL d   1      30.571 -16.385  -5.583  0.00  0.00     0.078 C 
ATOM     29  C   UNL d   1      30.406 -17.835  -6.094  0.00  0.00     0.014 C 
ATOM     30  C   UNL d   1      31.578 -18.276  -6.956  0.00  0.00     0.001 C 
ATOM     31  C   UNL d   1      31.820 -17.292  -8.092  0.00  0.00     0.000 C 
ATOM     32  C   UNL d   1      32.026 -15.879  -7.560  0.00  0.00     0.001 C 
ATOM     33  C   UNL d   1      30.839 -15.422  -6.728  0.00  0.00     0.014 C 
ENDBRANCH  25  28
ENDBRANCH  22  24
ENDBRANCH   1  18
TORSDOF 7
ENDMDL
MODEL 3
REMARK VINA RESULT:   -30.365      3.345      6.333
REMARK INTER + INTRA:         -33.880
REMARK INTER:                 -32.453
REMARK INTRA:                  -1.427
REMARK CONF_INDEPENDENT:        2.088
REMARK UNBOUND:                -1.427
REMARK  7 active torsions:
REMARK  status: ('A' for Active; 'I' for Inactive)
REMARK    1  A    between atoms: O_2  and  C_3 
REMARK    2  A    between atoms: C_7  and  N_8 
REMARK    3  A    between atoms: N_8  and  N_9 
REMARK       I    between atoms: N_9  and  C_10 
REMARK       I    between atoms: C_10  and  N_12 
REMARK    4  A    between atoms: N_12  and  C_13 
REMARK    5  A    between atoms: C_13  and  C_14 
REMARK    6  A    between atoms: C_18  and  N_19 
REMARK       I    between atoms: N_19  and  C_20 
REMARK    7  A    between atoms: C_20  and  C_22 
ROOT
ATOM      1  C   UNL d   1      26.788 -17.829  -0.541  0.00  0.00     0.163 C 
ENDROOT
BRANCH   1   2
ATOM      2  N   UNL d   1      25.460 -18.366  -0.129  0.00  0.00    -0.338 N 
ATOM      3  C   UNL d   1      24.259 -17.933  -0.629  0.00  0.00     0.335 C 
ATOM      4  N   UNL d   1      23.148 -18.587  -0.096  0.00  0.00    -0.237 N 
ATOM      5  O   UNL d   1      24.177 -17.039  -1.475  0.00  0.00    -0.246 OA
ATOM      6  H   UNL d   1      23.178 -19.304   0.625  0.00  0.00     0.192 HD
ATOM      7  H   UNL d   1      25.391 -19.189   0.451  0.00  0.00     0.164 HD
BRANCH   4   8
ATOM      8  N   UNL d   1      21.863 -18.196  -0.532  0.00  0.00    -0.124 N 
ATOM      9  H   UNL d   1      21.769 -17.355  -1.087  0.00  0.00     0.206 HD
BRANCH   8  10
ATOM     10  C   UNL d   1      20.717 -18.937  -0.222  0.00  0.00     0.743 A 
ATOM     11  N   UNL d   1      19.902 -19.325  -1.223  0.00  0.00    -0.074 NA
ATOM     12  C   UNL d   1      18.794 -20.014  -0.883  0.00  0.00     0.141 A 
ATOM     13  C   UNL d   1      18.456 -20.345   0.402  0.00  0.00     0.078 A 
ATOM     14  C   UNL d   1      19.361 -19.965   1.359  0.00  0.00     0.184 A 
ATOM     15  N   UNL d   1      20.473 -19.243   1.075  0.00  0.00    -0.037 NA
BRANCH  14  16
ATOM     16  O   UNL d   1      19.147 -20.252   2.693  0.00  0.00    -0.339 OA
ATOM     17  C   UNL d   1      20.345 -20.448   3.455  0.00  0.00     0.211 C 
ENDBRANCH  14  16
ENDBRANCH   8  10
ENDBRANCH   4   8
ENDBRANCH   1   2
BRANCH   1  18
ATOM     18  C   UNL d   1      26.933 -16.309  -0.495  0.00  0.00    -0.038 A 
ATOM     19  C   UNL d   1      26.787 -15.496   0.632  0.00  0.00     0.009 A 
ATOM     20  C   UNL d   1      26.852 -14.088   0.504  0.00  0.00     0.003 A 
ATOM     21  C   UNL d   1      27.112 -13.476  -0.739  0.00  0.00     0.029 A 
ATOM     22  C   UNL d   1      27.289 -14.280  -1.858  0.00  0.00     0.035 A 
ATOM     23  C   UNL d   1      27.242 -15.650  -1.671  0.00  0.00     0.038 A 
BRANCH  22  24
ATOM     24  N   UNL d   1      27.495 -13.771  -3.166  0.00  0.00    -0.327 N 
ATOM     25  C   UNL d   1      26.646 -14.016  -4.252  0.00  0.00     0.226 C 
ATOM     26  O   UNL d   1      25.646 -14.742  -4.252  0.00  0.00    -0.273 OA
ATOM     27  H   UNL d   1      28.260 -13.120  -3.263  0.00  0.00     0.169 HD
BRANCH  25  28
ATOM     28  C   UNL d   1      26.976 -13.368  -5.580  0.00  0.00     0.078 C 
ATOM     29  C   UNL d   1      26.298 -11.978  -5.599  0.00  0.00     0.014 C 
ATOM     30  C   UNL d   1      26.560 -11.230  -6.896  0.00  0.00     0.001 C 
ATOM     31  C   UNL d   1      28.052 -11.145  -7.185  0.00  0.00     0.000 C 
ATOM     32  C   UNL d   1      28.687 -12.530  -7.207  0.00  0.00     0.001 C 
ATOM     33  C   UNL d   1      28.458 -13.266  -5.897  0.00  0.00     0.014 C 
ENDBRANCH  25  28
ENDBRANCH  22  24
ENDBRANCH   1  18
TORSDOF 7
ENDMDL
MODEL 4
REMARK VINA RESULT:   -29.807      2.629      3.147
REMARK INTER + INTRA:         -33.078
REMARK INTER:                 -31.895
REMARK INTRA:                  -1.183
REMARK CONF_INDEPENDENT:        2.088
REMARK UNBOUND:                -1.183
REMARK  7 active torsions:
REMARK  status: ('A' for Active; 'I' for Inactive)
REMARK    1  A    between atoms: O_2  and  C_3 
REMARK    2  A    between atoms: C_7  and  N_8 
REMARK    3  A    between atoms: N_8  and  N_9 
REMARK       I    between atoms: N_9  and  C_10 
REMARK       I    between atoms: C_10  and  N_12 
REMARK    4  A    between atoms: N_12  and  C_13 
REMARK    5  A    between atoms: C_13  and  C_14 
REMARK    6  A    between atoms: C_18  and  N_19 
REMARK       I    between atoms: N_19  and  C_20 
REMARK    7  A    between atoms: C_20  and  C_22 
ROOT
ATOM      1  C   UNL d   1      26.681 -17.530   0.533  0.00  0.00     0.163 C 
ENDROOT
BRANCH   1   2
ATOM      2  N   UNL d   1      25.424 -18.328   0.452  0.00  0.00    -0.338 N 
ATOM      3  C   UNL d   1      24.222 -17.839   0.007  0.00  0.00     0.335 C 
ATOM      4  N   UNL d   1      23.187 -18.773   0.017  0.00  0.00    -0.237 N 
ATOM      5  O   UNL d   1      24.078 -16.671  -0.364  0.00  0.00    -0.246 OA
ATOM      6  H   UNL d   1      23.263 -19.732   0.347  0.00  0.00     0.192 HD
ATOM      7  H   UNL d   1      25.434 -19.327   0.595  0.00  0.00     0.164 HD
BRANCH   4   8
ATOM      8  N   UNL d   1      21.903 -18.359  -0.402  0.00  0.00    -0.124 N 
ATOM      9  H   UNL d   1      21.807 -17.478  -0.891  0.00  0.00     0.206 HD
BRANCH   8  10
ATOM     10  C   UNL d   1      20.760 -19.130  -0.163  0.00  0.00     0.743 A 
ATOM     11  N   UNL d   1      19.883 -19.322  -1.168  0.00  0.00    -0.074 NA
ATOM     12  C   UNL d   1      18.781 -20.049  -0.894  0.00  0.00     0.141 A 
ATOM     13  C   UNL d   1      18.506 -20.601   0.329  0.00  0.00     0.078 A 
ATOM     14  C   UNL d   1      19.471 -20.410   1.284  0.00  0.00     0.184 A 
ATOM     15  N   UNL d   1      20.581 -19.661   1.069  0.00  0.00    -0.037 NA
BRANCH  14  16
ATOM     16  O   UNL d   1      19.325 -20.930   2.555  0.00  0.00    -0.339 OA
ATOM     17  C   UNL d   1      20.134 -20.292   3.551  0.00  0.00     0.211 C 
ENDBRANCH  14  16
ENDBRANCH   8  10
ENDBRANCH   4   8
ENDBRANCH   1   2
BRANCH   1  18
ATOM     18  C   UNL d   1      26.789 -16.361  -0.443  0.00  0.00    -0.038 A 
ATOM     19  C   UNL d   1      26.797 -16.442  -1.838  0.00  0.00     0.009 A 
ATOM     20  C   UNL d   1      27.005 -15.278  -2.616  0.00  0.00     0.003 A 
ATOM     21  C   UNL d   1      27.159 -14.013  -2.015  0.00  0.00     0.029 A 
ATOM     22  C   UNL d   1      27.120 -13.920  -0.629  0.00  0.00     0.035 A 
ATOM     23  C   UNL d   1      26.888 -15.084   0.081  0.00  0.00     0.038 A 
BRANCH  22  24
ATOM     24  N   UNL d   1      27.323 -12.710   0.083  0.00  0.00    -0.327 N 
ATOM     25  C   UNL d   1      26.741 -12.415   1.322  0.00  0.00     0.226 C 
ATOM     26  O   UNL d   1      25.936 -13.119   1.941  0.00  0.00    -0.273 OA
ATOM     27  H   UNL d   1      28.008 -12.082  -0.312  0.00  0.00     0.169 HD
BRANCH  25  28
ATOM     28  C   UNL d   1      27.086 -11.096   1.980  0.00  0.00     0.078 C 
ATOM     29  C   UNL d   1      28.147 -10.401   1.096  0.00  0.00     0.014 C 
ATOM     30  C   UNL d   1      28.575  -9.057   1.663  0.00  0.00     0.001 C 
ATOM     31  C   UNL d   1      27.370  -8.164   1.922  0.00  0.00     0.000 C 
ATOM     32  C   UNL d   1      26.362  -8.854   2.834  0.00  0.00     0.001 C 
ATOM     33  C   UNL d   1      25.904 -10.181   2.250  0.00  0.00     0.014 C 
ENDBRANCH  25  28
ENDBRANCH  22  24
ENDBRANCH   1  18
TORSDOF 7
ENDMDL
MODEL 5
REMARK VINA RESULT:   -29.389      4.054      5.982
REMARK INTER + INTRA:         -32.911
REMARK INTER:                 -31.477
REMARK INTRA:                  -1.434
REMARK CONF_INDEPENDENT:        2.088
REMARK UNBOUND:                -1.434
REMARK  7 active torsions:
REMARK  status: ('A' for Active; 'I' for Inactive)
REMARK    1  A    between atoms: O_2  and  C_3 
REMARK    2  A    between atoms: C_7  and  N_8 
REMARK    3  A    between atoms: N_8  and  N_9 
REMARK       I    between atoms: N_9  and  C_10 
REMARK       I    between atoms: C_10  and  N_12 
REMARK    4  A    between atoms: N_12  and  C_13 
REMARK    5  A    between atoms: C_13  and  C_14 
REMARK    6  A    between atoms: C_18  and  N_19 
REMARK       I    between atoms: N_19  and  C_20 
REMARK    7  A    between atoms: C_20  and  C_22 
ROOT
ATOM      1  C   UNL d   1      26.016 -15.588  -0.578  0.00  0.00     0.163 C 
ENDROOT
BRANCH   1   2
ATOM      2  N   UNL d   1      25.040 -16.667  -0.252  0.00  0.00    -0.338 N 
ATOM      3  C   UNL d   1      23.820 -16.819  -0.860  0.00  0.00     0.335 C 
ATOM      4  N   UNL d   1      23.080 -17.905  -0.392  0.00  0.00    -0.237 N 
ATOM      5  O   UNL d   1      23.419 -16.054  -1.740  0.00  0.00    -0.246 OA
ATOM      6  H   UNL d   1      23.367 -18.534   0.354  0.00  0.00     0.192 HD
ATOM      7  H   UNL d   1      25.298 -17.435   0.349  0.00  0.00     0.164 HD
BRANCH   4   8
ATOM      8  N   UNL d   1      21.799 -18.132  -0.940  0.00  0.00    -0.124 N 
ATOM      9  H   UNL d   1      21.558 -17.695  -1.822  0.00  0.00     0.206 HD
BRANCH   8  10
ATOM     10  C   UNL d   1      20.853 -18.945  -0.305  0.00  0.00     0.743 A 
ATOM     11  N   UNL d   1      19.756 -19.325  -0.989  0.00  0.00    -0.074 NA
ATOM     12  C   UNL d   1      18.856 -20.086  -0.336  0.00  0.00     0.141 A 
ATOM     13  C   UNL d   1      18.990 -20.494   0.965  0.00  0.00     0.078 A 
ATOM     14  C   UNL d   1      20.157 -20.115   1.577  0.00  0.00     0.184 A 
ATOM     15  N   UNL d   1      21.079 -19.324   0.975  0.00  0.00    -0.037 NA
BRANCH  14  16
ATOM     16  O   UNL d   1      20.423 -20.476   2.882  0.00  0.00    -0.339 OA
ATOM     17  C   UNL d   1      19.257 -20.717   3.679  0.00  0.00     0.211 C 
ENDBRANCH  14  16
ENDBRANCH   8  10
ENDBRANCH   4   8
ENDBRANCH   1   2
BRANCH   1  18
ATOM     18  C   UNL d   1      26.039 -15.131  -2.035  0.00  0.00    -0.038 A 
ATOM     19  C   UNL d   1      26.183 -15.949  -3.159  0.00  0.00     0.009 A 
ATOM     20  C   UNL d   1      26.287 -15.373  -4.448  0.00  0.00     0.003 A 
ATOM     21  C   UNL d   1      26.199 -13.978  -4.636  0.00  0.00     0.029 A 
ATOM     22  C   UNL d   1      26.024 -13.162  -3.526  0.00  0.00     0.035 A 
ATOM     23  C   UNL d   1      25.902 -13.779  -2.294  0.00  0.00     0.038 A 
BRANCH  22  24
ATOM     24  N   UNL d   1      25.982 -11.745  -3.592  0.00  0.00    -0.327 N 
ATOM     25  C   UNL d   1      26.929 -10.898  -3.003  0.00  0.00     0.226 C 
ATOM     26  O   UNL d   1      27.887 -11.244  -2.303  0.00  0.00    -0.273 OA
ATOM     27  H   UNL d   1      25.264 -11.359  -4.187  0.00  0.00     0.169 HD
BRANCH  25  28
ATOM     28  C   UNL d   1      26.774  -9.405  -3.195  0.00  0.00     0.078 C 
ATOM     29  C   UNL d   1      25.908  -9.189  -4.459  0.00  0.00     0.014 C 
ATOM     30  C   UNL d   1      25.685  -7.715  -4.755  0.00  0.00     0.001 C 
ATOM     31  C   UNL d   1      25.118  -6.993  -3.541  0.00  0.00     0.000 C 
ATOM     32  C   UNL d   1      26.013  -7.183  -2.322  0.00  0.00     0.001 C 
ATOM     33  C   UNL d   1      26.207  -8.656  -2.002  0.00  0.00     0.014 C 
ENDBRANCH  25  28
ENDBRANCH  22  24
ENDBRANCH   1  18
TORSDOF 7
ENDMDL
MODEL 6
REMARK VINA RESULT:   -29.281      3.610      5.578
REMARK INTER + INTRA:         -32.601
REMARK INTER:                 -31.369
REMARK INTRA:                  -1.232
REMARK CONF_INDEPENDENT:        2.088
REMARK UNBOUND:                -1.232
REMARK  7 active torsions:
REMARK  status: ('A' for Active; 'I' for Inactive)
REMARK    1  A    between atoms: O_2  and  C_3 
REMARK    2  A    between atoms: C_7  and  N_8 
REMARK    3  A    between atoms: N_8  and  N_9 
REMARK       I    between atoms: N_9  and  C_10 
REMARK       I    between atoms: C_10  and  N_12 
REMARK    4  A    between atoms: N_12  and  C_13 
REMARK    5  A    between atoms: C_13  and  C_14 
REMARK    6  A    between atoms: C_18  and  N_19 
REMARK       I    between atoms: N_19  and  C_20 
REMARK    7  A    between atoms: C_20  and  C_22 
ROOT
ATOM      1  C   UNL d   1      25.531 -16.564  -2.384  0.00  0.00     0.163 C 
ENDROOT
BRANCH   1   2
ATOM      2  N   UNL d   1      24.496 -17.568  -2.005  0.00  0.00    -0.338 N 
ATOM      3  C   UNL d   1      23.592 -17.404  -0.987  0.00  0.00     0.335 C 
ATOM      4  N   UNL d   1      22.717 -18.477  -0.821  0.00  0.00    -0.237 N 
ATOM      5  O   UNL d   1      23.566 -16.393  -0.280  0.00  0.00    -0.246 OA
ATOM      6  H   UNL d   1      22.732 -19.338  -1.364  0.00  0.00     0.192 HD
ATOM      7  H   UNL d   1      24.320 -18.375  -2.585  0.00  0.00     0.164 HD
BRANCH   4   8
ATOM      8  N   UNL d   1      21.763 -18.413   0.218  0.00  0.00    -0.124 N 
ATOM      9  H   UNL d   1      21.918 -17.775   0.988  0.00  0.00     0.206 HD
BRANCH   8  10
ATOM     10  C   UNL d   1      20.607 -19.203   0.214  0.00  0.00     0.743 A 
ATOM     11  N   UNL d   1      19.905 -19.325  -0.929  0.00  0.00    -0.074 NA
ATOM     12  C   UNL d   1      18.784 -20.073  -0.887  0.00  0.00     0.141 A 
ATOM     13  C   UNL d   1      18.326 -20.713   0.234  0.00  0.00     0.078 A 
ATOM     14  C   UNL d   1      19.123 -20.589   1.343  0.00  0.00     0.184 A 
ATOM     15  N   UNL d   1      20.242 -19.823   1.362  0.00  0.00    -0.037 NA
BRANCH  14  16
ATOM     16  O   UNL d   1      18.783 -21.199   2.534  0.00  0.00    -0.339 OA
ATOM     17  C   UNL d   1      19.600 -20.818   3.648  0.00  0.00     0.211 C 
ENDBRANCH  14  16
ENDBRANCH   8  10
ENDBRANCH   4   8
ENDBRANCH   1   2
BRANCH   1  18
ATOM     18  C   UNL d   1      26.534 -16.200  -1.292  0.00  0.00    -0.038 A 
ATOM     19  C   UNL d   1      26.465 -15.098  -0.436  0.00  0.00     0.009 A 
ATOM     20  C   UNL d   1      27.524 -14.831   0.465  0.00  0.00     0.003 A 
ATOM     21  C   UNL d   1      28.641 -15.687   0.557  0.00  0.00     0.029 A 
ATOM     22  C   UNL d   1      28.702 -16.801  -0.270  0.00  0.00     0.035 A 
ATOM     23  C   UNL d   1      27.628 -17.029  -1.112  0.00  0.00     0.038 A 
BRANCH  22  24
ATOM     24  N   UNL d   1      29.803 -17.695  -0.305  0.00  0.00    -0.327 N 
ATOM     25  C   UNL d   1      30.636 -17.879  -1.415  0.00  0.00     0.226 C 
ATOM     26  O   UNL d   1      30.507 -17.352  -2.525  0.00  0.00    -0.273 OA
ATOM     27  H   UNL d   1      30.029 -18.141   0.572  0.00  0.00     0.169 HD
BRANCH  25  28
ATOM     28  C   UNL d   1      31.800 -18.839  -1.287  0.00  0.00     0.078 C 
ATOM     29  C   UNL d   1      31.694 -19.853  -2.450  0.00  0.00     0.014 C 
ATOM     30  C   UNL d   1      32.818 -20.876  -2.422  0.00  0.00     0.001 C 
ATOM     31  C   UNL d   1      34.177 -20.194  -2.377  0.00  0.00     0.000 C 
ATOM     32  C   UNL d   1      34.272 -19.235  -1.196  0.00  0.00     0.001 C 
ATOM     33  C   UNL d   1      33.172 -18.189  -1.242  0.00  0.00     0.014 C 
ENDBRANCH  25  28
ENDBRANCH  22  24
ENDBRANCH   1  18
TORSDOF 7
ENDMDL
