MODEL 1
REMARK VINA RESULT:   -30.442      0.000      0.000
REMARK INTER + INTRA:         -33.948
REMARK INTER:                 -34.022
REMARK INTRA:                   0.074
REMARK CONF_INDEPENDENT:        3.580
REMARK UNBOUND:                 0.074
REMARK  12 active torsions:
REMARK  status: ('A' for Active; 'I' for Inactive)
REMARK    1  A    between atoms: C_2  and  C_3 
REMARK    2  A    between atoms: C_3  and  C_4 
REMARK    3  A    between atoms: C_4  and  C_5 
REMARK    4  A    between atoms: N_7  and  N_8 
REMARK    5  A    between atoms: N_8  and  C_9 
REMARK    6  A    between atoms: C_11  and  S_12 
REMARK    7  A    between atoms: S_12  and  C_13 
REMARK    8  A    between atoms: C_13  and  C_14 
REMARK    9  A    between atoms: C_14  and  C_15 
REMARK       I    between atoms: C_15  and  N_17 
REMARK   10  A    between atoms: N_17  and  C_18 
REMARK   11  A    between atoms: C_21  and  O_22 
REMARK   12  A    between atoms: O_22  and  C_23 
ROOT
ATOM      1  C   UNL d   1      26.616 -16.992  -1.147  0.00  0.00     0.092 C 
ENDROOT
BRANCH   1   2
ATOM      2  S   UNL d   1      25.499 -17.213   0.274  0.00  0.00    -0.087 SA
BRANCH   2   3
ATOM      3  C   UNL d   1      23.977 -17.717  -0.443  0.00  0.00     0.226 A 
ATOM      4  N   UNL d   1      22.782 -17.061  -0.326  0.00  0.00    -0.034 NA
ATOM      5  C   UNL d   1      21.937 -17.809  -1.009  0.00  0.00     0.739 A 
ATOM      6  N   UNL d   1      22.632 -18.869  -1.530  0.00  0.00    -0.103 N 
ATOM      7  N   UNL d   1      23.930 -18.831  -1.185  0.00  0.00    -0.132 NA
ATOM      8  H   UNL d   1      22.308 -19.589  -2.166  0.00  0.00     0.208 HD
BRANCH   5   9
ATOM      9  N   UNL d   1      20.612 -17.651  -1.270  0.00  0.00    -0.106 N 
ATOM     10  H   UNL d   1      20.279 -16.740  -1.580  0.00  0.00     0.208 HD
BRANCH   9  11
ATOM     11  N   UNL d   1      19.727 -18.688  -1.161  0.00  0.00    -0.169 NA
ATOM     12  C   UNL d   1      19.800 -19.498  -0.143  0.00  0.00     0.029 C 
ATOM     13  C   UNL d   1      20.796 -19.325   0.986  0.00  0.00     0.067 C 
BRANCH  12  14
ATOM     14  C   UNL d   1      18.816 -20.676  -0.119  0.00  0.00     0.056 C 
BRANCH  14  15
ATOM     15  C   UNL d   1      18.562 -21.249   1.272  0.00  0.00     0.005 C 
BRANCH  15  16
ATOM     16  C   UNL d   1      18.448 -20.196   2.365  0.00  0.00    -0.004 C 
ATOM     17  C   UNL d   1      19.501 -20.452   3.435  0.00  0.00     0.005 C 
ENDBRANCH  15  16
ENDBRANCH  14  15
ENDBRANCH  12  14
ENDBRANCH   9  11
ENDBRANCH   5   9
ENDBRANCH   2   3
ENDBRANCH   1   2
BRANCH   1  18
ATOM     18  C   UNL d   1      27.912 -16.239  -0.744  0.00  0.00     0.113 C 
BRANCH  18  19
ATOM     19  C   UNL d   1      27.610 -15.238   0.365  0.00  0.00     0.222 C 
ATOM     20  O   UNL d   1      26.681 -14.429   0.234  0.00  0.00    -0.273 OA
ATOM     21  N   UNL d   1      28.438 -15.268   1.487  0.00  0.00    -0.327 N 
ATOM     22  H   UNL d   1      29.314 -15.779   1.456  0.00  0.00     0.169 HD
BRANCH  21  23
ATOM     23  C   UNL d   1      28.204 -14.418   2.603  0.00  0.00     0.034 A 
ATOM     24  C   UNL d   1      28.435 -14.827   3.920  0.00  0.00     0.032 A 
ATOM     25  C   UNL d   1      28.210 -13.928   4.987  0.00  0.00     0.039 A 
ATOM     26  C   UNL d   1      27.774 -12.617   4.748  0.00  0.00     0.078 A 
ATOM     27  C   UNL d   1      27.493 -12.243   3.440  0.00  0.00     0.039 A 
ATOM     28  C   UNL d   1      27.709 -13.132   2.387  0.00  0.00     0.032 A 
BRANCH  26  29
ATOM     29  O   UNL d   1      27.677 -11.793   5.837  0.00  0.00    -0.255 OA
BRANCH  29  30
ATOM     30  C   UNL d   1      28.878 -11.551   6.567  0.00  0.00     0.530 C 
ATOM     31  F   UNL d   1      29.960 -11.536   5.758  0.00  0.00    -0.144 F 
ATOM     32  F   UNL d   1      28.804 -10.380   7.238  0.00  0.00    -0.144 F 
ATOM     33  F   UNL d   1      29.055 -12.538   7.474  0.00  0.00    -0.144 F 
ENDBRANCH  29  30
ENDBRANCH  26  29
ENDBRANCH  21  23
ENDBRANCH  18  19
ENDBRANCH   1  18
TORSDOF 12
ENDMDL
MODEL 2
REMARK VINA RESULT:   -30.423      6.052      7.827
REMARK INTER + INTRA:         -34.143
REMARK INTER:                 -34.003
REMARK INTRA:                  -0.140
REMARK CONF_INDEPENDENT:        3.580
REMARK UNBOUND:                -0.140
REMARK  12 active torsions:
REMARK  status: ('A' for Active; 'I' for Inactive)
REMARK    1  A    between atoms: C_2  and  C_3 
REMARK    2  A    between atoms: C_3  and  C_4 
REMARK    3  A    between atoms: C_4  and  C_5 
REMARK    4  A    between atoms: N_7  and  N_8 
REMARK    5  A    between atoms: N_8  and  C_9 
REMARK    6  A    between atoms: C_11  and  S_12 
REMARK    7  A    between atoms: S_12  and  C_13 
REMARK    8  A    between atoms: C_13  and  C_14 
REMARK    9  A    between atoms: C_14  and  C_15 
REMARK       I    between atoms: C_15  and  N_17 
REMARK   10  A    between atoms: N_17  and  C_18 
REMARK   11  A    between atoms: C_21  and  O_22 
REMARK   12  A    between atoms: O_22  and  C_23 
ROOT
ATOM      1  C   UNL d   1      26.531 -16.657  -1.233  0.00  0.00     0.092 C 
ENDROOT
BRANCH   1   2
ATOM      2  S   UNL d   1      25.809 -17.503   0.209  0.00  0.00    -0.087 SA
BRANCH   2   3
ATOM      3  C   UNL d   1      24.208 -17.987  -0.327  0.00  0.00     0.226 A 
ATOM      4  N   UNL d   1      23.143 -17.151  -0.525  0.00  0.00    -0.034 NA
ATOM      5  C   UNL d   1      22.170 -17.955  -0.906  0.00  0.00     0.739 A 
ATOM      6  N   UNL d   1      22.664 -19.232  -0.948  0.00  0.00    -0.103 N 
ATOM      7  N   UNL d   1      23.957 -19.277  -0.586  0.00  0.00    -0.132 NA
ATOM      8  H   UNL d   1      22.210 -20.078  -1.271  0.00  0.00     0.208 HD
BRANCH   5   9
ATOM      9  N   UNL d   1      20.884 -17.695  -1.266  0.00  0.00    -0.106 N 
ATOM     10  H   UNL d   1      20.658 -16.777  -1.644  0.00  0.00     0.208 HD
BRANCH   9  11
ATOM     11  N   UNL d   1      19.902 -18.642  -1.168  0.00  0.00    -0.169 NA
ATOM     12  C   UNL d   1      19.807 -19.367  -0.089  0.00  0.00     0.029 C 
ATOM     13  C   UNL d   1      20.707 -19.185   1.116  0.00  0.00     0.067 C 
BRANCH  12  14
ATOM     14  C   UNL d   1      18.722 -20.452  -0.074  0.00  0.00     0.056 C 
BRANCH  14  15
ATOM     15  C   UNL d   1      18.673 -21.269   1.213  0.00  0.00     0.005 C 
BRANCH  15  16
ATOM     16  C   UNL d   1      18.416 -20.440   2.463  0.00  0.00    -0.004 C 
ATOM     17  C   UNL d   1      19.530 -20.677   3.474  0.00  0.00     0.005 C 
ENDBRANCH  15  16
ENDBRANCH  14  15
ENDBRANCH  12  14
ENDBRANCH   9  11
ENDBRANCH   5   9
ENDBRANCH   2   3
ENDBRANCH   1   2
BRANCH   1  18
ATOM     18  C   UNL d   1      25.740 -15.373  -1.599  0.00  0.00     0.113 C 
BRANCH  18  19
ATOM     19  C   UNL d   1      26.064 -14.950  -3.026  0.00  0.00     0.222 C 
ATOM     20  O   UNL d   1      25.149 -14.736  -3.833  0.00  0.00    -0.273 OA
ATOM     21  N   UNL d   1      27.414 -14.852  -3.366  0.00  0.00    -0.327 N 
ATOM     22  H   UNL d   1      28.119 -15.252  -2.758  0.00  0.00     0.169 HD
BRANCH  21  23
ATOM     23  C   UNL d   1      27.822 -14.407  -4.654  0.00  0.00     0.034 A 
ATOM     24  C   UNL d   1      28.733 -15.118  -5.440  0.00  0.00     0.032 A 
ATOM     25  C   UNL d   1      29.080 -14.642  -6.724  0.00  0.00     0.039 A 
ATOM     26  C   UNL d   1      28.510 -13.468  -7.238  0.00  0.00     0.078 A 
ATOM     27  C   UNL d   1      27.651 -12.740  -6.423  0.00  0.00     0.039 A 
ATOM     28  C   UNL d   1      27.313 -13.208  -5.153  0.00  0.00     0.032 A 
BRANCH  26  29
ATOM     29  O   UNL d   1      28.835 -13.139  -8.526  0.00  0.00    -0.255 OA
BRANCH  29  30
ATOM     30  C   UNL d   1      29.857 -12.160  -8.700  0.00  0.00     0.530 C 
ATOM     31  F   UNL d   1      30.346 -11.732  -7.515  0.00  0.00    -0.144 F 
ATOM     32  F   UNL d   1      30.868 -12.649  -9.452  0.00  0.00    -0.144 F 
ATOM     33  F   UNL d   1      29.342 -11.088  -9.344  0.00  0.00    -0.144 F 
ENDBRANCH  29  30
ENDBRANCH  26  29
ENDBRANCH  21  23
ENDBRANCH  18  19
ENDBRANCH   1  18
TORSDOF 12
ENDMDL
MODEL 3
REMARK VINA RESULT:   -30.256      6.526      8.287
REMARK INTER + INTRA:         -34.245
REMARK INTER:                 -33.836
REMARK INTRA:                  -0.409
REMARK CONF_INDEPENDENT:        3.580
REMARK UNBOUND:                -0.409
REMARK  12 active torsions:
REMARK  status: ('A' for Active; 'I' for Inactive)
REMARK    1  A    between atoms: C_2  and  C_3 
REMARK    2  A    between atoms: C_3  and  C_4 
REMARK    3  A    between atoms: C_4  and  C_5 
REMARK    4  A    between atoms: N_7  and  N_8 
REMARK    5  A    between atoms: N_8  and  C_9 
REMARK    6  A    between atoms: C_11  and  S_12 
REMARK    7  A    between atoms: S_12  and  C_13 
REMARK    8  A    between atoms: C_13  and  C_14 
REMARK    9  A    between atoms: C_14  and  C_15 
REMARK       I    between atoms: C_15  and  N_17 
REMARK   10  A    between atoms: N_17  and  C_18 
REMARK   11  A    between atoms: C_21  and  O_22 
REMARK   12  A    between atoms: O_22  and  C_23 
ROOT
ATOM      1  C   UNL d   1      26.235 -16.233  -2.072  0.00  0.00     0.092 C 
ENDROOT
BRANCH   1   2
ATOM      2  S   UNL d   1      25.169 -15.971  -0.619  0.00  0.00    -0.087 SA
BRANCH   2   3
ATOM      3  C   UNL d   1      23.775 -16.998  -0.911  0.00  0.00     0.226 A 
ATOM      4  N   UNL d   1      22.466 -16.599  -0.882  0.00  0.00    -0.034 NA
ATOM      5  C   UNL d   1      21.789 -17.701  -1.142  0.00  0.00     0.739 A 
ATOM      6  N   UNL d   1      22.687 -18.717  -1.338  0.00  0.00    -0.103 N 
ATOM      7  N   UNL d   1      23.955 -18.295  -1.198  0.00  0.00    -0.132 NA
ATOM      8  H   UNL d   1      22.512 -19.671  -1.630  0.00  0.00     0.208 HD
BRANCH   5   9
ATOM      9  N   UNL d   1      20.453 -17.920  -1.270  0.00  0.00    -0.106 N 
ATOM     10  H   UNL d   1      19.857 -17.150  -1.567  0.00  0.00     0.208 HD
BRANCH   9  11
ATOM     11  N   UNL d   1      19.899 -19.150  -1.046  0.00  0.00    -0.169 NA
ATOM     12  C   UNL d   1      20.160 -19.786   0.062  0.00  0.00     0.029 C 
ATOM     13  C   UNL d   1      21.018 -19.208   1.169  0.00  0.00     0.067 C 
BRANCH  12  14
ATOM     14  C   UNL d   1      19.555 -21.188   0.219  0.00  0.00     0.056 C 
BRANCH  14  15
ATOM     15  C   UNL d   1      18.259 -21.223   1.022  0.00  0.00     0.005 C 
BRANCH  15  16
ATOM     16  C   UNL d   1      18.188 -20.183   2.130  0.00  0.00    -0.004 C 
ATOM     17  C   UNL d   1      19.261 -20.469   3.172  0.00  0.00     0.005 C 
ENDBRANCH  15  16
ENDBRANCH  14  15
ENDBRANCH  12  14
ENDBRANCH   9  11
ENDBRANCH   5   9
ENDBRANCH   2   3
ENDBRANCH   1   2
BRANCH   1  18
ATOM     18  C   UNL d   1      25.900 -15.238  -3.215  0.00  0.00     0.113 C 
BRANCH  18  19
ATOM     19  C   UNL d   1      26.849 -15.453  -4.388  0.00  0.00     0.222 C 
ATOM     20  O   UNL d   1      26.402 -15.539  -5.539  0.00  0.00    -0.273 OA
ATOM     21  N   UNL d   1      28.207 -15.573  -4.089  0.00  0.00    -0.327 N 
ATOM     22  H   UNL d   1      28.503 -15.726  -3.132  0.00  0.00     0.169 HD
BRANCH  21  23
ATOM     23  C   UNL d   1      29.180 -15.715  -5.117  0.00  0.00     0.034 A 
ATOM     24  C   UNL d   1      29.975 -16.858  -5.245  0.00  0.00     0.032 A 
ATOM     25  C   UNL d   1      30.906 -16.955  -6.303  0.00  0.00     0.039 A 
ATOM     26  C   UNL d   1      31.038 -15.925  -7.246  0.00  0.00     0.078 A 
ATOM     27  C   UNL d   1      30.284 -14.771  -7.073  0.00  0.00     0.039 A 
ATOM     28  C   UNL d   1      29.369 -14.673  -6.025  0.00  0.00     0.032 A 
BRANCH  26  29
ATOM     29  O   UNL d   1      31.897 -16.152  -8.288  0.00  0.00    -0.255 OA
BRANCH  29  30
ATOM     30  C   UNL d   1      33.109 -15.402  -8.294  0.00  0.00     0.530 C 
ATOM     31  F   UNL d   1      33.256 -14.678  -7.162  0.00  0.00    -0.144 F 
ATOM     32  F   UNL d   1      34.177 -16.216  -8.447  0.00  0.00    -0.144 F 
ATOM     33  F   UNL d   1      33.094 -14.539  -9.335  0.00  0.00    -0.144 F 
ENDBRANCH  29  30
ENDBRANCH  26  29
ENDBRANCH  21  23
ENDBRANCH  18  19
ENDBRANCH   1  18
TORSDOF 12
ENDMDL
MODEL 4
REMARK VINA RESULT:   -30.162      5.656      6.835
REMARK INTER + INTRA:         -34.193
REMARK INTER:                 -33.742
REMARK INTRA:                  -0.451
REMARK CONF_INDEPENDENT:        3.580
REMARK UNBOUND:                -0.451
REMARK  12 active torsions:
REMARK  status: ('A' for Active; 'I' for Inactive)
REMARK    1  A    between atoms: C_2  and  C_3 
REMARK    2  A    between atoms: C_3  and  C_4 
REMARK    3  A    between atoms: C_4  and  C_5 
REMARK    4  A    between atoms: N_7  and  N_8 
REMARK    5  A    between atoms: N_8  and  C_9 
REMARK    6  A    between atoms: C_11  and  S_12 
REMARK    7  A    between atoms: S_12  and  C_13 
REMARK    8  A    between atoms: C_13  and  C_14 
REMARK    9  A    between atoms: C_14  and  C_15 
REMARK       I    between atoms: C_15  and  N_17 
REMARK   10  A    between atoms: N_17  and  C_18 
REMARK   11  A    between atoms: C_21  and  O_22 
REMARK   12  A    between atoms: O_22  and  C_23 
ROOT
ATOM      1  C   UNL d   1      26.341 -16.354  -1.601  0.00  0.00     0.092 C 
ENDROOT
BRANCH   1   2
ATOM      2  S   UNL d   1      25.268 -16.340  -0.130  0.00  0.00    -0.087 SA
BRANCH   2   3
ATOM      3  C   UNL d   1      23.867 -17.286  -0.604  0.00  0.00     0.226 A 
ATOM      4  N   UNL d   1      22.573 -16.841  -0.630  0.00  0.00    -0.034 NA
ATOM      5  C   UNL d   1      21.881 -17.891  -1.030  0.00  0.00     0.739 A 
ATOM      6  N   UNL d   1      22.758 -18.920  -1.251  0.00  0.00    -0.103 N 
ATOM      7  N   UNL d   1      24.025 -18.559  -0.988  0.00  0.00    -0.132 NA
ATOM      8  H   UNL d   1      22.573 -19.839  -1.636  0.00  0.00     0.208 HD
BRANCH   5   9
ATOM      9  N   UNL d   1      20.551 -18.047  -1.267  0.00  0.00    -0.106 N 
ATOM     10  H   UNL d   1      20.033 -17.274  -1.681  0.00  0.00     0.208 HD
BRANCH   9  11
ATOM     11  N   UNL d   1      19.904 -19.222  -0.998  0.00  0.00    -0.169 NA
ATOM     12  C   UNL d   1      20.099 -19.823   0.141  0.00  0.00     0.029 C 
ATOM     13  C   UNL d   1      20.980 -19.259   1.238  0.00  0.00     0.067 C 
BRANCH  12  14
ATOM     14  C   UNL d   1      19.390 -21.169   0.349  0.00  0.00     0.056 C 
BRANCH  14  15
ATOM     15  C   UNL d   1      18.149 -21.090   1.232  0.00  0.00     0.005 C 
BRANCH  15  16
ATOM     16  C   UNL d   1      18.314 -20.202   2.456  0.00  0.00    -0.004 C 
ATOM     17  C   UNL d   1      19.459 -20.721   3.316  0.00  0.00     0.005 C 
ENDBRANCH  15  16
ENDBRANCH  14  15
ENDBRANCH  12  14
ENDBRANCH   9  11
ENDBRANCH   5   9
ENDBRANCH   2   3
ENDBRANCH   1   2
BRANCH   1  18
ATOM     18  C   UNL d   1      25.513 -16.306  -2.913  0.00  0.00     0.113 C 
BRANCH  18  19
ATOM     19  C   UNL d   1      25.284 -14.858  -3.331  0.00  0.00     0.222 C 
ATOM     20  O   UNL d   1      24.162 -14.347  -3.207  0.00  0.00    -0.273 OA
ATOM     21  N   UNL d   1      26.373 -14.176  -3.875  0.00  0.00    -0.327 N 
ATOM     22  H   UNL d   1      27.195 -14.690  -4.170  0.00  0.00     0.169 HD
BRANCH  21  23
ATOM     23  C   UNL d   1      26.279 -12.805  -4.241  0.00  0.00     0.034 A 
ATOM     24  C   UNL d   1      25.830 -11.821  -3.354  0.00  0.00     0.032 A 
ATOM     25  C   UNL d   1      25.784 -10.470  -3.764  0.00  0.00     0.039 A 
ATOM     26  C   UNL d   1      26.202 -10.090  -5.048  0.00  0.00     0.078 A 
ATOM     27  C   UNL d   1      26.590 -11.084  -5.937  0.00  0.00     0.039 A 
ATOM     28  C   UNL d   1      26.630 -12.419  -5.534  0.00  0.00     0.032 A 
BRANCH  26  29
ATOM     29  O   UNL d   1      26.211  -8.748  -5.318  0.00  0.00    -0.255 OA
BRANCH  29  30
ATOM     30  C   UNL d   1      24.987  -8.045  -5.120  0.00  0.00     0.530 C 
ATOM     31  F   UNL d   1      24.784  -7.749  -3.818  0.00  0.00    -0.144 F 
ATOM     32  F   UNL d   1      24.964  -6.905  -5.847  0.00  0.00    -0.144 F 
ATOM     33  F   UNL d   1      23.957  -8.819  -5.532  0.00  0.00    -0.144 F 
ENDBRANCH  29  30
ENDBRANCH  26  29
ENDBRANCH  21  23
ENDBRANCH  18  19
ENDBRANCH   1  18
TORSDOF 12
ENDMDL
MODEL 5
REMARK VINA RESULT:   -30.057      1.869      2.247
REMARK INTER + INTRA:         -33.550
REMARK INTER:                 -33.637
REMARK INTRA:                   0.086
REMARK CONF_INDEPENDENT:        3.580
REMARK UNBOUND:                 0.086
REMARK  12 active torsions:
REMARK  status: ('A' for Active; 'I' for Inactive)
REMARK    1  A    between atoms: C_2  and  C_3 
REMARK    2  A    between atoms: C_3  and  C_4 
REMARK    3  A    between atoms: C_4  and  C_5 
REMARK    4  A    between atoms: N_7  and  N_8 
REMARK    5  A    between atoms: N_8  and  C_9 
REMARK    6  A    between atoms: C_11  and  S_12 
REMARK    7  A    between atoms: S_12  and  C_13 
REMARK    8  A    between atoms: C_13  and  C_14 
REMARK    9  A    between atoms: C_14  and  C_15 
REMARK       I    between atoms: C_15  and  N_17 
REMARK   10  A    between atoms: N_17  and  C_18 
REMARK   11  A    between atoms: C_21  and  O_22 
REMARK   12  A    between atoms: O_22  and  C_23 
ROOT
ATOM      1  C   UNL d   1      26.621 -17.165  -0.588  0.00  0.00     0.092 C 
ENDROOT
BRANCH   1   2
ATOM      2  S   UNL d   1      25.550 -18.574  -0.163  0.00  0.00    -0.087 SA
BRANCH   2   3
ATOM      3  C   UNL d   1      23.921 -17.987  -0.457  0.00  0.00     0.226 A 
ATOM      4  N   UNL d   1      22.851 -18.751  -0.837  0.00  0.00    -0.034 NA
ATOM      5  C   UNL d   1      21.862 -17.885  -0.948  0.00  0.00     0.739 A 
ATOM      6  N   UNL d   1      22.342 -16.645  -0.618  0.00  0.00    -0.103 N 
ATOM      7  N   UNL d   1      23.647 -16.685  -0.301  0.00  0.00    -0.132 NA
ATOM      8  H   UNL d   1      21.835 -15.773  -0.523  0.00  0.00     0.208 HD
BRANCH   5   9
ATOM      9  N   UNL d   1      20.553 -18.061  -1.271  0.00  0.00    -0.106 N 
ATOM     10  H   UNL d   1      20.054 -17.299  -1.726  0.00  0.00     0.208 HD
BRANCH   9  11
ATOM     11  N   UNL d   1      19.903 -19.241  -1.033  0.00  0.00    -0.169 NA
ATOM     12  C   UNL d   1      20.063 -19.849   0.109  0.00  0.00     0.029 C 
ATOM     13  C   UNL d   1      20.901 -19.288   1.239  0.00  0.00     0.067 C 
BRANCH  12  14
ATOM     14  C   UNL d   1      19.354 -21.200   0.282  0.00  0.00     0.056 C 
BRANCH  14  15
ATOM     15  C   UNL d   1      18.243 -21.192   1.327  0.00  0.00     0.005 C 
BRANCH  15  16
ATOM     16  C   UNL d   1      18.481 -20.227   2.479  0.00  0.00    -0.004 C 
ATOM     17  C   UNL d   1      19.498 -20.821   3.445  0.00  0.00     0.005 C 
ENDBRANCH  15  16
ENDBRANCH  14  15
ENDBRANCH  12  14
ENDBRANCH   9  11
ENDBRANCH   5   9
ENDBRANCH   2   3
ENDBRANCH   1   2
BRANCH   1  18
ATOM     18  C   UNL d   1      27.511 -16.741   0.611  0.00  0.00     0.113 C 
BRANCH  18  19
ATOM     19  C   UNL d   1      27.466 -15.227   0.784  0.00  0.00     0.222 C 
ATOM     20  O   UNL d   1      26.891 -14.524  -0.057  0.00  0.00    -0.273 OA
ATOM     21  N   UNL d   1      28.119 -14.698   1.898  0.00  0.00    -0.327 N 
ATOM     22  H   UNL d   1      28.763 -15.275   2.428  0.00  0.00     0.169 HD
BRANCH  21  23
ATOM     23  C   UNL d   1      28.085 -13.305   2.183  0.00  0.00     0.034 A 
ATOM     24  C   UNL d   1      29.242 -12.562   2.436  0.00  0.00     0.032 A 
ATOM     25  C   UNL d   1      29.149 -11.175   2.685  0.00  0.00     0.039 A 
ATOM     26  C   UNL d   1      27.910 -10.518   2.666  0.00  0.00     0.078 A 
ATOM     27  C   UNL d   1      26.764 -11.278   2.471  0.00  0.00     0.039 A 
ATOM     28  C   UNL d   1      26.855 -12.649   2.231  0.00  0.00     0.032 A 
BRANCH  26  29
ATOM     29  O   UNL d   1      27.932  -9.159   2.824  0.00  0.00    -0.255 OA
BRANCH  29  30
ATOM     30  C   UNL d   1      27.556  -8.655   4.104  0.00  0.00     0.530 C 
ATOM     31  F   UNL d   1      27.192  -7.356   4.043  0.00  0.00    -0.144 F 
ATOM     32  F   UNL d   1      26.541  -9.381   4.625  0.00  0.00    -0.144 F 
ATOM     33  F   UNL d   1      28.608  -8.750   4.947  0.00  0.00    -0.144 F 
ENDBRANCH  29  30
ENDBRANCH  26  29
ENDBRANCH  21  23
ENDBRANCH  18  19
ENDBRANCH   1  18
TORSDOF 12
ENDMDL
MODEL 6
REMARK VINA RESULT:   -30.017      6.437      8.090
REMARK INTER + INTRA:         -33.992
REMARK INTER:                 -33.597
REMARK INTRA:                  -0.395
REMARK CONF_INDEPENDENT:        3.580
REMARK UNBOUND:                -0.395
REMARK  12 active torsions:
REMARK  status: ('A' for Active; 'I' for Inactive)
REMARK    1  A    between atoms: C_2  and  C_3 
REMARK    2  A    between atoms: C_3  and  C_4 
REMARK    3  A    between atoms: C_4  and  C_5 
REMARK    4  A    between atoms: N_7  and  N_8 
REMARK    5  A    between atoms: N_8  and  C_9 
REMARK    6  A    between atoms: C_11  and  S_12 
REMARK    7  A    between atoms: S_12  and  C_13 
REMARK    8  A    between atoms: C_13  and  C_14 
REMARK    9  A    between atoms: C_14  and  C_15 
REMARK       I    between atoms: C_15  and  N_17 
REMARK   10  A    between atoms: N_17  and  C_18 
REMARK   11  A    between atoms: C_21  and  O_22 
REMARK   12  A    between atoms: O_22  and  C_23 
ROOT
ATOM      1  C   UNL d   1      26.169 -16.281  -2.128  0.00  0.00     0.092 C 
ENDROOT
BRANCH   1   2
ATOM      2  S   UNL d   1      25.311 -16.271  -0.522  0.00  0.00    -0.087 SA
BRANCH   2   3
ATOM      3  C   UNL d   1      23.875 -17.246  -0.789  0.00  0.00     0.226 A 
ATOM      4  N   UNL d   1      22.595 -16.775  -0.895  0.00  0.00    -0.034 NA
ATOM      5  C   UNL d   1      21.867 -17.860  -1.074  0.00  0.00     0.739 A 
ATOM      6  N   UNL d   1      22.709 -18.940  -1.091  0.00  0.00    -0.103 N 
ATOM      7  N   UNL d   1      23.990 -18.576  -0.913  0.00  0.00    -0.132 NA
ATOM      8  H   UNL d   1      22.492 -19.911  -1.284  0.00  0.00     0.208 HD
BRANCH   5   9
ATOM      9  N   UNL d   1      20.530 -18.018  -1.267  0.00  0.00    -0.106 N 
ATOM     10  H   UNL d   1      19.989 -17.228  -1.614  0.00  0.00     0.208 HD
BRANCH   9  11
ATOM     11  N   UNL d   1      19.905 -19.213  -1.042  0.00  0.00    -0.169 NA
ATOM     12  C   UNL d   1      20.082 -19.834   0.090  0.00  0.00     0.029 C 
ATOM     13  C   UNL d   1      20.917 -19.272   1.224  0.00  0.00     0.067 C 
BRANCH  12  14
ATOM     14  C   UNL d   1      19.401 -21.200   0.249  0.00  0.00     0.056 C 
BRANCH  14  15
ATOM     15  C   UNL d   1      17.995 -21.132   0.836  0.00  0.00     0.005 C 
BRANCH  15  16
ATOM     16  C   UNL d   1      17.922 -20.447   2.193  0.00  0.00    -0.004 C 
ATOM     17  C   UNL d   1      19.154 -20.802   3.014  0.00  0.00     0.005 C 
ENDBRANCH  15  16
ENDBRANCH  14  15
ENDBRANCH  12  14
ENDBRANCH   9  11
ENDBRANCH   5   9
ENDBRANCH   2   3
ENDBRANCH   1   2
BRANCH   1  18
ATOM     18  C   UNL d   1      25.491 -15.325  -3.145  0.00  0.00     0.113 C 
BRANCH  18  19
ATOM     19  C   UNL d   1      26.367 -15.174  -4.383  0.00  0.00     0.222 C 
ATOM     20  O   UNL d   1      26.008 -15.668  -5.460  0.00  0.00    -0.273 OA
ATOM     21  N   UNL d   1      27.574 -14.493  -4.224  0.00  0.00    -0.327 N 
ATOM     22  H   UNL d   1      27.933 -14.309  -3.294  0.00  0.00     0.169 HD
BRANCH  21  23
ATOM     23  C   UNL d   1      28.434 -14.246  -5.330  0.00  0.00     0.034 A 
ATOM     24  C   UNL d   1      28.458 -13.020  -6.002  0.00  0.00     0.032 A 
ATOM     25  C   UNL d   1      29.354 -12.823  -7.077  0.00  0.00     0.039 A 
ATOM     26  C   UNL d   1      30.240 -13.835  -7.474  0.00  0.00     0.078 A 
ATOM     27  C   UNL d   1      30.165 -15.067  -6.836  0.00  0.00     0.039 A 
ATOM     28  C   UNL d   1      29.276 -15.263  -5.779  0.00  0.00     0.032 A 
BRANCH  26  29
ATOM     29  O   UNL d   1      31.134 -13.516  -8.461  0.00  0.00    -0.255 OA
BRANCH  29  30
ATOM     30  C   UNL d   1      32.512 -13.755  -8.180  0.00  0.00     0.530 C 
ATOM     31  F   UNL d   1      32.787 -15.076  -8.112  0.00  0.00    -0.144 F 
ATOM     32  F   UNL d   1      33.299 -13.180  -9.116  0.00  0.00    -0.144 F 
ATOM     33  F   UNL d   1      32.824 -13.208  -6.983  0.00  0.00    -0.144 F 
ENDBRANCH  29  30
ENDBRANCH  26  29
ENDBRANCH  21  23
ENDBRANCH  18  19
ENDBRANCH   1  18
TORSDOF 12
ENDMDL
MODEL 7
REMARK VINA RESULT:   -29.881      4.952      6.311
REMARK INTER + INTRA:         -34.395
REMARK INTER:                 -33.461
REMARK INTRA:                  -0.934
REMARK CONF_INDEPENDENT:        3.580
REMARK UNBOUND:                -0.934
REMARK  12 active torsions:
REMARK  status: ('A' for Active; 'I' for Inactive)
REMARK    1  A    between atoms: C_2  and  C_3 
REMARK    2  A    between atoms: C_3  and  C_4 
REMARK    3  A    between atoms: C_4  and  C_5 
REMARK    4  A    between atoms: N_7  and  N_8 
REMARK    5  A    between atoms: N_8  and  C_9 
REMARK    6  A    between atoms: C_11  and  S_12 
REMARK    7  A    between atoms: S_12  and  C_13 
REMARK    8  A    between atoms: C_13  and  C_14 
REMARK    9  A    between atoms: C_14  and  C_15 
REMARK       I    between atoms: C_15  and  N_17 
REMARK   10  A    between atoms: N_17  and  C_18 
REMARK   11  A    between atoms: C_21  and  O_22 
REMARK   12  A    between atoms: O_22  and  C_23 
ROOT
ATOM      1  C   UNL d   1      26.329 -17.320   0.675  0.00  0.00     0.092 C 
ENDROOT
BRANCH   1   2
ATOM      2  S   UNL d   1      25.561 -18.527  -0.452  0.00  0.00    -0.087 SA
BRANCH   2   3
ATOM      3  C   UNL d   1      23.921 -17.939  -0.668  0.00  0.00     0.226 A 
ATOM      4  N   UNL d   1      22.825 -18.708  -0.952  0.00  0.00    -0.034 NA
ATOM      5  C   UNL d   1      21.836 -17.840  -1.035  0.00  0.00     0.739 A 
ATOM      6  N   UNL d   1      22.342 -16.592  -0.784  0.00  0.00    -0.103 N 
ATOM      7  N   UNL d   1      23.664 -16.629  -0.547  0.00  0.00    -0.132 NA
ATOM      8  H   UNL d   1      21.847 -15.713  -0.692  0.00  0.00     0.208 HD
BRANCH   5   9
ATOM      9  N   UNL d   1      20.508 -18.018  -1.270  0.00  0.00    -0.106 N 
ATOM     10  H   UNL d   1      19.973 -17.246  -1.662  0.00  0.00     0.208 HD
BRANCH   9  11
ATOM     11  N   UNL d   1      19.887 -19.212  -1.028  0.00  0.00    -0.169 NA
ATOM     12  C   UNL d   1      20.098 -19.835   0.097  0.00  0.00     0.029 C 
ATOM     13  C   UNL d   1      20.970 -19.279   1.204  0.00  0.00     0.067 C 
BRANCH  12  14
ATOM     14  C   UNL d   1      19.417 -21.200   0.274  0.00  0.00     0.056 C 
BRANCH  14  15
ATOM     15  C   UNL d   1      18.105 -21.146   1.049  0.00  0.00     0.005 C 
BRANCH  15  16
ATOM     16  C   UNL d   1      18.107 -20.159   2.206  0.00  0.00    -0.004 C 
ATOM     17  C   UNL d   1      19.214 -20.520   3.187  0.00  0.00     0.005 C 
ENDBRANCH  15  16
ENDBRANCH  14  15
ENDBRANCH  12  14
ENDBRANCH   9  11
ENDBRANCH   5   9
ENDBRANCH   2   3
ENDBRANCH   1   2
BRANCH   1  18
ATOM     18  C   UNL d   1      27.747 -16.912   0.195  0.00  0.00     0.113 C 
BRANCH  18  19
ATOM     19  C   UNL d   1      27.645 -15.812  -0.855  0.00  0.00     0.222 C 
ATOM     20  O   UNL d   1      28.633 -15.113  -1.119  0.00  0.00    -0.273 OA
ATOM     21  N   UNL d   1      26.401 -15.626  -1.459  0.00  0.00    -0.327 N 
ATOM     22  H   UNL d   1      25.575 -16.056  -1.057  0.00  0.00     0.169 HD
BRANCH  21  23
ATOM     23  C   UNL d   1      26.217 -14.668  -2.494  0.00  0.00     0.034 A 
ATOM     24  C   UNL d   1      25.532 -14.963  -3.676  0.00  0.00     0.032 A 
ATOM     25  C   UNL d   1      25.356 -13.962  -4.658  0.00  0.00     0.039 A 
ATOM     26  C   UNL d   1      25.841 -12.662  -4.459  0.00  0.00     0.078 A 
ATOM     27  C   UNL d   1      26.570 -12.398  -3.306  0.00  0.00     0.039 A 
ATOM     28  C   UNL d   1      26.749 -13.388  -2.340  0.00  0.00     0.032 A 
BRANCH  26  29
ATOM     29  O   UNL d   1      25.537 -11.738  -5.423  0.00  0.00    -0.255 OA
BRANCH  29  30
ATOM     30  C   UNL d   1      26.461 -10.666  -5.598  0.00  0.00     0.530 C 
ATOM     31  F   UNL d   1      26.478  -9.840  -4.529  0.00  0.00    -0.144 F 
ATOM     32  F   UNL d   1      27.709 -11.139  -5.818  0.00  0.00    -0.144 F 
ATOM     33  F   UNL d   1      26.099  -9.937  -6.678  0.00  0.00    -0.144 F 
ENDBRANCH  29  30
ENDBRANCH  26  29
ENDBRANCH  21  23
ENDBRANCH  18  19
ENDBRANCH   1  18
TORSDOF 12
ENDMDL
MODEL 8
REMARK VINA RESULT:   -29.838      5.931      7.468
REMARK INTER + INTRA:         -33.557
REMARK INTER:                 -33.417
REMARK INTRA:                  -0.140
REMARK CONF_INDEPENDENT:        3.580
REMARK UNBOUND:                -0.140
REMARK  12 active torsions:
REMARK  status: ('A' for Active; 'I' for Inactive)
REMARK    1  A    between atoms: C_2  and  C_3 
REMARK    2  A    between atoms: C_3  and  C_4 
REMARK    3  A    between atoms: C_4  and  C_5 
REMARK    4  A    between atoms: N_7  and  N_8 
REMARK    5  A    between atoms: N_8  and  C_9 
REMARK    6  A    between atoms: C_11  and  S_12 
REMARK    7  A    between atoms: S_12  and  C_13 
REMARK    8  A    between atoms: C_13  and  C_14 
REMARK    9  A    between atoms: C_14  and  C_15 
REMARK       I    between atoms: C_15  and  N_17 
REMARK   10  A    between atoms: N_17  and  C_18 
REMARK   11  A    between atoms: C_21  and  O_22 
REMARK   12  A    between atoms: O_22  and  C_23 
ROOT
ATOM      1  C   UNL d   1      26.250 -16.012  -1.399  0.00  0.00     0.092 C 
ENDROOT
BRANCH   1   2
ATOM      2  S   UNL d   1      25.701 -17.068  -0.021  0.00  0.00    -0.087 SA
BRANCH   2   3
ATOM      3  C   UNL d   1      24.135 -17.676  -0.535  0.00  0.00     0.226 A 
ATOM      4  N   UNL d   1      22.972 -16.957  -0.577  0.00  0.00    -0.034 NA
ATOM      5  C   UNL d   1      22.075 -17.824  -1.006  0.00  0.00     0.739 A 
ATOM      6  N   UNL d   1      22.708 -19.017  -1.229  0.00  0.00    -0.103 N 
ATOM      7  N   UNL d   1      24.018 -18.948  -0.938  0.00  0.00    -0.132 NA
ATOM      8  H   UNL d   1      22.334 -19.869  -1.633  0.00  0.00     0.208 HD
BRANCH   5   9
ATOM      9  N   UNL d   1      20.748 -17.680  -1.270  0.00  0.00    -0.106 N 
ATOM     10  H   UNL d   1      20.403 -16.769  -1.566  0.00  0.00     0.208 HD
BRANCH   9  11
ATOM     11  N   UNL d   1      19.878 -18.732  -1.181  0.00  0.00    -0.169 NA
ATOM     12  C   UNL d   1      19.921 -19.523  -0.146  0.00  0.00     0.029 C 
ATOM     13  C   UNL d   1      20.864 -19.313   1.021  0.00  0.00     0.067 C 
BRANCH  12  14
ATOM     14  C   UNL d   1      18.958 -20.718  -0.144  0.00  0.00     0.056 C 
BRANCH  14  15
ATOM     15  C   UNL d   1      18.730 -21.333   1.232  0.00  0.00     0.005 C 
BRANCH  15  16
ATOM     16  C   UNL d   1      18.470 -20.314   2.332  0.00  0.00    -0.004 C 
ATOM     17  C   UNL d   1      19.528 -20.450   3.419  0.00  0.00     0.005 C 
ENDBRANCH  15  16
ENDBRANCH  14  15
ENDBRANCH  12  14
ENDBRANCH   9  11
ENDBRANCH   5   9
ENDBRANCH   2   3
ENDBRANCH   1   2
BRANCH   1  18
ATOM     18  C   UNL d   1      25.053 -15.311  -2.095  0.00  0.00     0.113 C 
BRANCH  18  19
ATOM     19  C   UNL d   1      25.514 -14.656  -3.392  0.00  0.00     0.222 C 
ATOM     20  O   UNL d   1      25.155 -15.121  -4.482  0.00  0.00    -0.273 OA
ATOM     21  N   UNL d   1      26.363 -13.556  -3.278  0.00  0.00    -0.327 N 
ATOM     22  H   UNL d   1      26.811 -13.352  -2.392  0.00  0.00     0.169 HD
BRANCH  21  23
ATOM     23  C   UNL d   1      26.801 -12.837  -4.425  0.00  0.00     0.034 A 
ATOM     24  C   UNL d   1      25.933 -12.064  -5.202  0.00  0.00     0.032 A 
ATOM     25  C   UNL d   1      26.430 -11.349  -6.315  0.00  0.00     0.039 A 
ATOM     26  C   UNL d   1      27.792 -11.386  -6.648  0.00  0.00     0.078 A 
ATOM     27  C   UNL d   1      28.632 -12.205  -5.903  0.00  0.00     0.039 A 
ATOM     28  C   UNL d   1      28.140 -12.915  -4.808  0.00  0.00     0.032 A 
BRANCH  26  29
ATOM     29  O   UNL d   1      28.194 -10.586  -7.684  0.00  0.00    -0.255 OA
BRANCH  29  30
ATOM     30  C   UNL d   1      28.257  -9.185  -7.424  0.00  0.00     0.530 C 
ATOM     31  F   UNL d   1      27.107  -8.561  -7.762  0.00  0.00    -0.144 F 
ATOM     32  F   UNL d   1      28.528  -8.951  -6.121  0.00  0.00    -0.144 F 
ATOM     33  F   UNL d   1      29.253  -8.641  -8.159  0.00  0.00    -0.144 F 
ENDBRANCH  29  30
ENDBRANCH  26  29
ENDBRANCH  21  23
ENDBRANCH  18  19
ENDBRANCH   1  18
TORSDOF 12
ENDMDL
MODEL 9
REMARK VINA RESULT:   -29.127      1.228      1.928
REMARK INTER + INTRA:         -33.583
REMARK INTER:                 -32.706
REMARK INTRA:                  -0.877
REMARK CONF_INDEPENDENT:        3.580
REMARK UNBOUND:                -0.877
REMARK  12 active torsions:
REMARK  status: ('A' for Active; 'I' for Inactive)
REMARK    1  A    between atoms: C_2  and  C_3 
REMARK    2  A    between atoms: C_3  and  C_4 
REMARK    3  A    between atoms: C_4  and  C_5 
REMARK    4  A    between atoms: N_7  and  N_8 
REMARK    5  A    between atoms: N_8  and  C_9 
REMARK    6  A    between atoms: C_11  and  S_12 
REMARK    7  A    between atoms: S_12  and  C_13 
REMARK    8  A    between atoms: C_13  and  C_14 
REMARK    9  A    between atoms: C_14  and  C_15 
REMARK       I    between atoms: C_15  and  N_17 
REMARK   10  A    between atoms: N_17  and  C_18 
REMARK   11  A    between atoms: C_21  and  O_22 
REMARK   12  A    between atoms: O_22  and  C_23 
ROOT
ATOM      1  C   UNL d   1      26.448 -16.598   0.329  0.00  0.00     0.092 C 
ENDROOT
BRANCH   1   2
ATOM      2  S   UNL d   1      25.943 -17.463  -1.191  0.00  0.00    -0.087 SA
BRANCH   2   3
ATOM      3  C   UNL d   1      24.233 -17.788  -0.958  0.00  0.00     0.226 A 
ATOM      4  N   UNL d   1      23.392 -18.351  -1.880  0.00  0.00    -0.034 NA
ATOM      5  C   UNL d   1      22.222 -18.382  -1.271  0.00  0.00     0.739 A 
ATOM      6  N   UNL d   1      22.384 -17.866  -0.012  0.00  0.00    -0.103 N 
ATOM      7  N   UNL d   1      23.652 -17.484   0.210  0.00  0.00    -0.132 NA
ATOM      8  H   UNL d   1      21.710 -17.814   0.744  0.00  0.00     0.208 HD
BRANCH   5   9
ATOM      9  N   UNL d   1      21.014 -18.854  -1.680  0.00  0.00    -0.106 N 
ATOM     10  H   UNL d   1      20.949 -19.317  -2.584  0.00  0.00     0.208 HD
BRANCH   9  11
ATOM     11  N   UNL d   1      19.898 -18.754  -0.895  0.00  0.00    -0.169 NA
ATOM     12  C   UNL d   1      19.786 -19.499   0.169  0.00  0.00     0.029 C 
ATOM     13  C   UNL d   1      20.867 -20.455   0.632  0.00  0.00     0.067 C 
BRANCH  12  14
ATOM     14  C   UNL d   1      18.480 -19.379   0.967  0.00  0.00     0.056 C 
BRANCH  14  15
ATOM     15  C   UNL d   1      18.234 -20.530   1.937  0.00  0.00     0.005 C 
BRANCH  15  16
ATOM     16  C   UNL d   1      17.928 -21.858   1.261  0.00  0.00    -0.004 C 
ATOM     17  C   UNL d   1      17.279 -21.606  -0.094  0.00  0.00     0.005 C 
ENDBRANCH  15  16
ENDBRANCH  14  15
ENDBRANCH  12  14
ENDBRANCH   9  11
ENDBRANCH   5   9
ENDBRANCH   2   3
ENDBRANCH   1   2
BRANCH   1  18
ATOM     18  C   UNL d   1      27.219 -15.288   0.012  0.00  0.00     0.113 C 
BRANCH  18  19
ATOM     19  C   UNL d   1      27.232 -14.381   1.237  0.00  0.00     0.222 C 
ATOM     20  O   UNL d   1      26.455 -13.419   1.304  0.00  0.00    -0.273 OA
ATOM     21  N   UNL d   1      28.165 -14.675   2.232  0.00  0.00    -0.327 N 
ATOM     22  H   UNL d   1      28.924 -15.318   2.039  0.00  0.00     0.169 HD
BRANCH  21  23
ATOM     23  C   UNL d   1      28.217 -13.926   3.441  0.00  0.00     0.034 A 
ATOM     24  C   UNL d   1      28.497 -12.557   3.463  0.00  0.00     0.032 A 
ATOM     25  C   UNL d   1      28.508 -11.859   4.692  0.00  0.00     0.039 A 
ATOM     26  C   UNL d   1      28.223 -12.516   5.898  0.00  0.00     0.078 A 
ATOM     27  C   UNL d   1      28.004 -13.887   5.867  0.00  0.00     0.039 A 
ATOM     28  C   UNL d   1      27.999 -14.577   4.655  0.00  0.00     0.032 A 
BRANCH  26  29
ATOM     29  O   UNL d   1      28.164 -11.737   7.023  0.00  0.00    -0.255 OA
BRANCH  29  30
ATOM     30  C   UNL d   1      28.893 -12.195   8.159  0.00  0.00     0.530 C 
ATOM     31  F   UNL d   1      29.039 -11.222   9.085  0.00  0.00    -0.144 F 
ATOM     32  F   UNL d   1      28.283 -13.262   8.722  0.00  0.00    -0.144 F 
ATOM     33  F   UNL d   1      30.128 -12.582   7.769  0.00  0.00    -0.144 F 
ENDBRANCH  29  30
ENDBRANCH  26  29
ENDBRANCH  21  23
ENDBRANCH  18  19
ENDBRANCH   1  18
TORSDOF 12
ENDMDL
