MODEL 1
REMARK VINA RESULT:    -7.752      0.000      0.000
REMARK INTER + INTRA:         -11.077
REMARK INTER:                  -9.542
REMARK INTRA:                  -1.535
REMARK CONF_INDEPENDENT:        1.790
REMARK UNBOUND:                -1.535
REMARK  6 active torsions:
REMARK  status: ('A' for Active; 'I' for Inactive)
REMARK       I    between atoms: C_2  and  N_3 
REMARK    1  A    between atoms: C_2  and  C_14 
REMARK    2  A    between atoms: N_3  and  C_4 
REMARK    3  A    between atoms: C_4  and  C_5 
REMARK    4  A    between atoms: C_5  and  C_6 
REMARK    5  A    between atoms: C_9  and  O_10 
REMARK    6  A    between atoms: C_11  and  O_12 
ROOT
ATOM      1  C   UNL d   1      24.648 -17.173  -0.503  0.00  0.00    -0.054 A 
ATOM      2  C   UNL d   1      25.385 -16.080  -0.993  0.00  0.00     0.010 A 
ATOM      3  C   UNL d   1      26.784 -16.056  -0.900  0.00  0.00     0.040 A 
ATOM      4  C   UNL d   1      27.446 -17.120  -0.294  0.00  0.00     0.098 A 
ATOM      5  C   UNL d   1      26.721 -18.198   0.203  0.00  0.00     0.099 A 
ATOM      6  C   UNL d   1      25.339 -18.234   0.098  0.00  0.00     0.046 A 
ENDROOT
BRANCH   1   7
ATOM      7  C   UNL d   1      23.138 -17.223  -0.546  0.00  0.00     0.058 C 
BRANCH   7   8
ATOM      8  C   UNL d   1      22.584 -18.522  -1.128  0.00  0.00     0.127 C 
BRANCH   8   9
ATOM      9  N   UNL d   1      21.826 -19.296  -0.168  0.00  0.00    -0.360 N 
ATOM     10  C   UNL d   1      20.592 -19.808  -0.499  0.00  0.00     0.221 C 
ATOM     11  O   UNL d   1      20.064 -19.701  -1.601  0.00  0.00    -0.273 OA
ATOM     12  H   UNL d   1      22.196 -19.457   0.760  0.00  0.00     0.162 HD
BRANCH  10  13
ATOM     13  C   UNL d   1      19.924 -20.559   0.594  0.00  0.00     0.078 A 
ATOM     14  C   UNL d   1      19.010 -19.797   1.532  0.00  0.00     0.015 A 
ATOM     15  C   UNL d   1      18.435 -20.831   0.611  0.00  0.00     0.015 A 
ENDBRANCH  10  13
ENDBRANCH   8   9
ENDBRANCH   7   8
ENDBRANCH   1   7
BRANCH   5  16
ATOM     16  O   UNL d   1      27.344 -19.247   0.818  0.00  0.00    -0.358 OA
ATOM     17  H   UNL d   1      28.291 -19.139   0.611  0.00  0.00     0.217 HD
ENDBRANCH   5  16
BRANCH   4  18
ATOM     18  O   UNL d   1      28.806 -17.146  -0.158  0.00  0.00    -0.358 OA
ATOM     19  H   UNL d   1      29.036 -17.831   0.494  0.00  0.00     0.217 HD
ENDBRANCH   4  18
TORSDOF 6
ENDMDL
MODEL 2
REMARK VINA RESULT:    -7.342      0.819      1.666
REMARK INTER + INTRA:         -10.216
REMARK INTER:                  -9.132
REMARK INTRA:                  -1.085
REMARK CONF_INDEPENDENT:        1.790
REMARK UNBOUND:                -1.085
REMARK  6 active torsions:
REMARK  status: ('A' for Active; 'I' for Inactive)
REMARK       I    between atoms: C_2  and  N_3 
REMARK    1  A    between atoms: C_2  and  C_14 
REMARK    2  A    between atoms: N_3  and  C_4 
REMARK    3  A    between atoms: C_4  and  C_5 
REMARK    4  A    between atoms: C_5  and  C_6 
REMARK    5  A    between atoms: C_9  and  O_10 
REMARK    6  A    between atoms: C_11  and  O_12 
ROOT
ATOM      1  C   UNL d   1      24.362 -17.385  -0.390  0.00  0.00    -0.054 A 
ATOM      2  C   UNL d   1      25.034 -18.200   0.539  0.00  0.00     0.010 A 
ATOM      3  C   UNL d   1      26.435 -18.212   0.605  0.00  0.00     0.040 A 
ATOM      4  C   UNL d   1      27.166 -17.422  -0.277  0.00  0.00     0.098 A 
ATOM      5  C   UNL d   1      26.507 -16.624  -1.207  0.00  0.00     0.099 A 
ATOM      6  C   UNL d   1      25.122 -16.595  -1.264  0.00  0.00     0.046 A 
ENDROOT
BRANCH   1   7
ATOM      7  C   UNL d   1      22.857 -17.371  -0.523  0.00  0.00     0.058 C 
BRANCH   7   8
ATOM      8  C   UNL d   1      22.287 -18.639  -1.157  0.00  0.00     0.127 C 
BRANCH   8   9
ATOM      9  N   UNL d   1      21.600 -19.488  -0.207  0.00  0.00    -0.360 N 
ATOM     10  C   UNL d   1      20.322 -19.932  -0.460  0.00  0.00     0.221 C 
ATOM     11  O   UNL d   1      19.692 -19.700  -1.486  0.00  0.00    -0.273 OA
ATOM     12  H   UNL d   1      22.053 -19.753   0.658  0.00  0.00     0.162 HD
BRANCH  10  13
ATOM     13  C   UNL d   1      19.739 -20.775   0.615  0.00  0.00     0.078 A 
ATOM     14  C   UNL d   1      18.963 -20.089   1.721  0.00  0.00     0.015 A 
ATOM     15  C   UNL d   1      18.249 -20.996   0.766  0.00  0.00     0.015 A 
ENDBRANCH  10  13
ENDBRANCH   8   9
ENDBRANCH   7   8
ENDBRANCH   1   7
BRANCH   5  16
ATOM     16  O   UNL d   1      27.201 -15.853  -2.095  0.00  0.00    -0.358 OA
ATOM     17  H   UNL d   1      28.141 -16.007  -1.889  0.00  0.00     0.217 HD
ENDBRANCH   5  16
BRANCH   4  18
ATOM     18  O   UNL d   1      28.533 -17.404  -0.274  0.00  0.00    -0.358 OA
ATOM     19  H   UNL d   1      28.849 -18.154   0.260  0.00  0.00     0.217 HD
ENDBRANCH   4  18
TORSDOF 6
ENDMDL
MODEL 3
REMARK VINA RESULT:    -6.838      1.942      2.441
REMARK INTER + INTRA:         -10.123
REMARK INTER:                  -8.627
REMARK INTRA:                  -1.495
REMARK CONF_INDEPENDENT:        1.790
REMARK UNBOUND:                -1.495
REMARK  6 active torsions:
REMARK  status: ('A' for Active; 'I' for Inactive)
REMARK       I    between atoms: C_2  and  N_3 
REMARK    1  A    between atoms: C_2  and  C_14 
REMARK    2  A    between atoms: N_3  and  C_4 
REMARK    3  A    between atoms: C_4  and  C_5 
REMARK    4  A    between atoms: C_5  and  C_6 
REMARK    5  A    between atoms: C_9  and  O_10 
REMARK    6  A    between atoms: C_11  and  O_12 
ROOT
ATOM      1  C   UNL d   1      24.877 -17.367  -0.816  0.00  0.00    -0.054 A 
ATOM      2  C   UNL d   1      26.116 -17.073  -0.221  0.00  0.00     0.010 A 
ATOM      3  C   UNL d   1      26.902 -16.008  -0.685  0.00  0.00     0.040 A 
ATOM      4  C   UNL d   1      26.456 -15.249  -1.763  0.00  0.00     0.098 A 
ATOM      5  C   UNL d   1      25.236 -15.544  -2.364  0.00  0.00     0.099 A 
ATOM      6  C   UNL d   1      24.447 -16.584  -1.897  0.00  0.00     0.046 A 
ENDROOT
BRANCH   1   7
ATOM      7  C   UNL d   1      24.016 -18.528  -0.375  0.00  0.00     0.058 C 
BRANCH   7   8
ATOM      8  C   UNL d   1      22.527 -18.327  -0.650  0.00  0.00     0.127 C 
BRANCH   8   9
ATOM      9  N   UNL d   1      21.680 -19.172   0.164  0.00  0.00    -0.360 N 
ATOM     10  C   UNL d   1      20.567 -19.776  -0.374  0.00  0.00     0.221 C 
ATOM     11  O   UNL d   1      20.228 -19.695  -1.550  0.00  0.00    -0.273 OA
ATOM     12  H   UNL d   1      21.898 -19.317   1.142  0.00  0.00     0.162 HD
BRANCH  10  13
ATOM     13  C   UNL d   1      19.784 -20.594   0.588  0.00  0.00     0.078 A 
ATOM     14  C   UNL d   1      18.789 -19.887   1.484  0.00  0.00     0.015 A 
ATOM     15  C   UNL d   1      18.299 -20.839   0.436  0.00  0.00     0.015 A 
ENDBRANCH  10  13
ENDBRANCH   8   9
ENDBRANCH   7   8
ENDBRANCH   1   7
BRANCH   5  16
ATOM     16  O   UNL d   1      24.782 -14.826  -3.433  0.00  0.00    -0.358 OA
ATOM     17  H   UNL d   1      25.488 -14.182  -3.628  0.00  0.00     0.217 HD
ENDBRANCH   5  16
BRANCH   4  18
ATOM     18  O   UNL d   1      27.185 -14.211  -2.272  0.00  0.00    -0.358 OA
ATOM     19  H   UNL d   1      26.606 -13.682  -2.849  0.00  0.00     0.217 HD
ENDBRANCH   4  18
TORSDOF 6
ENDMDL
MODEL 4
REMARK VINA RESULT:    -6.100      2.047      7.001
REMARK INTER + INTRA:          -9.015
REMARK INTER:                  -7.889
REMARK INTRA:                  -1.126
REMARK CONF_INDEPENDENT:        1.790
REMARK UNBOUND:                -1.126
REMARK  6 active torsions:
REMARK  status: ('A' for Active; 'I' for Inactive)
REMARK       I    between atoms: C_2  and  N_3 
REMARK    1  A    between atoms: C_2  and  C_14 
REMARK    2  A    between atoms: N_3  and  C_4 
REMARK    3  A    between atoms: C_4  and  C_5 
REMARK    4  A    between atoms: C_5  and  C_6 
REMARK    5  A    between atoms: C_9  and  O_10 
REMARK    6  A    between atoms: C_11  and  O_12 
ROOT
ATOM      1  C   UNL d   1      20.946 -19.036  -0.479  0.00  0.00    -0.054 A 
ATOM      2  C   UNL d   1      19.790 -19.424  -1.178  0.00  0.00     0.010 A 
ATOM      3  C   UNL d   1      18.734 -20.072  -0.520  0.00  0.00     0.040 A 
ATOM      4  C   UNL d   1      18.847 -20.352   0.839  0.00  0.00     0.098 A 
ATOM      5  C   UNL d   1      19.994 -19.981   1.533  0.00  0.00     0.099 A 
ATOM      6  C   UNL d   1      21.032 -19.325   0.890  0.00  0.00     0.046 A 
ENDROOT
BRANCH   1   7
ATOM      7  C   UNL d   1      22.123 -18.372  -1.155  0.00  0.00     0.058 C 
BRANCH   7   8
ATOM      8  C   UNL d   1      22.536 -17.051  -0.509  0.00  0.00     0.127 C 
BRANCH   8   9
ATOM      9  N   UNL d   1      23.926 -16.717  -0.738  0.00  0.00    -0.360 N 
ATOM     10  C   UNL d   1      24.929 -17.523  -0.251  0.00  0.00     0.221 C 
ATOM     11  O   UNL d   1      24.750 -18.574   0.354  0.00  0.00    -0.273 OA
ATOM     12  H   UNL d   1      24.169 -15.879  -1.251  0.00  0.00     0.162 HD
BRANCH  10  13
ATOM     13  C   UNL d   1      26.304 -17.041  -0.545  0.00  0.00     0.078 A 
ATOM     14  C   UNL d   1      27.162 -16.577   0.614  0.00  0.00     0.015 A 
ATOM     15  C   UNL d   1      27.544 -17.810  -0.147  0.00  0.00     0.015 A 
ENDBRANCH  10  13
ENDBRANCH   8   9
ENDBRANCH   7   8
ENDBRANCH   1   7
BRANCH   5  16
ATOM     16  O   UNL d   1      20.137 -20.259   2.862  0.00  0.00    -0.358 OA
ATOM     17  H   UNL d   1      21.076 -20.499   2.975  0.00  0.00     0.217 HD
ENDBRANCH   5  16
BRANCH   4  18
ATOM     18  O   UNL d   1      17.860 -20.997   1.532  0.00  0.00    -0.358 OA
ATOM     19  H   UNL d   1      18.124 -21.048   2.466  0.00  0.00     0.217 HD
ENDBRANCH   4  18
TORSDOF 6
ENDMDL
MODEL 5
REMARK VINA RESULT:    -5.923      3.346      4.367
REMARK INTER + INTRA:          -9.386
REMARK INTER:                  -7.712
REMARK INTRA:                  -1.674
REMARK CONF_INDEPENDENT:        1.790
REMARK UNBOUND:                -1.674
REMARK  6 active torsions:
REMARK  status: ('A' for Active; 'I' for Inactive)
REMARK       I    between atoms: C_2  and  N_3 
REMARK    1  A    between atoms: C_2  and  C_14 
REMARK    2  A    between atoms: N_3  and  C_4 
REMARK    3  A    between atoms: C_4  and  C_5 
REMARK    4  A    between atoms: C_5  and  C_6 
REMARK    5  A    between atoms: C_9  and  O_10 
REMARK    6  A    between atoms: C_11  and  O_12 
ROOT
ATOM      1  C   UNL d   1      26.246 -15.809  -2.223  0.00  0.00    -0.054 A 
ATOM      2  C   UNL d   1      27.357 -15.203  -2.837  0.00  0.00     0.010 A 
ATOM      3  C   UNL d   1      27.187 -14.187  -3.789  0.00  0.00     0.040 A 
ATOM      4  C   UNL d   1      25.900 -13.794  -4.145  0.00  0.00     0.098 A 
ATOM      5  C   UNL d   1      24.798 -14.400  -3.551  0.00  0.00     0.099 A 
ATOM      6  C   UNL d   1      24.962 -15.391  -2.595  0.00  0.00     0.046 A 
ENDROOT
BRANCH   1   7
ATOM      7  C   UNL d   1      26.382 -16.933  -1.223  0.00  0.00     0.058 C 
BRANCH   7   8
ATOM      8  C   UNL d   1      25.257 -16.972  -0.189  0.00  0.00     0.127 C 
BRANCH   8   9
ATOM      9  N   UNL d   1      24.260 -17.982  -0.473  0.00  0.00    -0.360 N 
ATOM     10  C   UNL d   1      22.945 -17.631  -0.677  0.00  0.00     0.221 C 
ATOM     11  O   UNL d   1      22.522 -16.480  -0.681  0.00  0.00    -0.273 OA
ATOM     12  H   UNL d   1      24.524 -18.958  -0.514  0.00  0.00     0.162 HD
BRANCH  10  13
ATOM     13  C   UNL d   1      22.035 -18.776  -0.935  0.00  0.00     0.078 A 
ATOM     14  C   UNL d   1      21.240 -19.335   0.227  0.00  0.00     0.015 A 
ATOM     15  C   UNL d   1      20.527 -18.649  -0.898  0.00  0.00     0.015 A 
ENDBRANCH  10  13
ENDBRANCH   8   9
ENDBRANCH   7   8
ENDBRANCH   1   7
BRANCH   5  16
ATOM     16  O   UNL d   1      23.524 -14.045  -3.894  0.00  0.00    -0.358 OA
ATOM     17  H   UNL d   1      23.623 -13.430  -4.644  0.00  0.00     0.217 HD
ENDBRANCH   5  16
BRANCH   4  18
ATOM     18  O   UNL d   1      25.669 -12.824  -5.080  0.00  0.00    -0.358 OA
ATOM     19  H   UNL d   1      24.781 -12.457  -4.930  0.00  0.00     0.217 HD
ENDBRANCH   4  18
TORSDOF 6
ENDMDL
MODEL 6
REMARK VINA RESULT:    -5.761      3.374      7.199
REMARK INTER + INTRA:          -9.050
REMARK INTER:                  -7.550
REMARK INTRA:                  -1.500
REMARK CONF_INDEPENDENT:        1.790
REMARK UNBOUND:                -1.500
REMARK  6 active torsions:
REMARK  status: ('A' for Active; 'I' for Inactive)
REMARK       I    between atoms: C_2  and  N_3 
REMARK    1  A    between atoms: C_2  and  C_14 
REMARK    2  A    between atoms: N_3  and  C_4 
REMARK    3  A    between atoms: C_4  and  C_5 
REMARK    4  A    between atoms: C_5  and  C_6 
REMARK    5  A    between atoms: C_9  and  O_10 
REMARK    6  A    between atoms: C_11  and  O_12 
ROOT
ATOM      1  C   UNL d   1      23.993 -17.185  -0.634  0.00  0.00    -0.054 A 
ATOM      2  C   UNL d   1      24.165 -18.556  -0.375  0.00  0.00     0.010 A 
ATOM      3  C   UNL d   1      23.079 -19.442  -0.441  0.00  0.00     0.040 A 
ATOM      4  C   UNL d   1      21.813 -18.948  -0.744  0.00  0.00     0.098 A 
ATOM      5  C   UNL d   1      21.636 -17.590  -0.989  0.00  0.00     0.099 A 
ATOM      6  C   UNL d   1      22.710 -16.714  -0.943  0.00  0.00     0.046 A 
ENDROOT
BRANCH   1   7
ATOM      7  C   UNL d   1      25.126 -16.189  -0.535  0.00  0.00     0.058 C 
BRANCH   7   8
ATOM      8  C   UNL d   1      25.823 -15.920  -1.868  0.00  0.00     0.127 C 
BRANCH   8   9
ATOM      9  N   UNL d   1      25.511 -14.618  -2.419  0.00  0.00    -0.360 N 
ATOM     10  C   UNL d   1      25.420 -14.437  -3.780  0.00  0.00     0.221 C 
ATOM     11  O   UNL d   1      25.543 -15.327  -4.613  0.00  0.00    -0.273 OA
ATOM     12  H   UNL d   1      25.368 -13.828  -1.803  0.00  0.00     0.162 HD
BRANCH  10  13
ATOM     13  C   UNL d   1      25.116 -13.043  -4.196  0.00  0.00     0.078 A 
ATOM     14  C   UNL d   1      25.978 -11.927  -3.641  0.00  0.00     0.015 A 
ATOM     15  C   UNL d   1      26.024 -12.244  -5.105  0.00  0.00     0.015 A 
ENDBRANCH  10  13
ENDBRANCH   8   9
ENDBRANCH   7   8
ENDBRANCH   1   7
BRANCH   5  16
ATOM     16  O   UNL d   1      20.403 -17.077  -1.272  0.00  0.00    -0.358 OA
ATOM     17  H   UNL d   1      19.913 -17.806  -1.697  0.00  0.00     0.217 HD
ENDBRANCH   5  16
BRANCH   4  18
ATOM     18  O   UNL d   1      20.714 -19.758  -0.805  0.00  0.00    -0.358 OA
ATOM     19  H   UNL d   1      19.924 -19.197  -0.900  0.00  0.00     0.217 HD
ENDBRANCH   4  18
TORSDOF 6
ENDMDL
MODEL 7
REMARK VINA RESULT:    -5.431      3.128      7.166
REMARK INTER + INTRA:          -8.744
REMARK INTER:                  -7.221
REMARK INTRA:                  -1.522
REMARK CONF_INDEPENDENT:        1.790
REMARK UNBOUND:                -1.522
REMARK  6 active torsions:
REMARK  status: ('A' for Active; 'I' for Inactive)
REMARK       I    between atoms: C_2  and  N_3 
REMARK    1  A    between atoms: C_2  and  C_14 
REMARK    2  A    between atoms: N_3  and  C_4 
REMARK    3  A    between atoms: C_4  and  C_5 
REMARK    4  A    between atoms: C_5  and  C_6 
REMARK    5  A    between atoms: C_9  and  O_10 
REMARK    6  A    between atoms: C_11  and  O_12 
ROOT
ATOM      1  C   UNL d   1      24.453 -18.080  -0.180  0.00  0.00    -0.054 A 
ATOM      2  C   UNL d   1      23.647 -19.232  -0.150  0.00  0.00     0.010 A 
ATOM      3  C   UNL d   1      22.292 -19.172  -0.507  0.00  0.00     0.040 A 
ATOM      4  C   UNL d   1      21.737 -17.950  -0.874  0.00  0.00     0.098 A 
ATOM      5  C   UNL d   1      22.527 -16.805  -0.894  0.00  0.00     0.099 A 
ATOM      6  C   UNL d   1      23.871 -16.863  -0.559  0.00  0.00     0.046 A 
ENDROOT
BRANCH   1   7
ATOM      7  C   UNL d   1      25.906 -18.091   0.235  0.00  0.00     0.058 C 
BRANCH   7   8
ATOM      8  C   UNL d   1      26.683 -16.857  -0.222  0.00  0.00     0.127 C 
BRANCH   8   9
ATOM      9  N   UNL d   1      27.481 -16.267   0.831  0.00  0.00    -0.360 N 
ATOM     10  C   UNL d   1      27.371 -14.928   1.127  0.00  0.00     0.221 C 
ATOM     11  O   UNL d   1      26.591 -14.154   0.583  0.00  0.00    -0.273 OA
ATOM     12  H   UNL d   1      28.134 -16.837   1.353  0.00  0.00     0.162 HD
BRANCH  10  13
ATOM     13  C   UNL d   1      28.269 -14.462   2.216  0.00  0.00     0.078 A 
ATOM     14  C   UNL d   1      28.053 -13.071   2.775  0.00  0.00     0.015 A 
ATOM     15  C   UNL d   1      27.796 -14.267   3.640  0.00  0.00     0.015 A 
ENDBRANCH  10  13
ENDBRANCH   8   9
ENDBRANCH   7   8
ENDBRANCH   1   7
BRANCH   5  16
ATOM     16  O   UNL d   1      22.003 -15.590  -1.234  0.00  0.00    -0.358 OA
ATOM     17  H   UNL d   1      21.129 -15.786  -1.619  0.00  0.00     0.217 HD
ENDBRANCH   5  16
BRANCH   4  18
ATOM     18  O   UNL d   1      20.419 -17.824  -1.216  0.00  0.00    -0.358 OA
ATOM     19  H   UNL d   1      20.294 -16.960  -1.645  0.00  0.00     0.217 HD
ENDBRANCH   4  18
TORSDOF 6
ENDMDL
MODEL 8
REMARK VINA RESULT:    -5.026      2.946      6.575
REMARK INTER + INTRA:          -8.657
REMARK INTER:                  -6.816
REMARK INTRA:                  -1.841
REMARK CONF_INDEPENDENT:        1.790
REMARK UNBOUND:                -1.841
REMARK  6 active torsions:
REMARK  status: ('A' for Active; 'I' for Inactive)
REMARK       I    between atoms: C_2  and  N_3 
REMARK    1  A    between atoms: C_2  and  C_14 
REMARK    2  A    between atoms: N_3  and  C_4 
REMARK    3  A    between atoms: C_4  and  C_5 
REMARK    4  A    between atoms: C_5  and  C_6 
REMARK    5  A    between atoms: C_9  and  O_10 
REMARK    6  A    between atoms: C_11  and  O_12 
ROOT
ATOM      1  C   UNL d   1      24.462 -17.917  -0.184  0.00  0.00    -0.054 A 
ATOM      2  C   UNL d   1      23.993 -16.592  -0.202  0.00  0.00     0.010 A 
ATOM      3  C   UNL d   1      22.665 -16.303  -0.550  0.00  0.00     0.040 A 
ATOM      4  C   UNL d   1      21.811 -17.343  -0.904  0.00  0.00     0.098 A 
ATOM      5  C   UNL d   1      22.273 -18.655  -0.900  0.00  0.00     0.099 A 
ATOM      6  C   UNL d   1      23.580 -18.947  -0.539  0.00  0.00     0.046 A 
ENDROOT
BRANCH   1   7
ATOM      7  C   UNL d   1      25.894 -18.271   0.145  0.00  0.00     0.058 C 
BRANCH   7   8
ATOM      8  C   UNL d   1      26.856 -17.088   0.043  0.00  0.00     0.127 C 
BRANCH   8   9
ATOM      9  N   UNL d   1      26.865 -16.477  -1.269  0.00  0.00    -0.360 N 
ATOM     10  C   UNL d   1      26.686 -15.120  -1.412  0.00  0.00     0.221 C 
ATOM     11  O   UNL d   1      26.553 -14.332  -0.482  0.00  0.00    -0.273 OA
ATOM     12  H   UNL d   1      26.995 -17.048  -2.095  0.00  0.00     0.162 HD
BRANCH  10  13
ATOM     13  C   UNL d   1      26.698 -14.641  -2.818  0.00  0.00     0.078 A 
ATOM     14  C   UNL d   1      25.532 -15.015  -3.711  0.00  0.00     0.015 A 
ATOM     15  C   UNL d   1      25.747 -13.581  -3.331  0.00  0.00     0.015 A 
ENDBRANCH  10  13
ENDBRANCH   8   9
ENDBRANCH   7   8
ENDBRANCH   1   7
BRANCH   5  16
ATOM     16  O   UNL d   1      21.461 -19.693  -1.260  0.00  0.00    -0.358 OA
ATOM     17  H   UNL d   1      20.663 -19.276  -1.633  0.00  0.00     0.217 HD
ENDBRANCH   5  16
BRANCH   4  18
ATOM     18  O   UNL d   1      20.512 -17.124  -1.270  0.00  0.00    -0.358 OA
ATOM     19  H   UNL d   1      20.087 -17.985  -1.426  0.00  0.00     0.217 HD
ENDBRANCH   4  18
TORSDOF 6
ENDMDL
MODEL 9
REMARK VINA RESULT:    -4.928      4.274      7.107
REMARK INTER + INTRA:          -8.433
REMARK INTER:                  -6.718
REMARK INTRA:                  -1.715
REMARK CONF_INDEPENDENT:        1.790
REMARK UNBOUND:                -1.715
REMARK  6 active torsions:
REMARK  status: ('A' for Active; 'I' for Inactive)
REMARK       I    between atoms: C_2  and  N_3 
REMARK    1  A    between atoms: C_2  and  C_14 
REMARK    2  A    between atoms: N_3  and  C_4 
REMARK    3  A    between atoms: C_4  and  C_5 
REMARK    4  A    between atoms: C_5  and  C_6 
REMARK    5  A    between atoms: C_9  and  O_10 
REMARK    6  A    between atoms: C_11  and  O_12 
ROOT
ATOM      1  C   UNL d   1      25.690 -16.108  -1.248  0.00  0.00    -0.054 A 
ATOM      2  C   UNL d   1      24.864 -17.121  -0.728  0.00  0.00     0.010 A 
ATOM      3  C   UNL d   1      25.412 -18.212  -0.036  0.00  0.00     0.040 A 
ATOM      4  C   UNL d   1      26.793 -18.300   0.114  0.00  0.00     0.098 A 
ATOM      5  C   UNL d   1      27.615 -17.307  -0.409  0.00  0.00     0.099 A 
ATOM      6  C   UNL d   1      27.076 -16.218  -1.077  0.00  0.00     0.046 A 
ENDROOT
BRANCH   1   7
ATOM      7  C   UNL d   1      25.146 -14.937  -2.033  0.00  0.00     0.058 C 
BRANCH   7   8
ATOM      8  C   UNL d   1      25.531 -14.960  -3.511  0.00  0.00     0.127 C 
BRANCH   8   9
ATOM      9  N   UNL d   1      26.960 -14.878  -3.727  0.00  0.00    -0.360 N 
ATOM     10  C   UNL d   1      27.504 -15.205  -4.948  0.00  0.00     0.221 C 
ATOM     11  O   UNL d   1      26.857 -15.537  -5.935  0.00  0.00    -0.273 OA
ATOM     12  H   UNL d   1      27.571 -14.587  -2.974  0.00  0.00     0.162 HD
BRANCH  10  13
ATOM     13  C   UNL d   1      28.985 -15.094  -5.011  0.00  0.00     0.078 A 
ATOM     14  C   UNL d   1      29.812 -16.138  -4.290  0.00  0.00     0.015 A 
ATOM     15  C   UNL d   1      29.846 -16.067  -5.787  0.00  0.00     0.015 A 
ENDBRANCH  10  13
ENDBRANCH   8   9
ENDBRANCH   7   8
ENDBRANCH   1   7
BRANCH   5  16
ATOM     16  O   UNL d   1      28.973 -17.378  -0.290  0.00  0.00    -0.358 OA
ATOM     17  H   UNL d   1      29.137 -18.071   0.377  0.00  0.00     0.217 HD
ENDBRANCH   5  16
BRANCH   4  18
ATOM     18  O   UNL d   1      27.387 -19.347   0.762  0.00  0.00    -0.358 OA
ATOM     19  H   UNL d   1      28.348 -19.290   0.620  0.00  0.00     0.217 HD
ENDBRANCH   4  18
TORSDOF 6
ENDMDL
