MODEL 1
REMARK VINA RESULT:    -8.290      0.000      0.000
REMARK INTER + INTRA:          -9.952
REMARK INTER:                  -9.484
REMARK INTRA:                  -0.469
REMARK CONF_INDEPENDENT:        1.193
REMARK UNBOUND:                -0.469
REMARK  4 active torsions:
REMARK  status: ('A' for Active; 'I' for Inactive)
REMARK    1  A    between atoms: C_5  and  C_6 
REMARK       I    between atoms: C_6  and  N_7 
REMARK    2  A    between atoms: C_10  and  N_11 
REMARK       I    between atoms: N_11  and  C_12 
REMARK    3  A    between atoms: C_12  and  C_14 
REMARK    4  A    between atoms: C_15  and  C_16 
ROOT
ATOM      1  N   UNL d   1      24.911 -16.909  -1.080  0.00  0.00    -0.323 N 
ATOM      2  C   UNL d   1      23.651 -16.345  -1.245  0.00  0.00     0.245 C 
ATOM      3  O   UNL d   1      23.321 -15.401  -1.955  0.00  0.00    -0.268 OA
ATOM      4  H   UNL d   1      24.984 -17.704  -0.455  0.00  0.00     0.169 HD
ENDROOT
BRANCH   1   5
ATOM      5  C   UNL d   1      26.158 -16.496  -1.712  0.00  0.00     0.042 A 
ATOM      6  C   UNL d   1      26.122 -15.837  -2.974  0.00  0.00     0.047 A 
ATOM      7  C   UNL d   1      27.317 -15.406  -3.630  0.00  0.00     0.034 A 
ATOM      8  C   UNL d   1      28.550 -15.644  -3.031  0.00  0.00     0.017 A 
ATOM      9  C   UNL d   1      28.604 -16.280  -1.814  0.00  0.00     0.010 A 
ATOM     10  C   UNL d   1      27.441 -16.699  -1.155  0.00  0.00    -0.035 A 
ATOM     11  C   UNL d   1      27.737 -17.350   0.151  0.00  0.00     0.050 C 
BRANCH   7  12
ATOM     12  C   UNL d   1      27.277 -14.691  -4.948  0.00  0.00     0.249 C 
ATOM     13  N   UNL d   1      26.707 -13.438  -5.002  0.00  0.00    -0.366 N 
ATOM     14  H   UNL d   1      26.300 -12.936  -4.228  0.00  0.00     0.159 HD
ATOM     15  H   UNL d   1      26.679 -12.969  -5.898  0.00  0.00     0.159 HD
ATOM     16  O   UNL d   1      27.732 -15.200  -5.965  0.00  0.00    -0.268 OA
ENDBRANCH   7  12
ENDBRANCH   1   5
BRANCH   2  17
ATOM     17  C   UNL d   1      22.502 -16.899  -0.507  0.00  0.00     0.075 C 
ATOM     18  C   UNL d   1      22.146 -18.164  -0.850  0.00  0.00     0.017 C 
BRANCH  18  19
ATOM     19  C   UNL d   1      21.054 -18.942  -0.273  0.00  0.00    -0.036 A 
ATOM     20  C   UNL d   1      21.045 -19.321   1.081  0.00  0.00     0.013 A 
ATOM     21  C   UNL d   1      19.982 -20.083   1.581  0.00  0.00     0.024 A 
ATOM     22  C   UNL d   1      18.943 -20.458   0.731  0.00  0.00     0.034 A 
ATOM     23 CL   UNL d   1      17.637 -21.409   1.313  0.00  0.00    -0.084 Cl
ATOM     24  C   UNL d   1      18.948 -20.076  -0.604  0.00  0.00     0.024 A 
ATOM     25  C   UNL d   1      19.999 -19.325  -1.096  0.00  0.00     0.013 A 
ENDBRANCH  18  19
ENDBRANCH   2  17
TORSDOF 4
ENDMDL
MODEL 2
REMARK VINA RESULT:    -7.960      4.589      9.005
REMARK INTER + INTRA:          -9.653
REMARK INTER:                  -9.153
REMARK INTRA:                  -0.500
REMARK CONF_INDEPENDENT:        1.193
REMARK UNBOUND:                -0.500
REMARK  4 active torsions:
REMARK  status: ('A' for Active; 'I' for Inactive)
REMARK    1  A    between atoms: C_5  and  C_6 
REMARK       I    between atoms: C_6  and  N_7 
REMARK    2  A    between atoms: C_10  and  N_11 
REMARK       I    between atoms: N_11  and  C_12 
REMARK    3  A    between atoms: C_12  and  C_14 
REMARK    4  A    between atoms: C_15  and  C_16 
ROOT
ATOM      1  N   UNL d   1      25.757 -16.024  -2.602  0.00  0.00    -0.323 N 
ATOM      2  C   UNL d   1      25.155 -14.932  -3.218  0.00  0.00     0.245 C 
ATOM      3  O   UNL d   1      24.046 -14.451  -3.010  0.00  0.00    -0.268 OA
ATOM      4  H   UNL d   1      26.697 -16.264  -2.901  0.00  0.00     0.169 HD
ENDROOT
BRANCH   1   5
ATOM      5  C   UNL d   1      25.199 -16.875  -1.559  0.00  0.00     0.042 A 
ATOM      6  C   UNL d   1      23.824 -17.243  -1.613  0.00  0.00     0.047 A 
ATOM      7  C   UNL d   1      23.232 -18.083  -0.619  0.00  0.00     0.034 A 
ATOM      8  C   UNL d   1      24.010 -18.544   0.437  0.00  0.00     0.017 A 
ATOM      9  C   UNL d   1      25.338 -18.198   0.507  0.00  0.00     0.010 A 
ATOM     10  C   UNL d   1      25.934 -17.385  -0.465  0.00  0.00    -0.035 A 
ATOM     11  C   UNL d   1      27.380 -17.153  -0.196  0.00  0.00     0.050 C 
BRANCH   7  12
ATOM     12  C   UNL d   1      21.789 -18.489  -0.690  0.00  0.00     0.249 C 
ATOM     13  N   UNL d   1      21.406 -19.668  -0.089  0.00  0.00    -0.366 N 
ATOM     14  H   UNL d   1      22.009 -20.307   0.405  0.00  0.00     0.159 HD
ATOM     15  H   UNL d   1      20.432 -19.935  -0.150  0.00  0.00     0.159 HD
ATOM     16  O   UNL d   1      20.959 -17.800  -1.270  0.00  0.00    -0.268 OA
ENDBRANCH   7  12
ENDBRANCH   1   5
BRANCH   2  17
ATOM     17  C   UNL d   1      25.880 -14.196  -4.268  0.00  0.00     0.075 C 
ATOM     18  C   UNL d   1      27.038 -14.770  -4.687  0.00  0.00     0.017 C 
BRANCH  18  19
ATOM     19  C   UNL d   1      27.938 -14.252  -5.713  0.00  0.00    -0.036 A 
ATOM     20  C   UNL d   1      28.982 -15.028  -6.247  0.00  0.00     0.013 A 
ATOM     21  C   UNL d   1      29.829 -14.478  -7.216  0.00  0.00     0.024 A 
ATOM     22  C   UNL d   1      29.628 -13.166  -7.642  0.00  0.00     0.034 A 
ATOM     23 CL   UNL d   1      30.664 -12.459  -8.816  0.00  0.00    -0.084 Cl
ATOM     24  C   UNL d   1      28.592 -12.403  -7.122  0.00  0.00     0.024 A 
ATOM     25  C   UNL d   1      27.757 -12.948  -6.164  0.00  0.00     0.013 A 
ENDBRANCH  18  19
ENDBRANCH   2  17
TORSDOF 4
ENDMDL
MODEL 3
REMARK VINA RESULT:    -7.885      5.010      8.785
REMARK INTER + INTRA:          -9.582
REMARK INTER:                  -9.078
REMARK INTRA:                  -0.504
REMARK CONF_INDEPENDENT:        1.193
REMARK UNBOUND:                -0.504
REMARK  4 active torsions:
REMARK  status: ('A' for Active; 'I' for Inactive)
REMARK    1  A    between atoms: C_5  and  C_6 
REMARK       I    between atoms: C_6  and  N_7 
REMARK    2  A    between atoms: C_10  and  N_11 
REMARK       I    between atoms: N_11  and  C_12 
REMARK    3  A    between atoms: C_12  and  C_14 
REMARK    4  A    between atoms: C_15  and  C_16 
ROOT
ATOM      1  N   UNL d   1      25.541 -15.142  -2.097  0.00  0.00    -0.323 N 
ATOM      2  C   UNL d   1      25.708 -15.074  -3.476  0.00  0.00     0.245 C 
ATOM      3  O   UNL d   1      25.530 -15.953  -4.313  0.00  0.00    -0.268 OA
ATOM      4  H   UNL d   1      25.723 -14.297  -1.566  0.00  0.00     0.169 HD
ENDROOT
BRANCH   1   5
ATOM      5  C   UNL d   1      25.123 -16.295  -1.309  0.00  0.00     0.042 A 
ATOM      6  C   UNL d   1      23.749 -16.673  -1.290  0.00  0.00     0.047 A 
ATOM      7  C   UNL d   1      23.291 -17.799  -0.540  0.00  0.00     0.034 A 
ATOM      8  C   UNL d   1      24.203 -18.542   0.204  0.00  0.00     0.017 A 
ATOM      9  C   UNL d   1      25.531 -18.191   0.200  0.00  0.00     0.010 A 
ATOM     10  C   UNL d   1      25.996 -17.097  -0.539  0.00  0.00    -0.035 A 
ATOM     11  C   UNL d   1      27.468 -16.912  -0.408  0.00  0.00     0.050 C 
BRANCH   7  12
ATOM     12  C   UNL d   1      21.848 -18.211  -0.540  0.00  0.00     0.249 C 
ATOM     13  N   UNL d   1      21.517 -19.453  -0.046  0.00  0.00    -0.366 N 
ATOM     14  H   UNL d   1      22.159 -20.137   0.325  0.00  0.00     0.159 HD
ATOM     15  H   UNL d   1      20.541 -19.722  -0.057  0.00  0.00     0.159 HD
ATOM     16  O   UNL d   1      20.973 -17.471  -0.972  0.00  0.00    -0.268 OA
ENDBRANCH   7  12
ENDBRANCH   1   5
BRANCH   2  17
ATOM     17  C   UNL d   1      26.151 -13.813  -4.095  0.00  0.00     0.075 C 
ATOM     18  C   UNL d   1      25.402 -12.721  -3.790  0.00  0.00     0.017 C 
BRANCH  18  19
ATOM     19  C   UNL d   1      25.626 -11.359  -4.264  0.00  0.00    -0.036 A 
ATOM     20  C   UNL d   1      25.562 -10.250  -3.401  0.00  0.00     0.013 A 
ATOM     21  C   UNL d   1      25.767  -8.962  -3.910  0.00  0.00     0.024 A 
ATOM     22  C   UNL d   1      26.033  -8.792  -5.268  0.00  0.00     0.034 A 
ATOM     23 CL   UNL d   1      26.269  -7.222  -5.922  0.00  0.00    -0.084 Cl
ATOM     24  C   UNL d   1      26.105  -9.887  -6.118  0.00  0.00     0.024 A 
ATOM     25  C   UNL d   1      25.901 -11.158  -5.614  0.00  0.00     0.013 A 
ENDBRANCH  18  19
ENDBRANCH   2  17
TORSDOF 4
ENDMDL
MODEL 4
REMARK VINA RESULT:    -7.679      2.115      2.984
REMARK INTER + INTRA:          -9.322
REMARK INTER:                  -8.872
REMARK INTRA:                  -0.450
REMARK CONF_INDEPENDENT:        1.193
REMARK UNBOUND:                -0.450
REMARK  4 active torsions:
REMARK  status: ('A' for Active; 'I' for Inactive)
REMARK    1  A    between atoms: C_5  and  C_6 
REMARK       I    between atoms: C_6  and  N_7 
REMARK    2  A    between atoms: C_10  and  N_11 
REMARK       I    between atoms: N_11  and  C_12 
REMARK    3  A    between atoms: C_12  and  C_14 
REMARK    4  A    between atoms: C_15  and  C_16 
ROOT
ATOM      1  N   UNL d   1      25.241 -16.733  -2.188  0.00  0.00    -0.323 N 
ATOM      2  C   UNL d   1      24.782 -17.379  -1.046  0.00  0.00     0.245 C 
ATOM      3  O   UNL d   1      25.248 -17.354   0.088  0.00  0.00    -0.268 OA
ATOM      4  H   UNL d   1      24.707 -16.863  -3.040  0.00  0.00     0.169 HD
ENDROOT
BRANCH   1   5
ATOM      5  C   UNL d   1      26.410 -15.870  -2.312  0.00  0.00     0.042 A 
ATOM      6  C   UNL d   1      27.495 -16.023  -1.402  0.00  0.00     0.047 A 
ATOM      7  C   UNL d   1      28.666 -15.207  -1.487  0.00  0.00     0.034 A 
ATOM      8  C   UNL d   1      28.748 -14.230  -2.474  0.00  0.00     0.017 A 
ATOM      9  C   UNL d   1      27.710 -14.067  -3.359  0.00  0.00     0.010 A 
ATOM     10  C   UNL d   1      26.561 -14.865  -3.294  0.00  0.00    -0.035 A 
ATOM     11  C   UNL d   1      25.576 -14.524  -4.357  0.00  0.00     0.050 C 
BRANCH   7  12
ATOM     12  C   UNL d   1      29.819 -15.384  -0.543  0.00  0.00     0.249 C 
ATOM     13  N   UNL d   1      29.574 -15.914   0.705  0.00  0.00    -0.366 N 
ATOM     14  H   UNL d   1      28.676 -16.202   1.063  0.00  0.00     0.159 HD
ATOM     15  H   UNL d   1      30.358 -16.022   1.335  0.00  0.00     0.159 HD
ATOM     16  O   UNL d   1      30.958 -15.065  -0.859  0.00  0.00    -0.268 OA
ENDBRANCH   7  12
ENDBRANCH   1   5
BRANCH   2  17
ATOM     17  C   UNL d   1      23.578 -18.224  -1.120  0.00  0.00     0.075 C 
ATOM     18  C   UNL d   1      22.755 -18.161  -0.041  0.00  0.00     0.017 C 
BRANCH  18  19
ATOM     19  C   UNL d   1      21.503 -18.890   0.136  0.00  0.00    -0.036 A 
ATOM     20  C   UNL d   1      21.031 -19.261   1.407  0.00  0.00     0.013 A 
ATOM     21  C   UNL d   1      19.832 -19.975   1.522  0.00  0.00     0.024 A 
ATOM     22  C   UNL d   1      19.118 -20.311   0.372  0.00  0.00     0.034 A 
ATOM     23 CL   UNL d   1      17.654 -21.203   0.481  0.00  0.00    -0.084 Cl
ATOM     24  C   UNL d   1      19.579 -19.936  -0.882  0.00  0.00     0.024 A 
ATOM     25  C   UNL d   1      20.764 -19.232  -0.993  0.00  0.00     0.013 A 
ENDBRANCH  18  19
ENDBRANCH   2  17
TORSDOF 4
ENDMDL
MODEL 5
REMARK VINA RESULT:    -7.489      6.056      8.299
REMARK INTER + INTRA:          -9.160
REMARK INTER:                  -8.682
REMARK INTRA:                  -0.478
REMARK CONF_INDEPENDENT:        1.193
REMARK UNBOUND:                -0.478
REMARK  4 active torsions:
REMARK  status: ('A' for Active; 'I' for Inactive)
REMARK    1  A    between atoms: C_5  and  C_6 
REMARK       I    between atoms: C_6  and  N_7 
REMARK    2  A    between atoms: C_10  and  N_11 
REMARK       I    between atoms: N_11  and  C_12 
REMARK    3  A    between atoms: C_12  and  C_14 
REMARK    4  A    between atoms: C_15  and  C_16 
ROOT
ATOM      1  N   UNL d   1      27.278 -14.850   0.960  0.00  0.00    -0.323 N 
ATOM      2  C   UNL d   1      27.024 -13.667   1.645  0.00  0.00     0.245 C 
ATOM      3  O   UNL d   1      26.148 -12.835   1.438  0.00  0.00    -0.268 OA
ATOM      4  H   UNL d   1      28.046 -15.423   1.294  0.00  0.00     0.169 HD
ENDROOT
BRANCH   1   5
ATOM      5  C   UNL d   1      26.561 -15.380  -0.193  0.00  0.00     0.042 A 
ATOM      6  C   UNL d   1      26.190 -14.504  -1.253  0.00  0.00     0.047 A 
ATOM      7  C   UNL d   1      25.494 -14.977  -2.409  0.00  0.00     0.034 A 
ATOM      8  C   UNL d   1      25.156 -16.324  -2.500  0.00  0.00     0.017 A 
ATOM      9  C   UNL d   1      25.504 -17.183  -1.485  0.00  0.00     0.010 A 
ATOM     10  C   UNL d   1      26.195 -16.736  -0.353  0.00  0.00    -0.035 A 
ATOM     11  C   UNL d   1      26.479 -17.839   0.606  0.00  0.00     0.050 C 
BRANCH   7  12
ATOM     12  C   UNL d   1      25.124 -14.058  -3.536  0.00  0.00     0.249 C 
ATOM     13  N   UNL d   1      25.155 -12.699  -3.315  0.00  0.00    -0.366 N 
ATOM     14  H   UNL d   1      25.404 -12.241  -2.452  0.00  0.00     0.159 HD
ATOM     15  H   UNL d   1      24.897 -12.089  -4.081  0.00  0.00     0.159 HD
ATOM     16  O   UNL d   1      24.795 -14.493  -4.632  0.00  0.00    -0.268 OA
ENDBRANCH   7  12
ENDBRANCH   1   5
BRANCH   2  17
ATOM     17  C   UNL d   1      27.871 -13.292   2.791  0.00  0.00     0.075 C 
ATOM     18  C   UNL d   1      27.384 -13.636   4.012  0.00  0.00     0.017 C 
BRANCH  18  19
ATOM     19  C   UNL d   1      28.025 -13.386   5.299  0.00  0.00    -0.036 A 
ATOM     20  C   UNL d   1      28.814 -14.358   5.939  0.00  0.00     0.013 A 
ATOM     21  C   UNL d   1      29.391 -14.076   7.183  0.00  0.00     0.024 A 
ATOM     22  C   UNL d   1      29.177 -12.831   7.774  0.00  0.00     0.034 A 
ATOM     23 CL   UNL d   1      29.858 -12.464   9.308  0.00  0.00    -0.084 Cl
ATOM     24  C   UNL d   1      28.406 -11.868   7.139  0.00  0.00     0.024 A 
ATOM     25  C   UNL d   1      27.836 -12.150   5.911  0.00  0.00     0.013 A 
ENDBRANCH  18  19
ENDBRANCH   2  17
TORSDOF 4
ENDMDL
MODEL 6
REMARK VINA RESULT:    -7.429      6.006      8.331
REMARK INTER + INTRA:          -9.096
REMARK INTER:                  -8.622
REMARK INTRA:                  -0.474
REMARK CONF_INDEPENDENT:        1.193
REMARK UNBOUND:                -0.474
REMARK  4 active torsions:
REMARK  status: ('A' for Active; 'I' for Inactive)
REMARK    1  A    between atoms: C_5  and  C_6 
REMARK       I    between atoms: C_6  and  N_7 
REMARK    2  A    between atoms: C_10  and  N_11 
REMARK       I    between atoms: N_11  and  C_12 
REMARK    3  A    between atoms: C_12  and  C_14 
REMARK    4  A    between atoms: C_15  and  C_16 
ROOT
ATOM      1  N   UNL d   1      27.357 -15.257   1.040  0.00  0.00    -0.323 N 
ATOM      2  C   UNL d   1      27.186 -14.069   1.741  0.00  0.00     0.245 C 
ATOM      3  O   UNL d   1      26.357 -13.184   1.557  0.00  0.00    -0.268 OA
ATOM      4  H   UNL d   1      28.095 -15.878   1.355  0.00  0.00     0.169 HD
ENDROOT
BRANCH   1   5
ATOM      5  C   UNL d   1      26.590 -15.732  -0.104  0.00  0.00     0.042 A 
ATOM      6  C   UNL d   1      26.280 -14.834  -1.165  0.00  0.00     0.047 A 
ATOM      7  C   UNL d   1      25.538 -15.254  -2.312  0.00  0.00     0.034 A 
ATOM      8  C   UNL d   1      25.092 -16.569  -2.394  0.00  0.00     0.017 A 
ATOM      9  C   UNL d   1      25.379 -17.450  -1.378  0.00  0.00     0.010 A 
ATOM     10  C   UNL d   1      26.114 -17.055  -0.254  0.00  0.00    -0.035 A 
ATOM     11  C   UNL d   1      26.317 -18.174   0.708  0.00  0.00     0.050 C 
BRANCH   7  12
ATOM     12  C   UNL d   1      25.233 -14.312  -3.440  0.00  0.00     0.249 C 
ATOM     13  N   UNL d   1      25.155 -12.964  -3.170  0.00  0.00    -0.366 N 
ATOM     14  H   UNL d   1      25.281 -12.529  -2.269  0.00  0.00     0.159 HD
ATOM     15  H   UNL d   1      24.941 -12.340  -3.938  0.00  0.00     0.159 HD
ATOM     16  O   UNL d   1      25.051 -14.720  -4.580  0.00  0.00    -0.268 OA
ENDBRANCH   7  12
ENDBRANCH   1   5
BRANCH   2  17
ATOM     17  C   UNL d   1      28.075 -13.756   2.874  0.00  0.00     0.075 C 
ATOM     18  C   UNL d   1      27.509 -13.867   4.104  0.00  0.00     0.017 C 
BRANCH  18  19
ATOM     19  C   UNL d   1      28.167 -13.621   5.384  0.00  0.00    -0.036 A 
ATOM     20  C   UNL d   1      27.780 -12.566   6.229  0.00  0.00     0.013 A 
ATOM     21  C   UNL d   1      28.455 -12.361   7.438  0.00  0.00     0.024 A 
ATOM     22  C   UNL d   1      29.507 -13.206   7.791  0.00  0.00     0.034 A 
ATOM     23 CL   UNL d   1      30.366 -12.966   9.259  0.00  0.00    -0.084 Cl
ATOM     24  C   UNL d   1      29.883 -14.253   6.961  0.00  0.00     0.024 A 
ATOM     25  C   UNL d   1      29.215 -14.453   5.767  0.00  0.00     0.013 A 
ENDBRANCH  18  19
ENDBRANCH   2  17
TORSDOF 4
ENDMDL
MODEL 7
REMARK VINA RESULT:    -7.128      5.896      8.704
REMARK INTER + INTRA:          -8.783
REMARK INTER:                  -8.321
REMARK INTRA:                  -0.462
REMARK CONF_INDEPENDENT:        1.193
REMARK UNBOUND:                -0.462
REMARK  4 active torsions:
REMARK  status: ('A' for Active; 'I' for Inactive)
REMARK    1  A    between atoms: C_5  and  C_6 
REMARK       I    between atoms: C_6  and  N_7 
REMARK    2  A    between atoms: C_10  and  N_11 
REMARK       I    between atoms: N_11  and  C_12 
REMARK    3  A    between atoms: C_12  and  C_14 
REMARK    4  A    between atoms: C_15  and  C_16 
ROOT
ATOM      1  N   UNL d   1      27.308 -15.699   0.984  0.00  0.00    -0.323 N 
ATOM      2  C   UNL d   1      27.356 -14.472   1.636  0.00  0.00     0.245 C 
ATOM      3  O   UNL d   1      26.733 -13.446   1.386  0.00  0.00    -0.268 OA
ATOM      4  H   UNL d   1      27.893 -16.442   1.351  0.00  0.00     0.169 HD
ENDROOT
BRANCH   1   5
ATOM      5  C   UNL d   1      26.502 -16.056  -0.177  0.00  0.00     0.042 A 
ATOM      6  C   UNL d   1      25.506 -17.067  -0.057  0.00  0.00     0.047 A 
ATOM      7  C   UNL d   1      24.685 -17.447  -1.163  0.00  0.00     0.034 A 
ATOM      8  C   UNL d   1      24.868 -16.827  -2.395  0.00  0.00     0.017 A 
ATOM      9  C   UNL d   1      25.825 -15.851  -2.530  0.00  0.00     0.010 A 
ATOM     10  C   UNL d   1      26.630 -15.461  -1.453  0.00  0.00    -0.035 A 
ATOM     11  C   UNL d   1      27.585 -14.381  -1.824  0.00  0.00     0.050 C 
BRANCH   7  12
ATOM     12  C   UNL d   1      23.619 -18.495  -1.029  0.00  0.00     0.249 C 
ATOM     13  N   UNL d   1      23.298 -18.951   0.230  0.00  0.00    -0.366 N 
ATOM     14  H   UNL d   1      23.715 -18.649   1.097  0.00  0.00     0.159 HD
ATOM     15  H   UNL d   1      22.583 -19.663   0.307  0.00  0.00     0.159 HD
ATOM     16  O   UNL d   1      23.043 -18.949  -2.010  0.00  0.00    -0.268 OA
ENDBRANCH   7  12
ENDBRANCH   1   5
BRANCH   2  17
ATOM     17  C   UNL d   1      28.248 -14.298   2.796  0.00  0.00     0.075 C 
ATOM     18  C   UNL d   1      27.624 -14.047   3.977  0.00  0.00     0.017 C 
BRANCH  18  19
ATOM     19  C   UNL d   1      28.270 -13.841   5.269  0.00  0.00    -0.036 A 
ATOM     20  C   UNL d   1      27.799 -12.892   6.194  0.00  0.00     0.013 A 
ATOM     21  C   UNL d   1      28.465 -12.720   7.413  0.00  0.00     0.024 A 
ATOM     22  C   UNL d   1      29.590 -13.493   7.698  0.00  0.00     0.034 A 
ATOM     23 CL   UNL d   1      30.438 -13.290   9.178  0.00  0.00    -0.084 Cl
ATOM     24  C   UNL d   1      30.049 -14.437   6.790  0.00  0.00     0.024 A 
ATOM     25  C   UNL d   1      29.390 -14.604   5.586  0.00  0.00     0.013 A 
ENDBRANCH  18  19
ENDBRANCH   2  17
TORSDOF 4
ENDMDL
MODEL 8
REMARK VINA RESULT:    -6.411      4.373      5.629
REMARK INTER + INTRA:          -8.079
REMARK INTER:                  -7.604
REMARK INTRA:                  -0.475
REMARK CONF_INDEPENDENT:        1.193
REMARK UNBOUND:                -0.475
REMARK  4 active torsions:
REMARK  status: ('A' for Active; 'I' for Inactive)
REMARK    1  A    between atoms: C_5  and  C_6 
REMARK       I    between atoms: C_6  and  N_7 
REMARK    2  A    between atoms: C_10  and  N_11 
REMARK       I    between atoms: N_11  and  C_12 
REMARK    3  A    between atoms: C_12  and  C_14 
REMARK    4  A    between atoms: C_15  and  C_16 
ROOT
ATOM      1  N   UNL d   1      29.060 -16.288   0.386  0.00  0.00    -0.323 N 
ATOM      2  C   UNL d   1      28.155 -16.260  -0.669  0.00  0.00     0.245 C 
ATOM      3  O   UNL d   1      28.162 -15.545  -1.666  0.00  0.00    -0.268 OA
ATOM      4  H   UNL d   1      28.894 -16.968   1.121  0.00  0.00     0.169 HD
ENDROOT
BRANCH   1   5
ATOM      5  C   UNL d   1      30.241 -15.453   0.566  0.00  0.00     0.042 A 
ATOM      6  C   UNL d   1      30.196 -14.359   1.477  0.00  0.00     0.047 A 
ATOM      7  C   UNL d   1      31.330 -13.517   1.695  0.00  0.00     0.034 A 
ATOM      8  C   UNL d   1      32.506 -13.758   0.992  0.00  0.00     0.017 A 
ATOM      9  C   UNL d   1      32.567 -14.808   0.108  0.00  0.00     0.010 A 
ATOM     10  C   UNL d   1      31.468 -15.648  -0.108  0.00  0.00    -0.035 A 
ATOM     11  C   UNL d   1      31.765 -16.723  -1.094  0.00  0.00     0.050 C 
BRANCH   7  12
ATOM     12  C   UNL d   1      31.289 -12.379   2.672  0.00  0.00     0.249 C 
ATOM     13  N   UNL d   1      31.631 -12.624   3.984  0.00  0.00    -0.366 N 
ATOM     14  H   UNL d   1      31.912 -13.512   4.370  0.00  0.00     0.159 HD
ATOM     15  H   UNL d   1      31.592 -11.850   4.635  0.00  0.00     0.159 HD
ATOM     16  O   UNL d   1      30.955 -11.252   2.327  0.00  0.00    -0.268 OA
ENDBRANCH   7  12
ENDBRANCH   1   5
BRANCH   2  17
ATOM     17  C   UNL d   1      27.007 -17.183  -0.670  0.00  0.00     0.075 C 
ATOM     18  C   UNL d   1      25.784 -16.590  -0.663  0.00  0.00     0.017 C 
BRANCH  18  19
ATOM     19  C   UNL d   1      24.493 -17.271  -0.667  0.00  0.00    -0.036 A 
ATOM     20  C   UNL d   1      24.383 -18.661  -0.486  0.00  0.00     0.013 A 
ATOM     21  C   UNL d   1      23.122 -19.268  -0.517  0.00  0.00     0.024 A 
ATOM     22  C   UNL d   1      21.987 -18.487  -0.726  0.00  0.00     0.034 A 
ATOM     23 CL   UNL d   1      20.429 -19.207  -0.787  0.00  0.00    -0.084 Cl
ATOM     24  C   UNL d   1      22.093 -17.113  -0.895  0.00  0.00     0.024 A 
ATOM     25  C   UNL d   1      23.340 -16.516  -0.866  0.00  0.00     0.013 A 
ENDBRANCH  18  19
ENDBRANCH   2  17
TORSDOF 4
ENDMDL
MODEL 9
REMARK VINA RESULT:    -6.296      6.248      7.816
REMARK INTER + INTRA:          -7.933
REMARK INTER:                  -7.489
REMARK INTRA:                  -0.445
REMARK CONF_INDEPENDENT:        1.193
REMARK UNBOUND:                -0.445
REMARK  4 active torsions:
REMARK  status: ('A' for Active; 'I' for Inactive)
REMARK    1  A    between atoms: C_5  and  C_6 
REMARK       I    between atoms: C_6  and  N_7 
REMARK    2  A    between atoms: C_10  and  N_11 
REMARK       I    between atoms: N_11  and  C_12 
REMARK    3  A    between atoms: C_12  and  C_14 
REMARK    4  A    between atoms: C_15  and  C_16 
ROOT
ATOM      1  N   UNL d   1      27.950 -15.404  -0.420  0.00  0.00    -0.323 N 
ATOM      2  C   UNL d   1      27.489 -14.533   0.560  0.00  0.00     0.245 C 
ATOM      3  O   UNL d   1      26.840 -13.501   0.425  0.00  0.00    -0.268 OA
ATOM      4  H   UNL d   1      28.462 -16.223  -0.108  0.00  0.00     0.169 HD
ENDROOT
BRANCH   1   5
ATOM      5  C   UNL d   1      27.780 -15.288  -1.863  0.00  0.00     0.042 A 
ATOM      6  C   UNL d   1      26.664 -14.572  -2.383  0.00  0.00     0.047 A 
ATOM      7  C   UNL d   1      26.458 -14.423  -3.790  0.00  0.00     0.034 A 
ATOM      8  C   UNL d   1      27.359 -15.001  -4.678  0.00  0.00     0.017 A 
ATOM      9  C   UNL d   1      28.440 -15.697  -4.194  0.00  0.00     0.010 A 
ATOM     10  C   UNL d   1      28.661 -15.842  -2.819  0.00  0.00    -0.035 A 
ATOM     11  C   UNL d   1      29.897 -16.619  -2.525  0.00  0.00     0.050 C 
BRANCH   7  12
ATOM     12  C   UNL d   1      25.294 -13.649  -4.337  0.00  0.00     0.249 C 
ATOM     13  N   UNL d   1      25.536 -12.431  -4.934  0.00  0.00    -0.366 N 
ATOM     14  H   UNL d   1      26.436 -11.990  -5.044  0.00  0.00     0.159 HD
ATOM     15  H   UNL d   1      24.743 -11.915  -5.293  0.00  0.00     0.159 HD
ATOM     16  O   UNL d   1      24.149 -14.075  -4.257  0.00  0.00    -0.268 OA
ENDBRANCH   7  12
ENDBRANCH   1   5
BRANCH   2  17
ATOM     17  C   UNL d   1      27.771 -14.816   1.979  0.00  0.00     0.075 C 
ATOM     18  C   UNL d   1      28.248 -13.765   2.697  0.00  0.00     0.017 C 
BRANCH  18  19
ATOM     19  C   UNL d   1      28.600 -13.775   4.114  0.00  0.00    -0.036 A 
ATOM     20  C   UNL d   1      29.733 -14.456   4.594  0.00  0.00     0.013 A 
ATOM     21  C   UNL d   1      30.017 -14.450   5.964  0.00  0.00     0.024 A 
ATOM     22  C   UNL d   1      29.173 -13.769   6.840  0.00  0.00     0.034 A 
ATOM     23 CL   UNL d   1      29.487 -13.760   8.529  0.00  0.00    -0.084 Cl
ATOM     24  C   UNL d   1      28.061 -13.088   6.365  0.00  0.00     0.024 A 
ATOM     25  C   UNL d   1      27.781 -13.097   5.011  0.00  0.00     0.013 A 
ENDBRANCH  18  19
ENDBRANCH   2  17
TORSDOF 4
ENDMDL
