MODEL 1
REMARK VINA RESULT:    -7.047      0.000      0.000
REMARK INTER + INTRA:          -9.232
REMARK INTER:                  -8.240
REMARK INTRA:                  -0.992
REMARK CONF_INDEPENDENT:        1.193
REMARK UNBOUND:                -0.992
REMARK  4 active torsions:
REMARK  status: ('A' for Active; 'I' for Inactive)
REMARK    1  A    between atoms: C_6  and  N_7 
REMARK    2  A    between atoms: N_7  and  N_8 
REMARK       I    between atoms: N_8  and  C_9 
REMARK    3  A    between atoms: C_9  and  C_11 
REMARK    4  A    between atoms: C_17  and  O_18 
ROOT
ATOM      1  N   UNL d   1      25.322 -15.509  -3.538  0.00  0.00    -0.187 NA
ATOM      2  C   UNL d   1      25.223 -14.297  -4.222  0.00  0.00     0.247 C 
ATOM      3  O   UNL d   1      24.143 -13.700  -4.271  0.00  0.00    -0.273 OA
ATOM      4  H   UNL d   1      24.406 -15.836  -3.252  0.00  0.00     0.150 HD
ENDROOT
BRANCH   1   5
ATOM      5  N   UNL d   1      26.255 -15.566  -2.433  0.00  0.00    -0.220 NA
ATOM      6  H   UNL d   1      27.206 -15.726  -2.779  0.00  0.00     0.147 HD
BRANCH   5   7
ATOM      7  C   UNL d   1      25.960 -16.566  -1.453  0.00  0.00     0.023 A 
ATOM      8  C   UNL d   1      26.931 -16.904  -0.491  0.00  0.00     0.025 A 
ATOM      9  C   UNL d   1      26.616 -17.721   0.604  0.00  0.00     0.002 A 
ATOM     10  C   UNL d   1      25.320 -18.201   0.769  0.00  0.00     0.007 A 
ATOM     11  C   UNL d   1      24.342 -17.894  -0.178  0.00  0.00    -0.060 A 
ATOM     12  C   UNL d   1      22.927 -18.362  -0.021  0.00  0.00     0.048 C 
ATOM     13  C   UNL d   1      24.673 -17.088  -1.279  0.00  0.00     0.031 A 
ENDBRANCH   5   7
ENDBRANCH   1   5
BRANCH   2  14
ATOM     14  C   UNL d   1      26.390 -13.793  -5.020  0.00  0.00     0.062 A 
ATOM     15  C   UNL d   1      27.413 -14.698  -5.374  0.00  0.00     0.038 A 
ATOM     16  C   UNL d   1      28.546 -14.244  -6.056  0.00  0.00     0.012 A 
ATOM     17 BR   UNL d   1      29.939 -15.441  -6.518  0.00  0.00    -0.051 Br
ATOM     18  C   UNL d   1      28.678 -12.900  -6.400  0.00  0.00     0.022 A 
ATOM     19  C   UNL d   1      27.678 -11.999  -6.052  0.00  0.00     0.039 A 
ATOM     20  C   UNL d   1      26.559 -12.439  -5.353  0.00  0.00     0.081 A 
BRANCH  20  21
ATOM     21  O   UNL d   1      25.639 -11.502  -4.991  0.00  0.00    -0.360 OA
ATOM     22  H   UNL d   1      24.779 -11.887  -4.767  0.00  0.00     0.217 HD
ENDBRANCH  20  21
ENDBRANCH   2  14
TORSDOF 4
ENDMDL
MODEL 2
REMARK VINA RESULT:    -6.888      3.016      6.255
REMARK INTER + INTRA:          -9.651
REMARK INTER:                  -8.081
REMARK INTRA:                  -1.570
REMARK CONF_INDEPENDENT:        1.193
REMARK UNBOUND:                -1.570
REMARK  4 active torsions:
REMARK  status: ('A' for Active; 'I' for Inactive)
REMARK    1  A    between atoms: C_6  and  N_7 
REMARK    2  A    between atoms: N_7  and  N_8 
REMARK       I    between atoms: N_8  and  C_9 
REMARK    3  A    between atoms: C_9  and  C_11 
REMARK    4  A    between atoms: C_17  and  O_18 
ROOT
ATOM      1  N   UNL d   1      25.155 -15.200  -4.835  0.00  0.00    -0.187 NA
ATOM      2  C   UNL d   1      26.356 -15.530  -4.207  0.00  0.00     0.247 C 
ATOM      3  O   UNL d   1      27.404 -15.574  -4.858  0.00  0.00    -0.273 OA
ATOM      4  H   UNL d   1      25.277 -15.156  -5.841  0.00  0.00     0.150 HD
ENDROOT
BRANCH   1   5
ATOM      5  N   UNL d   1      24.460 -14.026  -4.351  0.00  0.00    -0.220 NA
ATOM      6  H   UNL d   1      23.738 -13.741  -5.019  0.00  0.00     0.147 HD
BRANCH   5   7
ATOM      7  C   UNL d   1      25.301 -12.899  -4.090  0.00  0.00     0.023 A 
ATOM      8  C   UNL d   1      25.709 -12.627  -2.769  0.00  0.00     0.025 A 
ATOM      9  C   UNL d   1      26.690 -11.664  -2.494  0.00  0.00     0.002 A 
ATOM     10  C   UNL d   1      27.297 -10.967  -3.536  0.00  0.00     0.007 A 
ATOM     11  C   UNL d   1      26.900 -11.205  -4.852  0.00  0.00    -0.060 A 
ATOM     12  C   UNL d   1      27.551 -10.500  -6.004  0.00  0.00     0.048 C 
ATOM     13  C   UNL d   1      25.905 -12.160  -5.114  0.00  0.00     0.031 A 
ENDBRANCH   5   7
ENDBRANCH   1   5
BRANCH   2  14
ATOM     14  C   UNL d   1      26.350 -15.972  -2.772  0.00  0.00     0.062 A 
ATOM     15  C   UNL d   1      25.242 -16.699  -2.290  0.00  0.00     0.038 A 
ATOM     16  C   UNL d   1      25.175 -17.065  -0.942  0.00  0.00     0.012 A 
ATOM     17 BR   UNL d   1      23.684 -18.020  -0.273  0.00  0.00    -0.051 Br
ATOM     18  C   UNL d   1      26.201 -16.724  -0.062  0.00  0.00     0.022 A 
ATOM     19  C   UNL d   1      27.296 -16.004  -0.525  0.00  0.00     0.039 A 
ATOM     20  C   UNL d   1      27.357 -15.617  -1.860  0.00  0.00     0.081 A 
BRANCH  20  21
ATOM     21  O   UNL d   1      28.427 -14.866  -2.245  0.00  0.00    -0.360 OA
ATOM     22  H   UNL d   1      28.552 -14.854  -3.205  0.00  0.00     0.217 HD
ENDBRANCH  20  21
ENDBRANCH   2  14
TORSDOF 4
ENDMDL
MODEL 3
REMARK VINA RESULT:    -6.833      3.193      6.183
REMARK INTER + INTRA:          -9.534
REMARK INTER:                  -8.026
REMARK INTRA:                  -1.508
REMARK CONF_INDEPENDENT:        1.193
REMARK UNBOUND:                -1.508
REMARK  4 active torsions:
REMARK  status: ('A' for Active; 'I' for Inactive)
REMARK    1  A    between atoms: C_6  and  N_7 
REMARK    2  A    between atoms: N_7  and  N_8 
REMARK       I    between atoms: N_8  and  C_9 
REMARK    3  A    between atoms: C_9  and  C_11 
REMARK    4  A    between atoms: C_17  and  O_18 
ROOT
ATOM      1  N   UNL d   1      24.913 -14.825  -4.754  0.00  0.00    -0.187 NA
ATOM      2  C   UNL d   1      26.086 -15.403  -4.268  0.00  0.00     0.247 C 
ATOM      3  O   UNL d   1      27.050 -15.574  -5.020  0.00  0.00    -0.273 OA
ATOM      4  H   UNL d   1      24.954 -14.723  -5.762  0.00  0.00     0.150 HD
ENDROOT
BRANCH   1   5
ATOM      5  N   UNL d   1      24.481 -13.591  -4.131  0.00  0.00    -0.220 NA
ATOM      6  H   UNL d   1      23.755 -13.143  -4.698  0.00  0.00     0.147 HD
BRANCH   5   7
ATOM      7  C   UNL d   1      25.524 -12.640  -3.902  0.00  0.00     0.023 A 
ATOM      8  C   UNL d   1      25.898 -11.756  -4.933  0.00  0.00     0.025 A 
ATOM      9  C   UNL d   1      26.764 -10.681  -4.691  0.00  0.00     0.002 A 
ATOM     10  C   UNL d   1      27.261 -10.457  -3.409  0.00  0.00     0.007 A 
ATOM     11  C   UNL d   1      26.919 -11.327  -2.373  0.00  0.00    -0.060 A 
ATOM     12  C   UNL d   1      27.405 -11.103  -0.973  0.00  0.00     0.048 C 
ATOM     13  C   UNL d   1      26.063 -12.410  -2.631  0.00  0.00     0.031 A 
ENDBRANCH   5   7
ENDBRANCH   1   5
BRANCH   2  14
ATOM     14  C   UNL d   1      26.125 -15.950  -2.870  0.00  0.00     0.062 A 
ATOM     15  C   UNL d   1      24.977 -16.592  -2.360  0.00  0.00     0.038 A 
ATOM     16  C   UNL d   1      24.958 -17.049  -1.038  0.00  0.00     0.012 A 
ATOM     17 BR   UNL d   1      23.418 -17.891  -0.329  0.00  0.00    -0.051 Br
ATOM     18  C   UNL d   1      26.070 -16.885  -0.214  0.00  0.00     0.022 A 
ATOM     19  C   UNL d   1      27.205 -16.250  -0.705  0.00  0.00     0.039 A 
ATOM     20  C   UNL d   1      27.222 -15.772  -2.011  0.00  0.00     0.081 A 
BRANCH  20  21
ATOM     21  O   UNL d   1      28.340 -15.110  -2.420  0.00  0.00    -0.360 OA
ATOM     22  H   UNL d   1      28.351 -14.945  -3.374  0.00  0.00     0.217 HD
ENDBRANCH  20  21
ENDBRANCH   2  14
TORSDOF 4
ENDMDL
MODEL 4
REMARK VINA RESULT:    -6.803      1.787      2.149
REMARK INTER + INTRA:         -10.149
REMARK INTER:                  -7.996
REMARK INTRA:                  -2.153
REMARK CONF_INDEPENDENT:        1.193
REMARK UNBOUND:                -2.153
REMARK  4 active torsions:
REMARK  status: ('A' for Active; 'I' for Inactive)
REMARK    1  A    between atoms: C_6  and  N_7 
REMARK    2  A    between atoms: N_7  and  N_8 
REMARK       I    between atoms: N_8  and  C_9 
REMARK    3  A    between atoms: C_9  and  C_11 
REMARK    4  A    between atoms: C_17  and  O_18 
ROOT
ATOM      1  N   UNL d   1      25.363 -15.515  -3.701  0.00  0.00    -0.187 NA
ATOM      2  C   UNL d   1      25.157 -14.235  -4.214  0.00  0.00     0.247 C 
ATOM      3  O   UNL d   1      24.048 -13.700  -4.119  0.00  0.00    -0.273 OA
ATOM      4  H   UNL d   1      24.486 -15.929  -3.405  0.00  0.00     0.150 HD
ENDROOT
BRANCH   1   5
ATOM      5  N   UNL d   1      26.371 -15.658  -2.672  0.00  0.00    -0.220 NA
ATOM      6  H   UNL d   1      27.274 -15.902  -3.090  0.00  0.00     0.147 HD
BRANCH   5   7
ATOM      7  C   UNL d   1      26.065 -16.629  -1.666  0.00  0.00     0.023 A 
ATOM      8  C   UNL d   1      27.043 -16.974  -0.713  0.00  0.00     0.025 A 
ATOM      9  C   UNL d   1      26.724 -17.760   0.404  0.00  0.00     0.002 A 
ATOM     10  C   UNL d   1      25.418 -18.200   0.599  0.00  0.00     0.007 A 
ATOM     11  C   UNL d   1      24.434 -17.885  -0.338  0.00  0.00    -0.060 A 
ATOM     12  C   UNL d   1      23.009 -18.311  -0.148  0.00  0.00     0.048 C 
ATOM     13  C   UNL d   1      24.767 -17.111  -1.461  0.00  0.00     0.031 A 
ENDBRANCH   5   7
ENDBRANCH   1   5
BRANCH   2  14
ATOM     14  C   UNL d   1      26.241 -13.566  -5.008  0.00  0.00     0.062 A 
ATOM     15  C   UNL d   1      26.081 -12.211  -5.369  0.00  0.00     0.038 A 
ATOM     16  C   UNL d   1      27.040 -11.580  -6.168  0.00  0.00     0.012 A 
ATOM     17 BR   UNL d   1      26.830  -9.770  -6.680  0.00  0.00    -0.051 Br
ATOM     18  C   UNL d   1      28.164 -12.274  -6.611  0.00  0.00     0.022 A 
ATOM     19  C   UNL d   1      28.330 -13.610  -6.265  0.00  0.00     0.039 A 
ATOM     20  C   UNL d   1      27.369 -14.251  -5.490  0.00  0.00     0.081 A 
BRANCH  20  21
ATOM     21  O   UNL d   1      27.556 -15.575  -5.229  0.00  0.00    -0.360 OA
ATOM     22  H   UNL d   1      26.826 -15.965  -4.727  0.00  0.00     0.217 HD
ENDBRANCH  20  21
ENDBRANCH   2  14
TORSDOF 4
ENDMDL
MODEL 5
REMARK VINA RESULT:    -6.593      2.985      7.037
REMARK INTER + INTRA:          -9.982
REMARK INTER:                  -7.786
REMARK INTRA:                  -2.196
REMARK CONF_INDEPENDENT:        1.193
REMARK UNBOUND:                -2.196
REMARK  4 active torsions:
REMARK  status: ('A' for Active; 'I' for Inactive)
REMARK    1  A    between atoms: C_6  and  N_7 
REMARK    2  A    between atoms: N_7  and  N_8 
REMARK       I    between atoms: N_8  and  C_9 
REMARK    3  A    between atoms: C_9  and  C_11 
REMARK    4  A    between atoms: C_17  and  O_18 
ROOT
ATOM      1  N   UNL d   1      26.700 -14.573  -4.262  0.00  0.00    -0.187 NA
ATOM      2  C   UNL d   1      25.531 -14.981  -3.620  0.00  0.00     0.247 C 
ATOM      3  O   UNL d   1      24.453 -14.448  -3.899  0.00  0.00    -0.273 OA
ATOM      4  H   UNL d   1      26.530 -13.747  -4.826  0.00  0.00     0.150 HD
ENDROOT
BRANCH   1   5
ATOM      5  N   UNL d   1      27.418 -15.574  -5.023  0.00  0.00    -0.220 NA
ATOM      6  H   UNL d   1      27.886 -16.231  -4.392  0.00  0.00     0.147 HD
BRANCH   5   7
ATOM      7  C   UNL d   1      28.391 -15.051  -5.931  0.00  0.00     0.023 A 
ATOM      8  C   UNL d   1      28.235 -13.748  -6.441  0.00  0.00     0.025 A 
ATOM      9  C   UNL d   1      29.260 -13.123  -7.166  0.00  0.00     0.002 A 
ATOM     10  C   UNL d   1      30.469 -13.782  -7.379  0.00  0.00     0.007 A 
ATOM     11  C   UNL d   1      30.643 -15.080  -6.897  0.00  0.00    -0.060 A 
ATOM     12  C   UNL d   1      31.939 -15.811  -7.075  0.00  0.00     0.048 C 
ATOM     13  C   UNL d   1      29.604 -15.701  -6.187  0.00  0.00     0.031 A 
ENDBRANCH   5   7
ENDBRANCH   1   5
BRANCH   2  14
ATOM     14  C   UNL d   1      25.606 -15.965  -2.489  0.00  0.00     0.062 A 
ATOM     15  C   UNL d   1      24.406 -16.497  -1.971  0.00  0.00     0.038 A 
ATOM     16  C   UNL d   1      24.438 -17.362  -0.873  0.00  0.00     0.012 A 
ATOM     17 BR   UNL d   1      22.837 -18.066  -0.150  0.00  0.00    -0.051 Br
ATOM     18  C   UNL d   1      25.650 -17.714  -0.281  0.00  0.00     0.022 A 
ATOM     19  C   UNL d   1      26.838 -17.194  -0.781  0.00  0.00     0.039 A 
ATOM     20  C   UNL d   1      26.811 -16.314  -1.859  0.00  0.00     0.081 A 
BRANCH  20  21
ATOM     21  O   UNL d   1      28.001 -15.792  -2.270  0.00  0.00    -0.360 OA
ATOM     22  H   UNL d   1      27.899 -15.127  -2.966  0.00  0.00     0.217 HD
ENDBRANCH  20  21
ENDBRANCH   2  14
TORSDOF 4
ENDMDL
MODEL 6
REMARK VINA RESULT:    -6.546      2.941      6.982
REMARK INTER + INTRA:          -9.954
REMARK INTER:                  -7.740
REMARK INTRA:                  -2.214
REMARK CONF_INDEPENDENT:        1.193
REMARK UNBOUND:                -2.214
REMARK  4 active torsions:
REMARK  status: ('A' for Active; 'I' for Inactive)
REMARK    1  A    between atoms: C_6  and  N_7 
REMARK    2  A    between atoms: N_7  and  N_8 
REMARK       I    between atoms: N_8  and  C_9 
REMARK    3  A    between atoms: C_9  and  C_11 
REMARK    4  A    between atoms: C_17  and  O_18 
ROOT
ATOM      1  N   UNL d   1      26.696 -14.552  -4.264  0.00  0.00    -0.187 NA
ATOM      2  C   UNL d   1      25.528 -14.975  -3.630  0.00  0.00     0.247 C 
ATOM      3  O   UNL d   1      24.446 -14.450  -3.911  0.00  0.00    -0.273 OA
ATOM      4  H   UNL d   1      26.521 -13.725  -4.824  0.00  0.00     0.150 HD
ENDROOT
BRANCH   1   5
ATOM      5  N   UNL d   1      27.427 -15.543  -5.026  0.00  0.00    -0.220 NA
ATOM      6  H   UNL d   1      27.696 -16.326  -4.424  0.00  0.00     0.147 HD
BRANCH   5   7
ATOM      7  C   UNL d   1      28.602 -15.049  -5.675  0.00  0.00     0.023 A 
ATOM      8  C   UNL d   1      29.796 -15.794  -5.611  0.00  0.00     0.025 A 
ATOM      9  C   UNL d   1      30.907 -15.456  -6.396  0.00  0.00     0.002 A 
ATOM     10  C   UNL d   1      30.841 -14.377  -7.274  0.00  0.00     0.007 A 
ATOM     11  C   UNL d   1      29.676 -13.614  -7.346  0.00  0.00    -0.060 A 
ATOM     12  C   UNL d   1      29.551 -12.466  -8.302  0.00  0.00     0.048 C 
ATOM     13  C   UNL d   1      28.575 -13.952  -6.543  0.00  0.00     0.031 A 
ENDBRANCH   5   7
ENDBRANCH   1   5
BRANCH   2  14
ATOM     14  C   UNL d   1      25.605 -15.965  -2.504  0.00  0.00     0.062 A 
ATOM     15  C   UNL d   1      24.406 -16.489  -1.976  0.00  0.00     0.038 A 
ATOM     16  C   UNL d   1      24.443 -17.359  -0.882  0.00  0.00     0.012 A 
ATOM     17 BR   UNL d   1      22.843 -18.053  -0.146  0.00  0.00    -0.051 Br
ATOM     18  C   UNL d   1      25.658 -17.723  -0.304  0.00  0.00     0.022 A 
ATOM     19  C   UNL d   1      26.845 -17.210  -0.813  0.00  0.00     0.039 A 
ATOM     20  C   UNL d   1      26.814 -16.326  -1.887  0.00  0.00     0.081 A 
BRANCH  20  21
ATOM     21  O   UNL d   1      28.004 -15.812  -2.308  0.00  0.00    -0.360 OA
ATOM     22  H   UNL d   1      27.898 -15.116  -2.973  0.00  0.00     0.217 HD
ENDBRANCH  20  21
ENDBRANCH   2  14
TORSDOF 4
ENDMDL
MODEL 7
REMARK VINA RESULT:    -6.421      2.108      2.588
REMARK INTER + INTRA:          -9.776
REMARK INTER:                  -7.614
REMARK INTRA:                  -2.162
REMARK CONF_INDEPENDENT:        1.193
REMARK UNBOUND:                -2.162
REMARK  4 active torsions:
REMARK  status: ('A' for Active; 'I' for Inactive)
REMARK    1  A    between atoms: C_6  and  N_7 
REMARK    2  A    between atoms: N_7  and  N_8 
REMARK       I    between atoms: N_8  and  C_9 
REMARK    3  A    between atoms: C_9  and  C_11 
REMARK    4  A    between atoms: C_17  and  O_18 
ROOT
ATOM      1  N   UNL d   1      26.605 -15.464  -3.446  0.00  0.00    -0.187 NA
ATOM      2  C   UNL d   1      26.771 -14.706  -4.605  0.00  0.00     0.247 C 
ATOM      3  O   UNL d   1      27.317 -15.200  -5.596  0.00  0.00    -0.273 OA
ATOM      4  H   UNL d   1      27.099 -16.347  -3.522  0.00  0.00     0.150 HD
ENDROOT
BRANCH   1   5
ATOM      5  N   UNL d   1      25.249 -15.673  -2.984  0.00  0.00    -0.220 NA
ATOM      6  H   UNL d   1      24.845 -14.789  -2.661  0.00  0.00     0.147 HD
BRANCH   5   7
ATOM      7  C   UNL d   1      25.116 -16.639  -1.937  0.00  0.00     0.023 A 
ATOM      8  C   UNL d   1      26.178 -16.834  -1.033  0.00  0.00     0.025 A 
ATOM      9  C   UNL d   1      26.017 -17.614   0.121  0.00  0.00     0.002 A 
ATOM     10  C   UNL d   1      24.786 -18.199   0.403  0.00  0.00     0.007 A 
ATOM     11  C   UNL d   1      23.722 -18.035  -0.485  0.00  0.00    -0.060 A 
ATOM     12  C   UNL d   1      22.371 -18.620  -0.201  0.00  0.00     0.048 C 
ATOM     13  C   UNL d   1      23.899 -17.265  -1.645  0.00  0.00     0.031 A 
ENDBRANCH   5   7
ENDBRANCH   1   5
BRANCH   2  14
ATOM     14  C   UNL d   1      26.417 -13.247  -4.599  0.00  0.00     0.062 A 
ATOM     15  C   UNL d   1      26.636 -12.490  -5.770  0.00  0.00     0.038 A 
ATOM     16  C   UNL d   1      26.382 -11.115  -5.774  0.00  0.00     0.012 A 
ATOM     17 BR   UNL d   1      26.694 -10.080  -7.328  0.00  0.00    -0.051 Br
ATOM     18  C   UNL d   1      25.904 -10.477  -4.630  0.00  0.00     0.022 A 
ATOM     19  C   UNL d   1      25.688 -11.212  -3.470  0.00  0.00     0.039 A 
ATOM     20  C   UNL d   1      25.961 -12.576  -3.453  0.00  0.00     0.081 A 
BRANCH  20  21
ATOM     21  O   UNL d   1      25.783 -13.235  -2.273  0.00  0.00    -0.360 OA
ATOM     22  H   UNL d   1      26.321 -14.036  -2.205  0.00  0.00     0.217 HD
ENDBRANCH  20  21
ENDBRANCH   2  14
TORSDOF 4
ENDMDL
MODEL 8
REMARK VINA RESULT:    -6.168      4.030      6.168
REMARK INTER + INTRA:          -9.121
REMARK INTER:                  -7.361
REMARK INTRA:                  -1.759
REMARK CONF_INDEPENDENT:        1.193
REMARK UNBOUND:                -1.759
REMARK  4 active torsions:
REMARK  status: ('A' for Active; 'I' for Inactive)
REMARK    1  A    between atoms: C_6  and  N_7 
REMARK    2  A    between atoms: N_7  and  N_8 
REMARK       I    between atoms: N_8  and  C_9 
REMARK    3  A    between atoms: C_9  and  C_11 
REMARK    4  A    between atoms: C_17  and  O_18 
ROOT
ATOM      1  N   UNL d   1      26.033 -13.895  -1.711  0.00  0.00    -0.187 NA
ATOM      2  C   UNL d   1      25.554 -15.028  -2.367  0.00  0.00     0.247 C 
ATOM      3  O   UNL d   1      25.222 -14.963  -3.555  0.00  0.00    -0.273 OA
ATOM      4  H   UNL d   1      25.925 -13.071  -2.293  0.00  0.00     0.150 HD
ENDROOT
BRANCH   1   5
ATOM      5  N   UNL d   1      27.372 -13.966  -1.167  0.00  0.00    -0.220 NA
ATOM      6  H   UNL d   1      27.713 -14.931  -1.188  0.00  0.00     0.147 HD
BRANCH   5   7
ATOM      7  C   UNL d   1      27.501 -13.473   0.170  0.00  0.00     0.023 A 
ATOM      8  C   UNL d   1      27.043 -12.178   0.480  0.00  0.00     0.025 A 
ATOM      9  C   UNL d   1      26.961 -11.733   1.807  0.00  0.00     0.002 A 
ATOM     10  C   UNL d   1      27.319 -12.582   2.852  0.00  0.00     0.007 A 
ATOM     11  C   UNL d   1      27.791 -13.864   2.572  0.00  0.00    -0.060 A 
ATOM     12  C   UNL d   1      28.154 -14.820   3.668  0.00  0.00     0.048 C 
ATOM     13  C   UNL d   1      27.884 -14.293   1.238  0.00  0.00     0.031 A 
ENDBRANCH   5   7
ENDBRANCH   1   5
BRANCH   2  14
ATOM     14  C   UNL d   1      25.306 -16.290  -1.592  0.00  0.00     0.062 A 
ATOM     15  C   UNL d   1      23.982 -16.763  -1.470  0.00  0.00     0.038 A 
ATOM     16  C   UNL d   1      23.710 -17.896  -0.697  0.00  0.00     0.012 A 
ATOM     17 BR   UNL d   1      21.937 -18.530  -0.503  0.00  0.00    -0.051 Br
ATOM     18  C   UNL d   1      24.738 -18.574  -0.044  0.00  0.00     0.022 A 
ATOM     19  C   UNL d   1      26.045 -18.115  -0.154  0.00  0.00     0.039 A 
ATOM     20  C   UNL d   1      26.320 -16.975  -0.903  0.00  0.00     0.081 A 
BRANCH  20  21
ATOM     21  O   UNL d   1      27.610 -16.540  -0.930  0.00  0.00    -0.360 OA
ATOM     22  H   UNL d   1      27.797 -15.875  -0.251  0.00  0.00     0.217 HD
ENDBRANCH  20  21
ENDBRANCH   2  14
TORSDOF 4
ENDMDL
MODEL 9
REMARK VINA RESULT:    -6.069      3.622      7.133
REMARK INTER + INTRA:          -9.160
REMARK INTER:                  -7.262
REMARK INTRA:                  -1.898
REMARK CONF_INDEPENDENT:        1.193
REMARK UNBOUND:                -1.898
REMARK  4 active torsions:
REMARK  status: ('A' for Active; 'I' for Inactive)
REMARK    1  A    between atoms: C_6  and  N_7 
REMARK    2  A    between atoms: N_7  and  N_8 
REMARK       I    between atoms: N_8  and  C_9 
REMARK    3  A    between atoms: C_9  and  C_11 
REMARK    4  A    between atoms: C_17  and  O_18 
ROOT
ATOM      1  N   UNL d   1      24.901 -12.891  -3.508  0.00  0.00    -0.187 NA
ATOM      2  C   UNL d   1      25.077 -14.268  -3.644  0.00  0.00     0.247 C 
ATOM      3  O   UNL d   1      24.809 -14.825  -4.713  0.00  0.00    -0.273 OA
ATOM      4  H   UNL d   1      24.424 -12.509  -4.318  0.00  0.00     0.150 HD
ENDROOT
BRANCH   1   5
ATOM      5  N   UNL d   1      26.074 -12.106  -3.186  0.00  0.00    -0.220 NA
ATOM      6  H   UNL d   1      26.214 -12.078  -2.172  0.00  0.00     0.147 HD
BRANCH   5   7
ATOM      7  C   UNL d   1      26.045 -10.761  -3.674  0.00  0.00     0.023 A 
ATOM      8  C   UNL d   1      25.902 -10.527  -5.055  0.00  0.00     0.025 A 
ATOM      9  C   UNL d   1      25.665  -9.238  -5.553  0.00  0.00     0.002 A 
ATOM     10  C   UNL d   1      25.549  -8.160  -4.678  0.00  0.00     0.007 A 
ATOM     11  C   UNL d   1      25.702  -8.363  -3.306  0.00  0.00    -0.060 A 
ATOM     12  C   UNL d   1      25.550  -7.237  -2.329  0.00  0.00     0.048 C 
ATOM     13  C   UNL d   1      25.955  -9.656  -2.821  0.00  0.00     0.031 A 
ENDBRANCH   5   7
ENDBRANCH   1   5
BRANCH   2  14
ATOM     14  C   UNL d   1      25.453 -15.093  -2.447  0.00  0.00     0.062 A 
ATOM     15  C   UNL d   1      24.572 -16.110  -2.019  0.00  0.00     0.038 A 
ATOM     16  C   UNL d   1      24.861 -16.849  -0.867  0.00  0.00     0.012 A 
ATOM     17 BR   UNL d   1      23.679 -18.199  -0.266  0.00  0.00    -0.051 Br
ATOM     18  C   UNL d   1      26.019 -16.598  -0.134  0.00  0.00     0.022 A 
ATOM     19  C   UNL d   1      26.892 -15.597  -0.544  0.00  0.00     0.039 A 
ATOM     20  C   UNL d   1      26.599 -14.842  -1.676  0.00  0.00     0.081 A 
BRANCH  20  21
ATOM     21  O   UNL d   1      27.462 -13.838  -1.998  0.00  0.00    -0.360 OA
ATOM     22  H   UNL d   1      27.123 -13.262  -2.698  0.00  0.00     0.217 HD
ENDBRANCH  20  21
ENDBRANCH   2  14
TORSDOF 4
ENDMDL
