MODEL 1
REMARK VINA RESULT:    -8.776      0.000      0.000
REMARK INTER + INTRA:         -11.878
REMARK INTER:                 -10.566
REMARK INTRA:                  -1.312
REMARK CONF_INDEPENDENT:        1.790
REMARK UNBOUND:                -1.312
REMARK  6 active torsions:
REMARK  status: ('A' for Active; 'I' for Inactive)
REMARK    1  A    between atoms: N_1  and  C_2 
REMARK    2  A    between atoms: C_3  and  C_4 
REMARK       I    between atoms: C_4  and  N_6 
REMARK    3  A    between atoms: N_6  and  C_7 
REMARK    4  A    between atoms: N_26  and  C_27 
REMARK    5  A    between atoms: C_27  and  C_28 
REMARK    6  A    between atoms: C_28  and  C_29 
ROOT
ATOM      1  C   UNL d   1      25.965 -12.889  -4.597  0.00  0.00     0.118 A 
ATOM      2  C   UNL d   1      26.610 -11.797  -5.268  0.00  0.00     0.077 A 
ATOM      3  C   UNL d   1      27.789 -12.005  -5.960  0.00  0.00     0.042 A 
ATOM      4  C   UNL d   1      28.337 -13.282  -5.976  0.00  0.00     0.080 A 
ATOM      5  C   UNL d   1      29.592 -13.531  -6.691  0.00  0.00     0.267 A 
ATOM      6  O   UNL d   1      30.116 -12.575  -7.269  0.00  0.00    -0.267 OA
ATOM      7  N   UNL d   1      30.088 -14.823  -6.660  0.00  0.00    -0.273 N 
ATOM      8  C   UNL d   1      31.281 -15.087  -7.332  0.00  0.00     0.102 A 
ATOM      9  C   UNL d   1      31.829 -16.306  -7.351  0.00  0.00     0.018 A 
ATOM     10  C   UNL d   1      31.179 -17.388  -6.662  0.00  0.00     0.005 A 
ATOM     11  C   UNL d   1      30.031 -17.187  -6.001  0.00  0.00     0.051 A 
ATOM     12  C   UNL d   1      29.406 -15.827  -5.970  0.00  0.00     0.139 A 
ATOM     13  N   UNL d   1      28.289 -15.634  -5.326  0.00  0.00    -0.212 NA
ATOM     14  C   UNL d   1      27.729 -14.342  -5.316  0.00  0.00     0.149 A 
ATOM     15  N   UNL d   1      26.550 -14.144  -4.633  0.00  0.00    -0.316 N 
ENDROOT
BRANCH   2  16
ATOM     16  C   UNL d   1      25.971 -10.437  -5.169  0.00  0.00     0.260 C 
ATOM     17  O   UNL d   1      25.834  -9.945  -4.049  0.00  0.00    -0.267 OA
ATOM     18  N   UNL d   1      25.507  -9.789  -6.296  0.00  0.00    -0.321 N 
ATOM     19  H   UNL d   1      25.271 -10.312  -7.130  0.00  0.00     0.169 HD
BRANCH  18  20
ATOM     20  C   UNL d   1      24.839  -8.537  -6.144  0.00  0.00     0.056 A 
ATOM     21  C   UNL d   1      23.654  -8.450  -5.396  0.00  0.00     0.031 A 
ATOM     22  C   UNL d   1      22.899  -7.280  -5.390  0.00  0.00     0.002 A 
ATOM     23  C   UNL d   1      23.376  -6.149  -6.042  0.00  0.00     0.002 A 
ATOM     24  C   UNL d   1      24.613  -6.187  -6.689  0.00  0.00     0.026 A 
ATOM     25  C   UNL d   1      25.323  -7.389  -6.777  0.00  0.00     0.060 A 
ATOM     26 CL   UNL d   1      26.722  -7.457  -7.789  0.00  0.00    -0.082 Cl
ENDBRANCH  18  20
ENDBRANCH   2  16
BRANCH   1  27
ATOM     27  N   UNL d   1      24.780 -12.602  -3.936  0.00  0.00    -0.384 N 
ATOM     28  H   UNL d   1      24.509 -11.610  -3.913  0.00  0.00     0.157 HD
ATOM     29  H   UNL d   1      24.055 -13.110  -3.478  0.00  0.00     0.157 HD
ENDBRANCH   1  27
BRANCH  15  30
ATOM     30  C   UNL d   1      25.977 -15.361  -3.951  0.00  0.00     0.137 C 
BRANCH  30  31
ATOM     31  C   UNL d   1      26.166 -15.391  -2.448  0.00  0.00     0.059 C 
BRANCH  31  32
ATOM     32  C   UNL d   1      25.420 -16.329  -1.579  0.00  0.00    -0.057 C 
ATOM     33  C   UNL d   1      26.147 -17.152  -0.697  0.00  0.00     0.007 C 
ATOM     34  C   UNL d   1      25.487 -18.162  -0.017  0.00  0.00     0.001 C 
ATOM     35  C   UNL d   1      24.101 -18.253  -0.116  0.00  0.00     0.000 C 
ATOM     36  C   UNL d   1      23.377 -17.332  -0.870  0.00  0.00     0.001 C 
ATOM     37  C   UNL d   1      24.038 -16.401  -1.643  0.00  0.00     0.007 C 
ENDBRANCH  31  32
ENDBRANCH  30  31
ENDBRANCH  15  30
TORSDOF 6
ENDMDL
MODEL 2
REMARK VINA RESULT:    -8.636      5.654      8.460
REMARK INTER + INTRA:         -11.970
REMARK INTER:                 -10.425
REMARK INTRA:                  -1.544
REMARK CONF_INDEPENDENT:        1.790
REMARK UNBOUND:                -1.544
REMARK  6 active torsions:
REMARK  status: ('A' for Active; 'I' for Inactive)
REMARK    1  A    between atoms: N_1  and  C_2 
REMARK    2  A    between atoms: C_3  and  C_4 
REMARK       I    between atoms: C_4  and  N_6 
REMARK    3  A    between atoms: N_6  and  C_7 
REMARK    4  A    between atoms: N_26  and  C_27 
REMARK    5  A    between atoms: C_27  and  C_28 
REMARK    6  A    between atoms: C_28  and  C_29 
ROOT
ATOM      1  C   UNL d   1      27.855 -14.469   0.867  0.00  0.00     0.118 A 
ATOM      2  C   UNL d   1      27.999 -13.141   1.392  0.00  0.00     0.077 A 
ATOM      3  C   UNL d   1      27.722 -12.044   0.596  0.00  0.00     0.042 A 
ATOM      4  C   UNL d   1      27.320 -12.257  -0.717  0.00  0.00     0.080 A 
ATOM      5  C   UNL d   1      27.030 -11.114  -1.587  0.00  0.00     0.267 A 
ATOM      6  O   UNL d   1      27.151  -9.986  -1.104  0.00  0.00    -0.267 OA
ATOM      7  N   UNL d   1      26.643 -11.396  -2.886  0.00  0.00    -0.273 N 
ATOM      8  C   UNL d   1      26.362 -10.327  -3.737  0.00  0.00     0.102 A 
ATOM      9  C   UNL d   1      25.983 -10.511  -5.005  0.00  0.00     0.018 A 
ATOM     10  C   UNL d   1      25.857 -11.846  -5.523  0.00  0.00     0.005 A 
ATOM     11  C   UNL d   1      26.115 -12.908  -4.747  0.00  0.00     0.051 A 
ATOM     12  C   UNL d   1      26.542 -12.717  -3.325  0.00  0.00     0.139 A 
ATOM     13  N   UNL d   1      26.793 -13.752  -2.573  0.00  0.00    -0.212 NA
ATOM     14  C   UNL d   1      27.193 -13.538  -1.239  0.00  0.00     0.149 A 
ATOM     15  N   UNL d   1      27.459 -14.634  -0.450  0.00  0.00    -0.316 N 
ENDROOT
BRANCH   2  16
ATOM     16  C   UNL d   1      28.477 -12.996   2.812  0.00  0.00     0.260 C 
ATOM     17  O   UNL d   1      29.624 -13.360   3.074  0.00  0.00    -0.267 OA
ATOM     18  N   UNL d   1      27.636 -12.521   3.798  0.00  0.00    -0.321 N 
ATOM     19  H   UNL d   1      26.632 -12.580   3.690  0.00  0.00     0.169 HD
BRANCH  18  20
ATOM     20  C   UNL d   1      28.109 -12.476   5.144  0.00  0.00     0.056 A 
ATOM     21  C   UNL d   1      28.375 -11.244   5.763  0.00  0.00     0.031 A 
ATOM     22  C   UNL d   1      29.005 -11.191   7.004  0.00  0.00     0.002 A 
ATOM     23  C   UNL d   1      29.276 -12.369   7.689  0.00  0.00     0.002 A 
ATOM     24  C   UNL d   1      28.907 -13.598   7.137  0.00  0.00     0.026 A 
ATOM     25  C   UNL d   1      28.364 -13.655   5.850  0.00  0.00     0.060 A 
ATOM     26 CL   UNL d   1      28.147 -15.199   5.105  0.00  0.00    -0.082 Cl
ENDBRANCH  18  20
ENDBRANCH   2  16
BRANCH   1  27
ATOM     27  N   UNL d   1      28.140 -15.515   1.731  0.00  0.00    -0.384 N 
ATOM     28  H   UNL d   1      28.825 -15.311   2.470  0.00  0.00     0.157 HD
ATOM     29  H   UNL d   1      27.832 -16.453   1.873  0.00  0.00     0.157 HD
ENDBRANCH   1  27
BRANCH  15  30
ATOM     30  C   UNL d   1      27.292 -15.976  -1.118  0.00  0.00     0.137 C 
BRANCH  30  31
ATOM     31  C   UNL d   1      26.587 -17.018  -0.275  0.00  0.00     0.059 C 
BRANCH  31  32
ATOM     32  C   UNL d   1      25.147 -17.321  -0.438  0.00  0.00    -0.057 C 
ATOM     33  C   UNL d   1      24.295 -16.304  -0.907  0.00  0.00     0.007 C 
ATOM     34  C   UNL d   1      22.925 -16.507  -0.888  0.00  0.00     0.001 C 
ATOM     35  C   UNL d   1      22.430 -17.759  -0.534  0.00  0.00     0.000 C 
ATOM     36  C   UNL d   1      23.295 -18.807  -0.223  0.00  0.00     0.001 C 
ATOM     37  C   UNL d   1      24.652 -18.576  -0.124  0.00  0.00     0.007 C 
ENDBRANCH  31  32
ENDBRANCH  30  31
ENDBRANCH  15  30
TORSDOF 6
ENDMDL
MODEL 3
REMARK VINA RESULT:    -8.344      3.911      6.618
REMARK INTER + INTRA:         -11.988
REMARK INTER:                 -10.134
REMARK INTRA:                  -1.854
REMARK CONF_INDEPENDENT:        1.790
REMARK UNBOUND:                -1.854
REMARK  6 active torsions:
REMARK  status: ('A' for Active; 'I' for Inactive)
REMARK    1  A    between atoms: N_1  and  C_2 
REMARK    2  A    between atoms: C_3  and  C_4 
REMARK       I    between atoms: C_4  and  N_6 
REMARK    3  A    between atoms: N_6  and  C_7 
REMARK    4  A    between atoms: N_26  and  C_27 
REMARK    5  A    between atoms: C_27  and  C_28 
REMARK    6  A    between atoms: C_28  and  C_29 
ROOT
ATOM      1  C   UNL d   1      27.099 -14.918  -1.594  0.00  0.00     0.118 A 
ATOM      2  C   UNL d   1      26.890 -13.504  -1.716  0.00  0.00     0.077 A 
ATOM      3  C   UNL d   1      26.993 -12.686  -0.606  0.00  0.00     0.042 A 
ATOM      4  C   UNL d   1      27.285 -13.265   0.623  0.00  0.00     0.080 A 
ATOM      5  C   UNL d   1      27.390 -12.425   1.821  0.00  0.00     0.267 A 
ATOM      6  O   UNL d   1      27.217 -11.212   1.681  0.00  0.00    -0.267 OA
ATOM      7  N   UNL d   1      27.675 -13.066   3.014  0.00  0.00    -0.273 N 
ATOM      8  C   UNL d   1      27.780 -12.291   4.169  0.00  0.00     0.102 A 
ATOM      9  C   UNL d   1      28.051 -12.830   5.362  0.00  0.00     0.018 A 
ATOM     10  C   UNL d   1      28.244 -14.250   5.473  0.00  0.00     0.005 A 
ATOM     11  C   UNL d   1      28.155 -15.040   4.394  0.00  0.00     0.051 A 
ATOM     12  C   UNL d   1      27.850 -14.450   3.052  0.00  0.00     0.139 A 
ATOM     13  N   UNL d   1      27.763 -15.220   2.003  0.00  0.00    -0.212 NA
ATOM     14  C   UNL d   1      27.474 -14.634   0.755  0.00  0.00     0.149 A 
ATOM     15  N   UNL d   1      27.382 -15.453  -0.348  0.00  0.00    -0.316 N 
ENDROOT
BRANCH   2  16
ATOM     16  C   UNL d   1      26.538 -12.962  -3.077  0.00  0.00     0.260 C 
ATOM     17  O   UNL d   1      25.530 -13.403  -3.630  0.00  0.00    -0.267 OA
ATOM     18  N   UNL d   1      27.350 -12.039  -3.704  0.00  0.00    -0.321 N 
ATOM     19  H   UNL d   1      28.327 -11.959  -3.452  0.00  0.00     0.169 HD
BRANCH  18  20
ATOM     20  C   UNL d   1      27.017 -11.614  -5.024  0.00  0.00     0.056 A 
ATOM     21  C   UNL d   1      27.576 -12.256  -6.141  0.00  0.00     0.031 A 
ATOM     22  C   UNL d   1      27.404 -11.739  -7.422  0.00  0.00     0.002 A 
ATOM     23  C   UNL d   1      26.578 -10.637  -7.614  0.00  0.00     0.002 A 
ATOM     24  C   UNL d   1      25.918 -10.062  -6.526  0.00  0.00     0.026 A 
ATOM     25  C   UNL d   1      26.170 -10.521  -5.230  0.00  0.00     0.060 A 
ATOM     26 CL   UNL d   1      25.530  -9.633  -3.892  0.00  0.00    -0.082 Cl
ENDBRANCH  18  20
ENDBRANCH   2  16
BRANCH   1  27
ATOM     27  N   UNL d   1      26.990 -15.667  -2.756  0.00  0.00    -0.384 N 
ATOM     28  H   UNL d   1      26.192 -15.439  -3.362  0.00  0.00     0.157 HD
ATOM     29  H   UNL d   1      27.509 -16.382  -3.218  0.00  0.00     0.157 HD
ENDBRANCH   1  27
BRANCH  15  30
ATOM     30  C   UNL d   1      27.601 -16.923  -0.091  0.00  0.00     0.137 C 
BRANCH  30  31
ATOM     31  C   UNL d   1      26.442 -17.627   0.582  0.00  0.00     0.059 C 
BRANCH  31  32
ATOM     32  C   UNL d   1      25.085 -17.650  -0.009  0.00  0.00    -0.057 C 
ATOM     33  C   UNL d   1      24.507 -16.433  -0.419  0.00  0.00     0.007 C 
ATOM     34  C   UNL d   1      23.175 -16.410  -0.797  0.00  0.00     0.001 C 
ATOM     35  C   UNL d   1      22.477 -17.610  -0.895  0.00  0.00     0.000 C 
ATOM     36  C   UNL d   1      23.108 -18.826  -0.637  0.00  0.00     0.001 C 
ATOM     37  C   UNL d   1      24.396 -18.845  -0.145  0.00  0.00     0.007 C 
ENDBRANCH  31  32
ENDBRANCH  30  31
ENDBRANCH  15  30
TORSDOF 6
ENDMDL
MODEL 4
REMARK VINA RESULT:    -8.021      3.884      8.924
REMARK INTER + INTRA:         -11.730
REMARK INTER:                  -9.811
REMARK INTRA:                  -1.919
REMARK CONF_INDEPENDENT:        1.790
REMARK UNBOUND:                -1.919
REMARK  6 active torsions:
REMARK  status: ('A' for Active; 'I' for Inactive)
REMARK    1  A    between atoms: N_1  and  C_2 
REMARK    2  A    between atoms: C_3  and  C_4 
REMARK       I    between atoms: C_4  and  N_6 
REMARK    3  A    between atoms: N_6  and  C_7 
REMARK    4  A    between atoms: N_26  and  C_27 
REMARK    5  A    between atoms: C_27  and  C_28 
REMARK    6  A    between atoms: C_28  and  C_29 
ROOT
ATOM      1  C   UNL d   1      29.686 -17.237  -2.006  0.00  0.00     0.118 A 
ATOM      2  C   UNL d   1      29.943 -17.482  -3.397  0.00  0.00     0.077 A 
ATOM      3  C   UNL d   1      29.413 -16.643  -4.360  0.00  0.00     0.042 A 
ATOM      4  C   UNL d   1      28.619 -15.577  -3.953  0.00  0.00     0.080 A 
ATOM      5  C   UNL d   1      28.034 -14.677  -4.952  0.00  0.00     0.267 A 
ATOM      6  O   UNL d   1      28.283 -14.906  -6.138  0.00  0.00    -0.267 OA
ATOM      7  N   UNL d   1      27.247 -13.641  -4.479  0.00  0.00    -0.273 N 
ATOM      8  C   UNL d   1      26.678 -12.770  -5.408  0.00  0.00     0.102 A 
ATOM      9  C   UNL d   1      25.905 -11.746  -5.037  0.00  0.00     0.018 A 
ATOM     10  C   UNL d   1      25.644 -11.521  -3.641  0.00  0.00     0.005 A 
ATOM     11  C   UNL d   1      26.167 -12.328  -2.708  0.00  0.00     0.051 A 
ATOM     12  C   UNL d   1      27.034 -13.481  -3.109  0.00  0.00     0.139 A 
ATOM     13  N   UNL d   1      27.542 -14.265  -2.200  0.00  0.00    -0.212 NA
ATOM     14  C   UNL d   1      28.352 -15.341  -2.611  0.00  0.00     0.149 A 
ATOM     15  N   UNL d   1      28.884 -16.167  -1.646  0.00  0.00    -0.316 N 
ENDROOT
BRANCH   2  16
ATOM     16  C   UNL d   1      30.780 -18.681  -3.755  0.00  0.00     0.260 C 
ATOM     17  O   UNL d   1      31.908 -18.763  -3.268  0.00  0.00    -0.267 OA
ATOM     18  N   UNL d   1      30.316 -19.628  -4.645  0.00  0.00    -0.321 N 
ATOM     19  H   UNL d   1      29.595 -19.395  -5.316  0.00  0.00     0.169 HD
BRANCH  18  20
ATOM     20  C   UNL d   1      31.176 -20.706  -5.014  0.00  0.00     0.056 A 
ATOM     21  C   UNL d   1      31.638 -21.611  -4.046  0.00  0.00     0.031 A 
ATOM     22  C   UNL d   1      32.616 -22.552  -4.358  0.00  0.00     0.002 A 
ATOM     23  C   UNL d   1      33.063 -22.671  -5.669  0.00  0.00     0.002 A 
ATOM     24  C   UNL d   1      32.522 -21.857  -6.667  0.00  0.00     0.026 A 
ATOM     25  C   UNL d   1      31.614 -20.848  -6.334  0.00  0.00     0.060 A 
ATOM     26 CL   UNL d   1      31.155 -19.708  -7.549  0.00  0.00    -0.082 Cl
ENDBRANCH  18  20
ENDBRANCH   2  16
BRANCH   1  27
ATOM     27  N   UNL d   1      30.264 -18.116  -1.102  0.00  0.00    -0.384 N 
ATOM     28  H   UNL d   1      31.097 -18.617  -1.435  0.00  0.00     0.157 HD
ATOM     29  H   UNL d   1      30.116 -18.395  -0.156  0.00  0.00     0.157 HD
ENDBRANCH   1  27
BRANCH  15  30
ATOM     30  C   UNL d   1      28.528 -15.822  -0.221  0.00  0.00     0.137 C 
BRANCH  30  31
ATOM     31  C   UNL d   1      27.593 -16.804   0.452  0.00  0.00     0.059 C 
BRANCH  31  32
ATOM     32  C   UNL d   1      26.246 -17.104  -0.086  0.00  0.00    -0.057 C 
ATOM     33  C   UNL d   1      25.625 -16.150  -0.914  0.00  0.00     0.007 C 
ATOM     34  C   UNL d   1      24.298 -16.326  -1.271  0.00  0.00     0.001 C 
ATOM     35  C   UNL d   1      23.652 -17.507  -0.918  0.00  0.00     0.000 C 
ATOM     36  C   UNL d   1      24.329 -18.513  -0.231  0.00  0.00     0.001 C 
ATOM     37  C   UNL d   1      25.610 -18.293   0.230  0.00  0.00     0.007 C 
ENDBRANCH  31  32
ENDBRANCH  30  31
ENDBRANCH  15  30
TORSDOF 6
ENDMDL
MODEL 5
REMARK VINA RESULT:    -7.941      4.856      8.228
REMARK INTER + INTRA:         -11.387
REMARK INTER:                  -9.731
REMARK INTRA:                  -1.656
REMARK CONF_INDEPENDENT:        1.790
REMARK UNBOUND:                -1.656
REMARK  6 active torsions:
REMARK  status: ('A' for Active; 'I' for Inactive)
REMARK    1  A    between atoms: N_1  and  C_2 
REMARK    2  A    between atoms: C_3  and  C_4 
REMARK       I    between atoms: C_4  and  N_6 
REMARK    3  A    between atoms: N_6  and  C_7 
REMARK    4  A    between atoms: N_26  and  C_27 
REMARK    5  A    between atoms: C_27  and  C_28 
REMARK    6  A    between atoms: C_28  and  C_29 
ROOT
ATOM      1  C   UNL d   1      27.474 -15.300  -3.549  0.00  0.00     0.118 A 
ATOM      2  C   UNL d   1      28.817 -15.801  -3.481  0.00  0.00     0.077 A 
ATOM      3  C   UNL d   1      29.520 -15.749  -2.291  0.00  0.00     0.042 A 
ATOM      4  C   UNL d   1      28.905 -15.191  -1.177  0.00  0.00     0.080 A 
ATOM      5  C   UNL d   1      29.628 -15.113   0.096  0.00  0.00     0.267 A 
ATOM      6  O   UNL d   1      30.777 -15.563   0.125  0.00  0.00    -0.267 OA
ATOM      7  N   UNL d   1      28.961 -14.538   1.163  0.00  0.00    -0.273 N 
ATOM      8  C   UNL d   1      29.626 -14.450   2.386  0.00  0.00     0.102 A 
ATOM      9  C   UNL d   1      29.055 -13.908   3.466  0.00  0.00     0.018 A 
ATOM     10  C   UNL d   1      27.714 -13.397   3.380  0.00  0.00     0.005 A 
ATOM     11  C   UNL d   1      27.030 -13.458   2.229  0.00  0.00     0.051 A 
ATOM     12  C   UNL d   1      27.658 -14.060   1.011  0.00  0.00     0.139 A 
ATOM     13  N   UNL d   1      26.992 -14.117  -0.108  0.00  0.00    -0.212 NA
ATOM     14  C   UNL d   1      27.611 -14.690  -1.236  0.00  0.00     0.149 A 
ATOM     15  N   UNL d   1      26.903 -14.746  -2.416  0.00  0.00    -0.316 N 
ENDROOT
BRANCH   2  16
ATOM     16  C   UNL d   1      29.425 -16.353  -4.743  0.00  0.00     0.260 C 
ATOM     17  O   UNL d   1      28.999 -15.933  -5.820  0.00  0.00    -0.267 OA
ATOM     18  N   UNL d   1      30.390 -17.338  -4.693  0.00  0.00    -0.321 N 
ATOM     19  H   UNL d   1      30.471 -17.938  -3.882  0.00  0.00     0.169 HD
BRANCH  18  20
ATOM     20  C   UNL d   1      30.879 -17.886  -5.916  0.00  0.00     0.056 A 
ATOM     21  C   UNL d   1      31.255 -17.042  -6.973  0.00  0.00     0.031 A 
ATOM     22  C   UNL d   1      31.560 -17.563  -8.229  0.00  0.00     0.002 A 
ATOM     23  C   UNL d   1      31.600 -18.940  -8.411  0.00  0.00     0.002 A 
ATOM     24  C   UNL d   1      31.346 -19.794  -7.335  0.00  0.00     0.026 A 
ATOM     25  C   UNL d   1      30.945 -19.270  -6.102  0.00  0.00     0.060 A 
ATOM     26 CL   UNL d   1      30.405 -20.356  -4.871  0.00  0.00    -0.082 Cl
ENDBRANCH  18  20
ENDBRANCH   2  16
BRANCH   1  27
ATOM     27  N   UNL d   1      26.834 -15.399  -4.775  0.00  0.00    -0.384 N 
ATOM     28  H   UNL d   1      27.392 -15.130  -5.595  0.00  0.00     0.157 HD
ATOM     29  H   UNL d   1      25.947 -15.704  -5.116  0.00  0.00     0.157 HD
ENDBRANCH   1  27
BRANCH  15  30
ATOM     30  C   UNL d   1      25.509 -14.171  -2.369  0.00  0.00     0.137 C 
BRANCH  30  31
ATOM     31  C   UNL d   1      24.399 -15.201  -2.396  0.00  0.00     0.059 C 
BRANCH  31  32
ATOM     32  C   UNL d   1      24.348 -16.327  -1.436  0.00  0.00    -0.057 C 
ATOM     33  C   UNL d   1      25.549 -16.982  -1.101  0.00  0.00     0.007 C 
ATOM     34  C   UNL d   1      25.498 -18.149  -0.358  0.00  0.00     0.001 C 
ATOM     35  C   UNL d   1      24.275 -18.573   0.156  0.00  0.00     0.000 C 
ATOM     36  C   UNL d   1      23.116 -17.827  -0.052  0.00  0.00     0.001 C 
ATOM     37  C   UNL d   1      23.141 -16.733  -0.891  0.00  0.00     0.007 C 
ENDBRANCH  31  32
ENDBRANCH  30  31
ENDBRANCH  15  30
TORSDOF 6
ENDMDL
MODEL 6
REMARK VINA RESULT:    -7.855      3.363      4.774
REMARK INTER + INTRA:         -11.397
REMARK INTER:                  -9.645
REMARK INTRA:                  -1.753
REMARK CONF_INDEPENDENT:        1.790
REMARK UNBOUND:                -1.753
REMARK  6 active torsions:
REMARK  status: ('A' for Active; 'I' for Inactive)
REMARK    1  A    between atoms: N_1  and  C_2 
REMARK    2  A    between atoms: C_3  and  C_4 
REMARK       I    between atoms: C_4  and  N_6 
REMARK    3  A    between atoms: N_6  and  C_7 
REMARK    4  A    between atoms: N_26  and  C_27 
REMARK    5  A    between atoms: C_27  and  C_28 
REMARK    6  A    between atoms: C_28  and  C_29 
ROOT
ATOM      1  C   UNL d   1      25.779 -12.243  -3.750  0.00  0.00     0.118 A 
ATOM      2  C   UNL d   1      26.082 -10.877  -3.429  0.00  0.00     0.077 A 
ATOM      3  C   UNL d   1      26.714 -10.566  -2.239  0.00  0.00     0.042 A 
ATOM      4  C   UNL d   1      27.031 -11.597  -1.362  0.00  0.00     0.080 A 
ATOM      5  C   UNL d   1      27.691 -11.297  -0.088  0.00  0.00     0.267 A 
ATOM      6  O   UNL d   1      27.949 -10.115   0.153  0.00  0.00    -0.267 OA
ATOM      7  N   UNL d   1      27.970 -12.368   0.742  0.00  0.00    -0.273 N 
ATOM      8  C   UNL d   1      28.597 -12.112   1.961  0.00  0.00     0.102 A 
ATOM      9  C   UNL d   1      28.901 -13.088   2.821  0.00  0.00     0.018 A 
ATOM     10  C   UNL d   1      28.579 -14.450   2.493  0.00  0.00     0.005 A 
ATOM     11  C   UNL d   1      27.976 -14.752   1.335  0.00  0.00     0.051 A 
ATOM     12  C   UNL d   1      27.629 -13.667   0.362  0.00  0.00     0.139 A 
ATOM     13  N   UNL d   1      27.042 -13.963  -0.764  0.00  0.00    -0.212 NA
ATOM     14  C   UNL d   1      26.728 -12.920  -1.657  0.00  0.00     0.149 A 
ATOM     15  N   UNL d   1      26.106 -13.237  -2.844  0.00  0.00    -0.316 N 
ENDROOT
BRANCH   2  16
ATOM     16  C   UNL d   1      25.670  -9.816  -4.415  0.00  0.00     0.260 C 
ATOM     17  O   UNL d   1      26.224  -9.806  -5.516  0.00  0.00    -0.267 OA
ATOM     18  N   UNL d   1      24.741  -8.855  -4.075  0.00  0.00    -0.321 N 
ATOM     19  H   UNL d   1      24.572  -8.624  -3.104  0.00  0.00     0.169 HD
BRANCH  18  20
ATOM     20  C   UNL d   1      24.441  -7.824  -5.015  0.00  0.00     0.056 A 
ATOM     21  C   UNL d   1      23.280  -7.895  -5.801  0.00  0.00     0.031 A 
ATOM     22  C   UNL d   1      23.069  -6.996  -6.844  0.00  0.00     0.002 A 
ATOM     23  C   UNL d   1      23.961  -5.948  -7.041  0.00  0.00     0.002 A 
ATOM     24  C   UNL d   1      25.057  -5.796  -6.188  0.00  0.00     0.026 A 
ATOM     25  C   UNL d   1      25.320  -6.754  -5.205  0.00  0.00     0.060 A 
ATOM     26 CL   UNL d   1      26.811  -6.666  -4.334  0.00  0.00    -0.082 Cl
ENDBRANCH  18  20
ENDBRANCH   2  16
BRANCH   1  27
ATOM     27  N   UNL d   1      25.156 -12.473  -4.967  0.00  0.00    -0.384 N 
ATOM     28  H   UNL d   1      25.138 -11.678  -5.619  0.00  0.00     0.157 HD
ATOM     29  H   UNL d   1      24.724 -13.241  -5.435  0.00  0.00     0.157 HD
ENDBRANCH   1  27
BRANCH  15  30
ATOM     30  C   UNL d   1      25.821 -14.703  -3.061  0.00  0.00     0.137 C 
BRANCH  30  31
ATOM     31  C   UNL d   1      24.557 -15.205  -2.395  0.00  0.00     0.059 C 
BRANCH  31  32
ATOM     32  C   UNL d   1      24.561 -16.356  -1.465  0.00  0.00    -0.057 C 
ATOM     33  C   UNL d   1      23.331 -16.952  -1.125  0.00  0.00     0.007 C 
ATOM     34  C   UNL d   1      23.295 -17.901  -0.117  0.00  0.00     0.001 C 
ATOM     35  C   UNL d   1      24.491 -18.344   0.440  0.00  0.00     0.000 C 
ATOM     36  C   UNL d   1      25.715 -17.859  -0.018  0.00  0.00     0.001 C 
ATOM     37  C   UNL d   1      25.750 -16.828  -0.934  0.00  0.00     0.007 C 
ENDBRANCH  31  32
ENDBRANCH  30  31
ENDBRANCH  15  30
TORSDOF 6
ENDMDL
MODEL 7
REMARK VINA RESULT:    -7.803      2.143      2.896
REMARK INTER + INTRA:         -11.398
REMARK INTER:                  -9.593
REMARK INTRA:                  -1.805
REMARK CONF_INDEPENDENT:        1.790
REMARK UNBOUND:                -1.805
REMARK  6 active torsions:
REMARK  status: ('A' for Active; 'I' for Inactive)
REMARK    1  A    between atoms: N_1  and  C_2 
REMARK    2  A    between atoms: C_3  and  C_4 
REMARK       I    between atoms: C_4  and  N_6 
REMARK    3  A    between atoms: N_6  and  C_7 
REMARK    4  A    between atoms: N_26  and  C_27 
REMARK    5  A    between atoms: C_27  and  C_28 
REMARK    6  A    between atoms: C_28  and  C_29 
ROOT
ATOM      1  C   UNL d   1      27.305 -14.188  -2.353  0.00  0.00     0.118 A 
ATOM      2  C   UNL d   1      27.179 -13.648  -3.677  0.00  0.00     0.077 A 
ATOM      3  C   UNL d   1      27.815 -14.261  -4.742  0.00  0.00     0.042 A 
ATOM      4  C   UNL d   1      28.585 -15.391  -4.498  0.00  0.00     0.080 A 
ATOM      5  C   UNL d   1      29.280 -16.056  -5.604  0.00  0.00     0.267 A 
ATOM      6  O   UNL d   1      29.142 -15.575  -6.732  0.00  0.00    -0.267 OA
ATOM      7  N   UNL d   1      30.037 -17.171  -5.291  0.00  0.00    -0.273 N 
ATOM      8  C   UNL d   1      30.709 -17.823  -6.324  0.00  0.00     0.102 A 
ATOM      9  C   UNL d   1      31.462 -18.906  -6.109  0.00  0.00     0.018 A 
ATOM     10  C   UNL d   1      31.591 -19.427  -4.775  0.00  0.00     0.005 A 
ATOM     11  C   UNL d   1      30.966 -18.839  -3.746  0.00  0.00     0.051 A 
ATOM     12  C   UNL d   1      30.120 -17.625  -3.974  0.00  0.00     0.139 A 
ATOM     13  N   UNL d   1      29.513 -17.053  -2.971  0.00  0.00    -0.212 NA
ATOM     14  C   UNL d   1      28.726 -15.912  -3.218  0.00  0.00     0.149 A 
ATOM     15  N   UNL d   1      28.088 -15.312  -2.155  0.00  0.00    -0.316 N 
ENDROOT
BRANCH   2  16
ATOM     16  C   UNL d   1      26.359 -12.397  -3.850  0.00  0.00     0.260 C 
ATOM     17  O   UNL d   1      25.172 -12.437  -3.525  0.00  0.00    -0.267 OA
ATOM     18  N   UNL d   1      26.909 -11.260  -4.405  0.00  0.00    -0.321 N 
ATOM     19  H   UNL d   1      27.724 -11.321  -5.001  0.00  0.00     0.169 HD
BRANCH  18  20
ATOM     20  C   UNL d   1      26.071 -10.125  -4.621  0.00  0.00     0.056 A 
ATOM     21  C   UNL d   1      25.435  -9.935  -5.858  0.00  0.00     0.031 A 
ATOM     22  C   UNL d   1      24.766  -8.747  -6.141  0.00  0.00     0.002 A 
ATOM     23  C   UNL d   1      24.630  -7.781  -5.152  0.00  0.00     0.002 A 
ATOM     24  C   UNL d   1      25.155  -8.009  -3.878  0.00  0.00     0.026 A 
ATOM     25  C   UNL d   1      25.910  -9.157  -3.624  0.00  0.00     0.060 A 
ATOM     26 CL   UNL d   1      26.746  -9.290  -2.117  0.00  0.00    -0.082 Cl
ENDBRANCH  18  20
ENDBRANCH   2  16
BRANCH   1  27
ATOM     27  N   UNL d   1      26.628 -13.523  -1.342  0.00  0.00    -0.384 N 
ATOM     28  H   UNL d   1      25.766 -13.039  -1.624  0.00  0.00     0.157 HD
ATOM     29  H   UNL d   1      26.721 -13.398  -0.357  0.00  0.00     0.157 HD
ENDBRANCH   1  27
BRANCH  15  30
ATOM     30  C   UNL d   1      28.312 -15.958  -0.810  0.00  0.00     0.137 C 
BRANCH  30  31
ATOM     31  C   UNL d   1      27.588 -17.274  -0.613  0.00  0.00     0.059 C 
BRANCH  31  32
ATOM     32  C   UNL d   1      26.112 -17.373  -0.652  0.00  0.00    -0.057 C 
ATOM     33  C   UNL d   1      25.412 -16.621  -1.614  0.00  0.00     0.007 C 
ATOM     34  C   UNL d   1      24.030 -16.553  -1.546  0.00  0.00     0.001 C 
ATOM     35  C   UNL d   1      23.358 -17.340  -0.614  0.00  0.00     0.000 C 
ATOM     36  C   UNL d   1      24.058 -18.201   0.230  0.00  0.00     0.001 C 
ATOM     37  C   UNL d   1      25.436 -18.181   0.248  0.00  0.00     0.007 C 
ENDBRANCH  31  32
ENDBRANCH  30  31
ENDBRANCH  15  30
TORSDOF 6
ENDMDL
MODEL 8
REMARK VINA RESULT:    -7.532      5.548      8.019
REMARK INTER + INTRA:         -11.176
REMARK INTER:                  -9.322
REMARK INTRA:                  -1.855
REMARK CONF_INDEPENDENT:        1.790
REMARK UNBOUND:                -1.855
REMARK  6 active torsions:
REMARK  status: ('A' for Active; 'I' for Inactive)
REMARK    1  A    between atoms: N_1  and  C_2 
REMARK    2  A    between atoms: C_3  and  C_4 
REMARK       I    between atoms: C_4  and  N_6 
REMARK    3  A    between atoms: N_6  and  C_7 
REMARK    4  A    between atoms: N_26  and  C_27 
REMARK    5  A    between atoms: C_27  and  C_28 
REMARK    6  A    between atoms: C_28  and  C_29 
ROOT
ATOM      1  C   UNL d   1      27.203 -13.998   0.638  0.00  0.00     0.118 A 
ATOM      2  C   UNL d   1      28.254 -14.461   1.498  0.00  0.00     0.077 A 
ATOM      3  C   UNL d   1      29.302 -15.200   0.980  0.00  0.00     0.042 A 
ATOM      4  C   UNL d   1      29.304 -15.495  -0.378  0.00  0.00     0.080 A 
ATOM      5  C   UNL d   1      30.395 -16.286  -0.953  0.00  0.00     0.267 A 
ATOM      6  O   UNL d   1      31.291 -16.659  -0.190  0.00  0.00    -0.267 OA
ATOM      7  N   UNL d   1      30.331 -16.552  -2.310  0.00  0.00    -0.273 N 
ATOM      8  C   UNL d   1      31.356 -17.303  -2.884  0.00  0.00     0.102 A 
ATOM      9  C   UNL d   1      31.371 -17.605  -4.185  0.00  0.00     0.018 A 
ATOM     10  C   UNL d   1      30.304 -17.147  -5.033  0.00  0.00     0.005 A 
ATOM     11  C   UNL d   1      29.295 -16.421  -4.532  0.00  0.00     0.051 A 
ATOM     12  C   UNL d   1      29.265 -16.077  -3.076  0.00  0.00     0.139 A 
ATOM     13  N   UNL d   1      28.281 -15.372  -2.590  0.00  0.00    -0.212 NA
ATOM     14  C   UNL d   1      28.283 -15.065  -1.216  0.00  0.00     0.149 A 
ATOM     15  N   UNL d   1      27.241 -14.321  -0.708  0.00  0.00    -0.316 N 
ENDROOT
BRANCH   2  16
ATOM     16  C   UNL d   1      28.157 -14.132   2.964  0.00  0.00     0.260 C 
ATOM     17  O   UNL d   1      27.035 -14.076   3.469  0.00  0.00    -0.267 OA
ATOM     18  N   UNL d   1      29.288 -13.850   3.703  0.00  0.00    -0.321 N 
ATOM     19  H   UNL d   1      30.132 -13.527   3.249  0.00  0.00     0.169 HD
BRANCH  18  20
ATOM     20  C   UNL d   1      29.139 -13.467   5.070  0.00  0.00     0.056 A 
ATOM     21  C   UNL d   1      29.458 -14.366   6.099  0.00  0.00     0.031 A 
ATOM     22  C   UNL d   1      29.148 -14.073   7.425  0.00  0.00     0.002 A 
ATOM     23  C   UNL d   1      28.616 -12.830   7.748  0.00  0.00     0.002 A 
ATOM     24  C   UNL d   1      28.407 -11.879   6.747  0.00  0.00     0.026 A 
ATOM     25  C   UNL d   1      28.626 -12.211   5.407  0.00  0.00     0.060 A 
ATOM     26 CL   UNL d   1      28.127 -11.099   4.181  0.00  0.00    -0.082 Cl
ENDBRANCH  18  20
ENDBRANCH   2  16
BRANCH   1  27
ATOM     27  N   UNL d   1      26.195 -13.253   1.231  0.00  0.00    -0.384 N 
ATOM     28  H   UNL d   1      26.088 -13.373   2.246  0.00  0.00     0.157 HD
ATOM     29  H   UNL d   1      25.526 -12.569   0.948  0.00  0.00     0.157 HD
ENDBRANCH   1  27
BRANCH  15  30
ATOM     30  C   UNL d   1      26.186 -13.910  -1.705  0.00  0.00     0.137 C 
BRANCH  30  31
ATOM     31  C   UNL d   1      25.362 -15.052  -2.260  0.00  0.00     0.059 C 
BRANCH  31  32
ATOM     32  C   UNL d   1      24.863 -16.152  -1.403  0.00  0.00    -0.057 C 
ATOM     33  C   UNL d   1      25.800 -17.021  -0.810  0.00  0.00     0.007 C 
ATOM     34  C   UNL d   1      25.350 -18.160  -0.164  0.00  0.00     0.001 C 
ATOM     35  C   UNL d   1      23.981 -18.350   0.003  0.00  0.00     0.000 C 
ATOM     36  C   UNL d   1      23.068 -17.400  -0.454  0.00  0.00     0.001 C 
ATOM     37  C   UNL d   1      23.504 -16.327  -1.201  0.00  0.00     0.007 C 
ENDBRANCH  31  32
ENDBRANCH  30  31
ENDBRANCH  15  30
TORSDOF 6
ENDMDL
MODEL 9
REMARK VINA RESULT:    -7.356      5.171      9.574
REMARK INTER + INTRA:         -11.110
REMARK INTER:                  -9.146
REMARK INTRA:                  -1.964
REMARK CONF_INDEPENDENT:        1.790
REMARK UNBOUND:                -1.964
REMARK  6 active torsions:
REMARK  status: ('A' for Active; 'I' for Inactive)
REMARK    1  A    between atoms: N_1  and  C_2 
REMARK    2  A    between atoms: C_3  and  C_4 
REMARK       I    between atoms: C_4  and  N_6 
REMARK    3  A    between atoms: N_6  and  C_7 
REMARK    4  A    between atoms: N_26  and  C_27 
REMARK    5  A    between atoms: C_27  and  C_28 
REMARK    6  A    between atoms: C_28  and  C_29 
ROOT
ATOM      1  C   UNL d   1      28.314 -14.553  -0.961  0.00  0.00     0.118 A 
ATOM      2  C   UNL d   1      28.943 -15.744  -0.465  0.00  0.00     0.077 A 
ATOM      3  C   UNL d   1      28.184 -16.864  -0.179  0.00  0.00     0.042 A 
ATOM      4  C   UNL d   1      26.809 -16.804  -0.367  0.00  0.00     0.080 A 
ATOM      5  C   UNL d   1      25.978 -17.973  -0.063  0.00  0.00     0.267 A 
ATOM      6  O   UNL d   1      26.549 -18.985   0.350  0.00  0.00    -0.267 OA
ATOM      7  N   UNL d   1      24.614 -17.843  -0.264  0.00  0.00    -0.273 N 
ATOM      8  C   UNL d   1      23.799 -18.939   0.018  0.00  0.00     0.102 A 
ATOM      9  C   UNL d   1      22.474 -18.898  -0.147  0.00  0.00     0.018 A 
ATOM     10  C   UNL d   1      21.855 -17.693  -0.631  0.00  0.00     0.005 A 
ATOM     11  C   UNL d   1      22.592 -16.612  -0.918  0.00  0.00     0.051 A 
ATOM     12  C   UNL d   1      24.078 -16.644  -0.736  0.00  0.00     0.139 A 
ATOM     13  N   UNL d   1      24.794 -15.589  -1.014  0.00  0.00    -0.212 NA
ATOM     14  C   UNL d   1      26.189 -15.652  -0.832  0.00  0.00     0.149 A 
ATOM     15  N   UNL d   1      26.939 -14.535  -1.126  0.00  0.00    -0.316 N 
ENDROOT
BRANCH   2  16
ATOM     16  C   UNL d   1      30.433 -15.713  -0.252  0.00  0.00     0.260 C 
ATOM     17  O   UNL d   1      31.154 -15.565  -1.239  0.00  0.00    -0.267 OA
ATOM     18  N   UNL d   1      30.974 -15.899   1.005  0.00  0.00    -0.321 N 
ATOM     19  H   UNL d   1      30.450 -16.382   1.723  0.00  0.00     0.169 HD
BRANCH  18  20
ATOM     20  C   UNL d   1      32.393 -15.941   1.144  0.00  0.00     0.056 A 
ATOM     21  C   UNL d   1      33.120 -17.056   0.698  0.00  0.00     0.031 A 
ATOM     22  C   UNL d   1      34.475 -17.188   0.990  0.00  0.00     0.002 A 
ATOM     23  C   UNL d   1      35.144 -16.155   1.636  0.00  0.00     0.002 A 
ATOM     24  C   UNL d   1      34.459 -14.987   1.978  0.00  0.00     0.026 A 
ATOM     25  C   UNL d   1      33.079 -14.897   1.773  0.00  0.00     0.060 A 
ATOM     26 CL   UNL d   1      32.226 -13.544   2.428  0.00  0.00    -0.082 Cl
ENDBRANCH  18  20
ENDBRANCH   2  16
BRANCH   1  27
ATOM     27  N   UNL d   1      29.145 -13.477  -1.234  0.00  0.00    -0.384 N 
ATOM     28  H   UNL d   1      30.089 -13.713  -1.565  0.00  0.00     0.157 HD
ATOM     29  H   UNL d   1      29.078 -12.482  -1.235  0.00  0.00     0.157 HD
ENDBRANCH   1  27
BRANCH  15  30
ATOM     30  C   UNL d   1      26.164 -13.339  -1.620  0.00  0.00     0.137 C 
BRANCH  30  31
ATOM     31  C   UNL d   1      25.684 -13.445  -3.053  0.00  0.00     0.059 C 
BRANCH  31  32
ATOM     32  C   UNL d   1      26.575 -13.882  -4.151  0.00  0.00    -0.057 C 
ATOM     33  C   UNL d   1      27.070 -15.200  -4.134  0.00  0.00     0.007 C 
ATOM     34  C   UNL d   1      28.048 -15.567  -5.043  0.00  0.00     0.001 C 
ATOM     35  C   UNL d   1      28.420 -14.668  -6.039  0.00  0.00     0.000 C 
ATOM     36  C   UNL d   1      27.808 -13.420  -6.139  0.00  0.00     0.001 C 
ATOM     37  C   UNL d   1      26.922 -13.005  -5.167  0.00  0.00     0.007 C 
ENDBRANCH  31  32
ENDBRANCH  30  31
ENDBRANCH  15  30
TORSDOF 6
ENDMDL
