MODEL 1
REMARK VINA RESULT:    -8.849      0.000      0.000
REMARK INTER + INTRA:         -15.604
REMARK INTER:                 -11.832
REMARK INTRA:                  -3.773
REMARK CONF_INDEPENDENT:        2.983
REMARK UNBOUND:                -3.773
REMARK  10 active torsions:
REMARK  status: ('A' for Active; 'I' for Inactive)
REMARK    1  A    between atoms: C_5  and  N_6 
REMARK       I    between atoms: N_6  and  C_7 
REMARK    2  A    between atoms: N_6  and  C_18 
REMARK    3  A    between atoms: C_7  and  C_9 
REMARK    4  A    between atoms: C_12  and  C_13 
REMARK       I    between atoms: C_13  and  N_14 
REMARK    5  A    between atoms: C_16  and  N_17 
REMARK    6  A    between atoms: C_18  and  C_19 
REMARK    7  A    between atoms: C_18  and  C_27 
REMARK       I    between atoms: C_19  and  N_21 
REMARK    8  A    between atoms: N_21  and  C_22 
REMARK    9  A    between atoms: C_22  and  C_23 
REMARK   10  A    between atoms: C_23  and  C_24 
ROOT
ATOM      1  N   UNL d   1      27.402 -14.171  -0.999  0.00  0.00    -0.295 N 
ATOM      2  C   UNL d   1      28.268 -14.607   0.221  0.00  0.00     0.269 C 
ATOM      3  O   UNL d   1      28.974 -15.577   0.157  0.00  0.00    -0.266 OA
ENDROOT
BRANCH   1   4
ATOM      4  C   UNL d   1      27.254 -12.734  -1.478  0.00  0.00     0.044 C 
ATOM      5  C   UNL d   1      28.002 -11.648  -0.975  0.00  0.00     0.031 C 
ATOM      6  C   UNL d   1      27.678 -10.291  -1.285  0.00  0.00     0.009 C 
ATOM      7  C   UNL d   1      26.871  -9.994  -2.366  0.00  0.00    -0.061 C 
ATOM      8  C   UNL d   1      26.578  -8.662  -2.951  0.00  0.00     0.048 C 
ATOM      9  C   UNL d   1      26.282 -11.040  -2.996  0.00  0.00     0.015 C 
ATOM     10  C   UNL d   1      26.319 -12.310  -2.433  0.00  0.00    -0.035 C 
ATOM     11  C   UNL d   1      25.336 -13.136  -3.107  0.00  0.00     0.050 C 
ENDBRANCH   1   4
BRANCH   1  12
ATOM     12  C   UNL d   1      26.910 -15.266  -2.097  0.00  0.00     0.218 C 
BRANCH  12  13
ATOM     13  C   UNL d   1      28.012 -15.778  -3.176  0.00  0.00     0.245 C 
ATOM     14  O   UNL d   1      27.766 -15.894  -4.379  0.00  0.00    -0.271 OA
ATOM     15  N   UNL d   1      29.329 -15.928  -2.776  0.00  0.00    -0.359 N 
ATOM     16  H   UNL d   1      29.579 -16.060  -1.828  0.00  0.00     0.162 HD
BRANCH  15  17
ATOM     17  C   UNL d   1      30.379 -16.397  -3.636  0.00  0.00     0.123 C 
BRANCH  17  18
ATOM     18  C   UNL d   1      30.039 -17.777  -4.223  0.00  0.00     0.023 C 
BRANCH  18  19
ATOM     19  C   UNL d   1      30.760 -17.993  -5.557  0.00  0.00    -0.021 C 
ATOM     20  C   UNL d   1      30.407 -19.362  -6.136  0.00  0.00     0.009 C 
ATOM     21  C   UNL d   1      30.401 -16.901  -6.562  0.00  0.00     0.009 C 
ENDBRANCH  18  19
ENDBRANCH  17  18
ENDBRANCH  15  17
ENDBRANCH  12  13
BRANCH  12  22
ATOM     22  C   UNL d   1      26.089 -16.486  -1.572  0.00  0.00    -0.026 C 
ATOM     23  C   UNL d   1      26.519 -17.489  -0.691  0.00  0.00     0.013 C 
ATOM     24  C   UNL d   1      25.577 -18.393  -0.142  0.00  0.00     0.043 C 
ATOM     25  C   UNL d   1      24.213 -18.221  -0.376  0.00  0.00     0.116 C 
ATOM     26  F   UNL d   1      23.304 -19.045   0.156  0.00  0.00    -0.206 F 
ATOM     27  C   UNL d   1      23.803 -17.292  -1.285  0.00  0.00     0.043 C 
ATOM     28  C   UNL d   1      24.791 -16.658  -2.011  0.00  0.00     0.013 C 
ENDBRANCH  12  22
ENDBRANCH   1  12
BRANCH   2  29
ATOM     29  C   UNL d   1      28.341 -13.822   1.531  0.00  0.00     0.115 C 
ATOM     30  S   UNL d   1      26.957 -12.775   1.871  0.00  0.00     0.019 SA
ATOM     31  N   UNL d   1      27.027 -12.907   3.534  0.00  0.00    -0.203 NA
ATOM     32  C   UNL d   1      28.168 -13.526   3.870  0.00  0.00     0.155 C 
ATOM     33  C   UNL d   1      29.020 -13.958   2.728  0.00  0.00     0.065 C 
BRANCH  32  34
ATOM     34  C   UNL d   1      28.347 -14.066   5.251  0.00  0.00     0.270 C 
ATOM     35  N   UNL d   1      28.863 -15.330   5.387  0.00  0.00    -0.365 N 
ATOM     36  H   UNL d   1      29.161 -15.879   4.594  0.00  0.00     0.159 HD
ATOM     37  H   UNL d   1      28.899 -15.715   6.321  0.00  0.00     0.159 HD
ATOM     38  O   UNL d   1      28.144 -13.397   6.258  0.00  0.00    -0.266 OA
ENDBRANCH  32  34
BRANCH  33  39
ATOM     39  N   UNL d   1      30.072 -14.815   2.874  0.00  0.00    -0.299 NA
ATOM     40  H   UNL d   1      30.096 -15.318   3.773  0.00  0.00     0.124 HD
ATOM     41  H   UNL d   1      30.213 -15.506   2.141  0.00  0.00     0.124 HD
ENDBRANCH  33  39
ENDBRANCH   2  29
TORSDOF 10
ENDMDL
MODEL 2
REMARK VINA RESULT:    -8.841      2.828      5.098
REMARK INTER + INTRA:         -16.341
REMARK INTER:                 -11.824
REMARK INTRA:                  -4.517
REMARK CONF_INDEPENDENT:        2.983
REMARK UNBOUND:                -4.517
REMARK  10 active torsions:
REMARK  status: ('A' for Active; 'I' for Inactive)
REMARK    1  A    between atoms: C_5  and  N_6 
REMARK       I    between atoms: N_6  and  C_7 
REMARK    2  A    between atoms: N_6  and  C_18 
REMARK    3  A    between atoms: C_7  and  C_9 
REMARK    4  A    between atoms: C_12  and  C_13 
REMARK       I    between atoms: C_13  and  N_14 
REMARK    5  A    between atoms: C_16  and  N_17 
REMARK    6  A    between atoms: C_18  and  C_19 
REMARK    7  A    between atoms: C_18  and  C_27 
REMARK       I    between atoms: C_19  and  N_21 
REMARK    8  A    between atoms: N_21  and  C_22 
REMARK    9  A    between atoms: C_22  and  C_23 
REMARK   10  A    between atoms: C_23  and  C_24 
ROOT
ATOM      1  N   UNL d   1      28.485 -16.318  -0.665  0.00  0.00    -0.295 N 
ATOM      2  C   UNL d   1      29.139 -14.987  -0.184  0.00  0.00     0.269 C 
ATOM      3  O   UNL d   1      30.023 -14.476  -0.815  0.00  0.00    -0.266 OA
ENDROOT
BRANCH   1   4
ATOM      4  C   UNL d   1      26.988 -16.591  -0.660  0.00  0.00     0.044 C 
ATOM      5  C   UNL d   1      26.038 -15.820  -1.363  0.00  0.00     0.031 C 
ATOM      6  C   UNL d   1      24.632 -15.966  -1.154  0.00  0.00     0.009 C 
ATOM      7  C   UNL d   1      24.130 -17.102  -0.549  0.00  0.00    -0.061 C 
ATOM      8  C   UNL d   1      22.711 -17.517  -0.415  0.00  0.00     0.048 C 
ATOM      9  C   UNL d   1      25.033 -17.967  -0.025  0.00  0.00     0.015 C 
ATOM     10  C   UNL d   1      26.370 -17.604   0.086  0.00  0.00    -0.035 C 
ATOM     11  C   UNL d   1      27.023 -18.540   0.980  0.00  0.00     0.050 C 
ENDBRANCH   1   4
BRANCH   1  12
ATOM     12  C   UNL d   1      29.324 -17.366  -1.583  0.00  0.00     0.218 C 
BRANCH  12  13
ATOM     13  C   UNL d   1      29.572 -16.956  -3.136  0.00  0.00     0.245 C 
ATOM     14  O   UNL d   1      29.746 -17.790  -4.028  0.00  0.00    -0.271 OA
ATOM     15  N   UNL d   1      29.410 -15.636  -3.519  0.00  0.00    -0.359 N 
ATOM     16  H   UNL d   1      29.477 -14.888  -2.874  0.00  0.00     0.162 HD
BRANCH  15  17
ATOM     17  C   UNL d   1      29.627 -15.157  -4.856  0.00  0.00     0.123 C 
BRANCH  17  18
ATOM     18  C   UNL d   1      28.292 -14.883  -5.569  0.00  0.00     0.023 C 
BRANCH  18  19
ATOM     19  C   UNL d   1      27.134 -14.867  -4.567  0.00  0.00    -0.021 C 
ATOM     20  C   UNL d   1      26.775 -13.429  -4.195  0.00  0.00     0.009 C 
ATOM     21  C   UNL d   1      25.905 -15.575  -5.132  0.00  0.00     0.009 C 
ENDBRANCH  18  19
ENDBRANCH  17  18
ENDBRANCH  15  17
ENDBRANCH  12  13
BRANCH  12  22
ATOM     22  C   UNL d   1      30.644 -17.948  -0.982  0.00  0.00    -0.026 C 
ATOM     23  C   UNL d   1      31.446 -17.383   0.020  0.00  0.00     0.013 C 
ATOM     24  C   UNL d   1      32.481 -18.152   0.606  0.00  0.00     0.043 C 
ATOM     25  C   UNL d   1      32.633 -19.499   0.280  0.00  0.00     0.116 C 
ATOM     26  F   UNL d   1      33.586 -20.251   0.842  0.00  0.00    -0.206 F 
ATOM     27  C   UNL d   1      31.900 -20.026  -0.742  0.00  0.00     0.043 C 
ATOM     28  C   UNL d   1      31.133 -19.142  -1.472  0.00  0.00     0.013 C 
ENDBRANCH  12  22
ENDBRANCH   1  12
BRANCH   2  29
ATOM     29  C   UNL d   1      28.675 -14.215   1.051  0.00  0.00     0.115 C 
ATOM     30  S   UNL d   1      27.065 -13.490   0.938  0.00  0.00     0.019 SA
ATOM     31  N   UNL d   1      26.689 -13.617   2.560  0.00  0.00    -0.203 NA
ATOM     32  C   UNL d   1      27.792 -13.980   3.231  0.00  0.00     0.155 C 
ATOM     33  C   UNL d   1      29.001 -14.211   2.395  0.00  0.00     0.065 C 
BRANCH  32  34
ATOM     34  C   UNL d   1      27.681 -14.480   4.634  0.00  0.00     0.270 C 
ATOM     35  N   UNL d   1      28.433 -15.570   4.992  0.00  0.00    -0.365 N 
ATOM     36  H   UNL d   1      29.081 -16.010   4.355  0.00  0.00     0.159 HD
ATOM     37  H   UNL d   1      28.285 -15.949   5.917  0.00  0.00     0.159 HD
ATOM     38  O   UNL d   1      27.027 -13.902   5.496  0.00  0.00    -0.266 OA
ENDBRANCH  32  34
BRANCH  33  39
ATOM     39  N   UNL d   1      30.123 -14.824   2.872  0.00  0.00    -0.299 NA
ATOM     40  H   UNL d   1      30.037 -15.195   3.830  0.00  0.00     0.124 HD
ATOM     41  H   UNL d   1      30.527 -15.563   2.302  0.00  0.00     0.124 HD
ENDBRANCH  33  39
ENDBRANCH   2  29
TORSDOF 10
ENDMDL
MODEL 3
REMARK VINA RESULT:    -8.684      2.945      8.396
REMARK INTER + INTRA:         -15.545
REMARK INTER:                 -11.667
REMARK INTRA:                  -3.879
REMARK CONF_INDEPENDENT:        2.983
REMARK UNBOUND:                -3.879
REMARK  10 active torsions:
REMARK  status: ('A' for Active; 'I' for Inactive)
REMARK    1  A    between atoms: C_5  and  N_6 
REMARK       I    between atoms: N_6  and  C_7 
REMARK    2  A    between atoms: N_6  and  C_18 
REMARK    3  A    between atoms: C_7  and  C_9 
REMARK    4  A    between atoms: C_12  and  C_13 
REMARK       I    between atoms: C_13  and  N_14 
REMARK    5  A    between atoms: C_16  and  N_17 
REMARK    6  A    between atoms: C_18  and  C_19 
REMARK    7  A    between atoms: C_18  and  C_27 
REMARK       I    between atoms: C_19  and  N_21 
REMARK    8  A    between atoms: N_21  and  C_22 
REMARK    9  A    between atoms: C_22  and  C_23 
REMARK   10  A    between atoms: C_23  and  C_24 
ROOT
ATOM      1  N   UNL d   1      26.935 -15.155  -0.810  0.00  0.00    -0.295 N 
ATOM      2  C   UNL d   1      28.143 -15.211  -1.792  0.00  0.00     0.269 C 
ATOM      3  O   UNL d   1      29.260 -15.004  -1.403  0.00  0.00    -0.266 OA
ENDROOT
BRANCH   1   4
ATOM      4  C   UNL d   1      25.800 -16.169  -0.783  0.00  0.00     0.044 C 
ATOM      5  C   UNL d   1      24.527 -15.950  -1.351  0.00  0.00     0.031 C 
ATOM      6  C   UNL d   1      23.424 -16.826  -1.110  0.00  0.00     0.009 C 
ATOM      7  C   UNL d   1      23.638 -18.103  -0.630  0.00  0.00    -0.061 C 
ATOM      8  C   UNL d   1      22.654 -19.207  -0.495  0.00  0.00     0.048 C 
ATOM      9  C   UNL d   1      24.902 -18.411  -0.249  0.00  0.00     0.015 C 
ATOM     10  C   UNL d   1      25.865 -17.415  -0.143  0.00  0.00    -0.035 C 
ATOM     11  C   UNL d   1      26.988 -17.944   0.605  0.00  0.00     0.050 C 
ENDBRANCH   1   4
BRANCH   1  12
ATOM     12  C   UNL d   1      27.000 -14.233   0.529  0.00  0.00     0.218 C 
BRANCH  12  13
ATOM     13  C   UNL d   1      28.132 -14.610   1.633  0.00  0.00     0.245 C 
ATOM     14  O   UNL d   1      29.207 -15.139   1.335  0.00  0.00    -0.271 OA
ATOM     15  N   UNL d   1      27.977 -14.171   2.936  0.00  0.00    -0.359 N 
ATOM     16  H   UNL d   1      27.091 -13.935   3.310  0.00  0.00     0.162 HD
BRANCH  15  17
ATOM     17  C   UNL d   1      28.899 -14.466   3.997  0.00  0.00     0.123 C 
BRANCH  17  18
ATOM     18  C   UNL d   1      28.155 -14.811   5.298  0.00  0.00     0.023 C 
BRANCH  18  19
ATOM     19  C   UNL d   1      28.196 -13.633   6.275  0.00  0.00    -0.021 C 
ATOM     20  C   UNL d   1      29.457 -13.700   7.135  0.00  0.00     0.009 C 
ATOM     21  C   UNL d   1      28.148 -12.298   5.535  0.00  0.00     0.009 C 
ENDBRANCH  18  19
ENDBRANCH  17  18
ENDBRANCH  15  17
ENDBRANCH  12  13
BRANCH  12  22
ATOM     22  C   UNL d   1      26.960 -12.684   0.335  0.00  0.00    -0.026 C 
ATOM     23  C   UNL d   1      26.836 -11.702   1.329  0.00  0.00     0.013 C 
ATOM     24  C   UNL d   1      27.046 -10.340   1.001  0.00  0.00     0.043 C 
ATOM     25  C   UNL d   1      27.490  -9.980  -0.270  0.00  0.00     0.116 C 
ATOM     26  F   UNL d   1      27.722  -8.703  -0.593  0.00  0.00    -0.206 F 
ATOM     27  C   UNL d   1      27.543 -10.924  -1.253  0.00  0.00     0.043 C 
ATOM     28  C   UNL d   1      27.030 -12.167  -0.944  0.00  0.00     0.013 C 
ENDBRANCH  12  22
ENDBRANCH   1  12
BRANCH   2  29
ATOM     29  C   UNL d   1      28.017 -15.590  -3.268  0.00  0.00     0.115 C 
ATOM     30  S   UNL d   1      26.458 -15.225  -4.019  0.00  0.00     0.019 SA
ATOM     31  N   UNL d   1      27.052 -14.938  -5.553  0.00  0.00    -0.203 NA
ATOM     32  C   UNL d   1      28.340 -15.310  -5.593  0.00  0.00     0.155 C 
ATOM     33  C   UNL d   1      28.898 -15.816  -4.309  0.00  0.00     0.065 C 
BRANCH  32  34
ATOM     34  C   UNL d   1      29.209 -14.874  -6.726  0.00  0.00     0.270 C 
ATOM     35  N   UNL d   1      28.719 -13.923  -7.586  0.00  0.00    -0.365 N 
ATOM     36  H   UNL d   1      27.820 -13.486  -7.449  0.00  0.00     0.159 HD
ATOM     37  H   UNL d   1      29.282 -13.700  -8.395  0.00  0.00     0.159 HD
ATOM     38  O   UNL d   1      30.366 -15.256  -6.862  0.00  0.00    -0.266 OA
ENDBRANCH  32  34
BRANCH  33  39
ATOM     39  N   UNL d   1      30.236 -15.993  -4.103  0.00  0.00    -0.299 NA
ATOM     40  H   UNL d   1      30.842 -15.541  -4.803  0.00  0.00     0.124 HD
ATOM     41  H   UNL d   1      30.602 -15.745  -3.187  0.00  0.00     0.124 HD
ENDBRANCH  33  39
ENDBRANCH   2  29
TORSDOF 10
ENDMDL
MODEL 4
REMARK VINA RESULT:    -8.428      2.942      7.905
REMARK INTER + INTRA:         -15.459
REMARK INTER:                 -11.411
REMARK INTRA:                  -4.047
REMARK CONF_INDEPENDENT:        2.983
REMARK UNBOUND:                -4.047
REMARK  10 active torsions:
REMARK  status: ('A' for Active; 'I' for Inactive)
REMARK    1  A    between atoms: C_5  and  N_6 
REMARK       I    between atoms: N_6  and  C_7 
REMARK    2  A    between atoms: N_6  and  C_18 
REMARK    3  A    between atoms: C_7  and  C_9 
REMARK    4  A    between atoms: C_12  and  C_13 
REMARK       I    between atoms: C_13  and  N_14 
REMARK    5  A    between atoms: C_16  and  N_17 
REMARK    6  A    between atoms: C_18  and  C_19 
REMARK    7  A    between atoms: C_18  and  C_27 
REMARK       I    between atoms: C_19  and  N_21 
REMARK    8  A    between atoms: N_21  and  C_22 
REMARK    9  A    between atoms: C_22  and  C_23 
REMARK   10  A    between atoms: C_23  and  C_24 
ROOT
ATOM      1  N   UNL d   1      27.218 -15.387  -0.209  0.00  0.00    -0.295 N 
ATOM      2  C   UNL d   1      28.692 -15.894  -0.235  0.00  0.00     0.269 C 
ATOM      3  O   UNL d   1      29.476 -15.543   0.605  0.00  0.00    -0.266 OA
ENDROOT
BRANCH   1   4
ATOM      4  C   UNL d   1      26.002 -16.268  -0.452  0.00  0.00     0.044 C 
ATOM      5  C   UNL d   1      24.877 -15.878  -1.209  0.00  0.00     0.031 C 
ATOM      6  C   UNL d   1      23.667 -16.638  -1.226  0.00  0.00     0.009 C 
ATOM      7  C   UNL d   1      23.665 -17.956  -0.813  0.00  0.00    -0.061 C 
ATOM      8  C   UNL d   1      22.568 -18.950  -0.931  0.00  0.00     0.048 C 
ATOM      9  C   UNL d   1      24.805 -18.424  -0.248  0.00  0.00     0.015 C 
ATOM     10  C   UNL d   1      25.828 -17.548   0.094  0.00  0.00    -0.035 C 
ATOM     11  C   UNL d   1      26.743 -18.241   0.981  0.00  0.00     0.050 C 
ENDBRANCH   1   4
BRANCH   1  12
ATOM     12  C   UNL d   1      26.847 -13.959   0.477  0.00  0.00     0.218 C 
BRANCH  12  13
ATOM     13  C   UNL d   1      27.425 -13.683   1.970  0.00  0.00     0.245 C 
ATOM     14  O   UNL d   1      27.123 -12.684   2.630  0.00  0.00    -0.271 OA
ATOM     15  N   UNL d   1      28.143 -14.678   2.611  0.00  0.00    -0.359 N 
ATOM     16  H   UNL d   1      28.601 -15.400   2.113  0.00  0.00     0.162 HD
BRANCH  15  17
ATOM     17  C   UNL d   1      28.720 -14.535   3.918  0.00  0.00     0.123 C 
BRANCH  17  18
ATOM     18  C   UNL d   1      27.630 -14.451   4.999  0.00  0.00     0.023 C 
BRANCH  18  19
ATOM     19  C   UNL d   1      28.075 -13.544   6.150  0.00  0.00    -0.021 C 
ATOM     20  C   UNL d   1      29.422 -14.009   6.701  0.00  0.00     0.009 C 
ATOM     21  C   UNL d   1      28.177 -12.089   5.699  0.00  0.00     0.009 C 
ENDBRANCH  18  19
ENDBRANCH  17  18
ENDBRANCH  15  17
ENDBRANCH  12  13
BRANCH  12  22
ATOM     22  C   UNL d   1      27.030 -12.677  -0.397  0.00  0.00    -0.026 C 
ATOM     23  C   UNL d   1      27.538 -11.434   0.009  0.00  0.00     0.013 C 
ATOM     24  C   UNL d   1      27.848 -10.452  -0.964  0.00  0.00     0.043 C 
ATOM     25  C   UNL d   1      27.764 -10.751  -2.323  0.00  0.00     0.116 C 
ATOM     26  F   UNL d   1      28.078  -9.847  -3.258  0.00  0.00    -0.206 F 
ATOM     27  C   UNL d   1      27.205 -11.931  -2.714  0.00  0.00     0.043 C 
ATOM     28  C   UNL d   1      26.643 -12.709  -1.722  0.00  0.00     0.013 C 
ENDBRANCH  12  22
ENDBRANCH   1  12
BRANCH   2  29
ATOM     29  C   UNL d   1      29.222 -16.900  -1.256  0.00  0.00     0.115 C 
ATOM     30  S   UNL d   1      28.854 -16.537  -2.948  0.00  0.00     0.019 SA
ATOM     31  N   UNL d   1      30.234 -17.223  -3.591  0.00  0.00    -0.203 NA
ATOM     32  C   UNL d   1      30.866 -17.907  -2.626  0.00  0.00     0.155 C 
ATOM     33  C   UNL d   1      30.232 -17.845  -1.280  0.00  0.00     0.065 C 
BRANCH  32  34
ATOM     34  C   UNL d   1      32.278 -18.348  -2.825  0.00  0.00     0.270 C 
ATOM     35  N   UNL d   1      32.831 -19.186  -1.890  0.00  0.00    -0.365 N 
ATOM     36  H   UNL d   1      32.303 -19.542  -1.106  0.00  0.00     0.159 HD
ATOM     37  H   UNL d   1      33.812 -19.408  -1.992  0.00  0.00     0.159 HD
ATOM     38  O   UNL d   1      32.925 -18.072  -3.829  0.00  0.00    -0.266 OA
ENDBRANCH  32  34
BRANCH  33  39
ATOM     39  N   UNL d   1      30.866 -18.260  -0.145  0.00  0.00    -0.299 NA
ATOM     40  H   UNL d   1      30.716 -17.657   0.676  0.00  0.00     0.124 HD
ATOM     41  H   UNL d   1      30.702 -19.218   0.155  0.00  0.00     0.124 HD
ENDBRANCH  33  39
ENDBRANCH   2  29
TORSDOF 10
ENDMDL
MODEL 5
REMARK VINA RESULT:    -8.324      3.225      6.848
REMARK INTER + INTRA:         -15.765
REMARK INTER:                 -11.307
REMARK INTRA:                  -4.459
REMARK CONF_INDEPENDENT:        2.983
REMARK UNBOUND:                -4.459
REMARK  10 active torsions:
REMARK  status: ('A' for Active; 'I' for Inactive)
REMARK    1  A    between atoms: C_5  and  N_6 
REMARK       I    between atoms: N_6  and  C_7 
REMARK    2  A    between atoms: N_6  and  C_18 
REMARK    3  A    between atoms: C_7  and  C_9 
REMARK    4  A    between atoms: C_12  and  C_13 
REMARK       I    between atoms: C_13  and  N_14 
REMARK    5  A    between atoms: C_16  and  N_17 
REMARK    6  A    between atoms: C_18  and  C_19 
REMARK    7  A    between atoms: C_18  and  C_27 
REMARK       I    between atoms: C_19  and  N_21 
REMARK    8  A    between atoms: N_21  and  C_22 
REMARK    9  A    between atoms: C_22  and  C_23 
REMARK   10  A    between atoms: C_23  and  C_24 
ROOT
ATOM      1  N   UNL d   1      26.824 -15.766  -0.963  0.00  0.00    -0.295 N 
ATOM      2  C   UNL d   1      27.394 -15.235  -2.313  0.00  0.00     0.269 C 
ATOM      3  O   UNL d   1      28.559 -15.356  -2.576  0.00  0.00    -0.266 OA
ENDROOT
BRANCH   1   4
ATOM      4  C   UNL d   1      25.517 -16.534  -0.824  0.00  0.00     0.044 C 
ATOM      5  C   UNL d   1      24.259 -16.041  -1.231  0.00  0.00     0.031 C 
ATOM      6  C   UNL d   1      23.036 -16.690  -0.880  0.00  0.00     0.009 C 
ATOM      7  C   UNL d   1      23.039 -18.005  -0.456  0.00  0.00    -0.061 C 
ATOM      8  C   UNL d   1      21.873 -18.896  -0.229  0.00  0.00     0.048 C 
ATOM      9  C   UNL d   1      24.249 -18.575  -0.235  0.00  0.00     0.015 C 
ATOM     10  C   UNL d   1      25.399 -17.796  -0.223  0.00  0.00    -0.035 C 
ATOM     11  C   UNL d   1      26.469 -18.571   0.375  0.00  0.00     0.050 C 
ENDBRANCH   1   4
BRANCH   1  12
ATOM     12  C   UNL d   1      27.780 -15.889   0.347  0.00  0.00     0.218 C 
BRANCH  12  13
ATOM     13  C   UNL d   1      29.364 -16.141   0.086  0.00  0.00     0.245 C 
ATOM     14  O   UNL d   1      30.244 -15.699   0.831  0.00  0.00    -0.271 OA
ATOM     15  N   UNL d   1      29.752 -17.027  -0.904  0.00  0.00    -0.359 N 
ATOM     16  H   UNL d   1      29.161 -17.260  -1.663  0.00  0.00     0.162 HD
BRANCH  15  17
ATOM     17  C   UNL d   1      31.121 -17.307  -1.238  0.00  0.00     0.123 C 
BRANCH  17  18
ATOM     18  C   UNL d   1      31.444 -16.857  -2.672  0.00  0.00     0.023 C 
BRANCH  18  19
ATOM     19  C   UNL d   1      30.506 -17.532  -3.678  0.00  0.00    -0.021 C 
ATOM     20  C   UNL d   1      30.415 -16.703  -4.958  0.00  0.00     0.009 C 
ATOM     21  C   UNL d   1      30.979 -18.946  -4.011  0.00  0.00     0.009 C 
ENDBRANCH  18  19
ENDBRANCH  17  18
ENDBRANCH  15  17
ENDBRANCH  12  13
BRANCH  12  22
ATOM     22  C   UNL d   1      27.603 -14.814   1.467  0.00  0.00    -0.026 C 
ATOM     23  C   UNL d   1      28.157 -14.825   2.755  0.00  0.00     0.013 C 
ATOM     24  C   UNL d   1      28.081 -13.663   3.562  0.00  0.00     0.043 C 
ATOM     25  C   UNL d   1      27.567 -12.475   3.043  0.00  0.00     0.116 C 
ATOM     26  F   UNL d   1      27.512 -11.358   3.778  0.00  0.00    -0.206 F 
ATOM     27  C   UNL d   1      26.968 -12.484   1.819  0.00  0.00     0.043 C 
ATOM     28  C   UNL d   1      26.803 -13.716   1.220  0.00  0.00     0.013 C 
ENDBRANCH  12  22
ENDBRANCH   1  12
BRANCH   2  29
ATOM     29  C   UNL d   1      26.531 -14.603  -3.405  0.00  0.00     0.115 C 
ATOM     30  S   UNL d   1      25.118 -13.704  -2.837  0.00  0.00     0.019 SA
ATOM     31  N   UNL d   1      25.097 -12.585  -4.077  0.00  0.00    -0.203 NA
ATOM     32  C   UNL d   1      25.967 -12.973  -5.021  0.00  0.00     0.155 C 
ATOM     33  C   UNL d   1      26.727 -14.217  -4.718  0.00  0.00     0.065 C 
BRANCH  32  34
ATOM     34  C   UNL d   1      26.395 -12.012  -6.082  0.00  0.00     0.270 C 
ATOM     35  N   UNL d   1      25.605 -10.915  -6.315  0.00  0.00    -0.365 N 
ATOM     36  H   UNL d   1      24.780 -10.719  -5.768  0.00  0.00     0.159 HD
ATOM     37  H   UNL d   1      25.860 -10.320  -7.091  0.00  0.00     0.159 HD
ATOM     38  O   UNL d   1      27.460 -12.113  -6.679  0.00  0.00    -0.266 OA
ENDBRANCH  32  34
BRANCH  33  39
ATOM     39  N   UNL d   1      27.819 -14.609  -5.437  0.00  0.00    -0.299 NA
ATOM     40  H   UNL d   1      28.249 -13.865  -6.006  0.00  0.00     0.124 HD
ATOM     41  H   UNL d   1      28.570 -15.067  -4.927  0.00  0.00     0.124 HD
ENDBRANCH  33  39
ENDBRANCH   2  29
TORSDOF 10
ENDMDL
MODEL 6
REMARK VINA RESULT:    -8.186      2.528      5.580
REMARK INTER + INTRA:         -15.623
REMARK INTER:                 -11.169
REMARK INTRA:                  -4.454
REMARK CONF_INDEPENDENT:        2.983
REMARK UNBOUND:                -4.454
REMARK  10 active torsions:
REMARK  status: ('A' for Active; 'I' for Inactive)
REMARK    1  A    between atoms: C_5  and  N_6 
REMARK       I    between atoms: N_6  and  C_7 
REMARK    2  A    between atoms: N_6  and  C_18 
REMARK    3  A    between atoms: C_7  and  C_9 
REMARK    4  A    between atoms: C_12  and  C_13 
REMARK       I    between atoms: C_13  and  N_14 
REMARK    5  A    between atoms: C_16  and  N_17 
REMARK    6  A    between atoms: C_18  and  C_19 
REMARK    7  A    between atoms: C_18  and  C_27 
REMARK       I    between atoms: C_19  and  N_21 
REMARK    8  A    between atoms: N_21  and  C_22 
REMARK    9  A    between atoms: C_22  and  C_23 
REMARK   10  A    between atoms: C_23  and  C_24 
ROOT
ATOM      1  N   UNL d   1      27.786 -15.259  -1.811  0.00  0.00    -0.295 N 
ATOM      2  C   UNL d   1      28.237 -13.830  -1.382  0.00  0.00     0.269 C 
ATOM      3  O   UNL d   1      28.493 -12.994  -2.206  0.00  0.00    -0.266 OA
ENDROOT
BRANCH   1   4
ATOM      4  C   UNL d   1      26.643 -16.029  -1.166  0.00  0.00     0.044 C 
ATOM      5  C   UNL d   1      26.805 -16.960  -0.118  0.00  0.00     0.031 C 
ATOM      6  C   UNL d   1      25.749 -17.825   0.304  0.00  0.00     0.009 C 
ATOM      7  C   UNL d   1      24.438 -17.540  -0.028  0.00  0.00    -0.061 C 
ATOM      8  C   UNL d   1      23.204 -18.202   0.465  0.00  0.00     0.048 C 
ATOM      9  C   UNL d   1      24.233 -16.518  -0.895  0.00  0.00     0.015 C 
ATOM     10  C   UNL d   1      25.304 -15.949  -1.574  0.00  0.00    -0.035 C 
ATOM     11  C   UNL d   1      24.780 -15.153  -2.667  0.00  0.00     0.050 C 
ENDBRANCH   1   4
BRANCH   1  12
ATOM     12  C   UNL d   1      28.243 -15.874  -3.246  0.00  0.00     0.218 C 
BRANCH  12  13
ATOM     13  C   UNL d   1      27.768 -15.074  -4.579  0.00  0.00     0.245 C 
ATOM     14  O   UNL d   1      27.023 -15.572  -5.427  0.00  0.00    -0.271 OA
ATOM     15  N   UNL d   1      28.057 -13.726  -4.696  0.00  0.00    -0.359 N 
ATOM     16  H   UNL d   1      28.798 -13.301  -4.196  0.00  0.00     0.162 HD
BRANCH  15  17
ATOM     17  C   UNL d   1      27.709 -12.928  -5.838  0.00  0.00     0.123 C 
BRANCH  17  18
ATOM     18  C   UNL d   1      27.458 -11.465  -5.436  0.00  0.00     0.023 C 
BRANCH  18  19
ATOM     19  C   UNL d   1      26.647 -11.390  -4.139  0.00  0.00    -0.021 C 
ATOM     20  C   UNL d   1      26.051  -9.993  -3.965  0.00  0.00     0.009 C 
ATOM     21  C   UNL d   1      25.530 -12.431  -4.125  0.00  0.00     0.009 C 
ENDBRANCH  18  19
ENDBRANCH  17  18
ENDBRANCH  15  17
ENDBRANCH  12  13
BRANCH  12  22
ATOM     22  C   UNL d   1      29.739 -16.298  -3.400  0.00  0.00    -0.026 C 
ATOM     23  C   UNL d   1      30.492 -16.353  -4.582  0.00  0.00     0.013 C 
ATOM     24  C   UNL d   1      31.895 -16.539  -4.512  0.00  0.00     0.043 C 
ATOM     25  C   UNL d   1      32.546 -16.548  -3.279  0.00  0.00     0.116 C 
ATOM     26  F   UNL d   1      33.873 -16.694  -3.190  0.00  0.00    -0.206 F 
ATOM     27  C   UNL d   1      31.807 -16.564  -2.133  0.00  0.00     0.043 C 
ATOM     28  C   UNL d   1      30.441 -16.693  -2.279  0.00  0.00     0.013 C 
ENDBRANCH  12  22
ENDBRANCH   1  12
BRANCH   2  29
ATOM     29  C   UNL d   1      28.321 -13.371   0.074  0.00  0.00     0.115 C 
ATOM     30  S   UNL d   1      27.302 -11.989   0.498  0.00  0.00     0.019 SA
ATOM     31  N   UNL d   1      27.030 -12.437   2.083  0.00  0.00    -0.203 NA
ATOM     32  C   UNL d   1      27.838 -13.463   2.386  0.00  0.00     0.155 C 
ATOM     33  C   UNL d   1      28.698 -13.948   1.272  0.00  0.00     0.065 C 
BRANCH  32  34
ATOM     34  C   UNL d   1      27.589 -14.272   3.616  0.00  0.00     0.270 C 
ATOM     35  N   UNL d   1      28.531 -15.201   3.979  0.00  0.00    -0.365 N 
ATOM     36  H   UNL d   1      29.395 -15.319   3.471  0.00  0.00     0.159 HD
ATOM     37  H   UNL d   1      28.310 -15.800   4.763  0.00  0.00     0.159 HD
ATOM     38  O   UNL d   1      26.633 -14.076   4.358  0.00  0.00    -0.266 OA
ENDBRANCH  32  34
BRANCH  33  39
ATOM     39  N   UNL d   1      29.382 -15.128   1.327  0.00  0.00    -0.299 NA
ATOM     40  H   UNL d   1      30.058 -15.199   2.102  0.00  0.00     0.124 HD
ATOM     41  H   UNL d   1      28.832 -15.984   1.332  0.00  0.00     0.124 HD
ENDBRANCH  33  39
ENDBRANCH   2  29
TORSDOF 10
ENDMDL
MODEL 7
REMARK VINA RESULT:    -8.173      2.572      5.708
REMARK INTER + INTRA:         -15.933
REMARK INTER:                 -11.156
REMARK INTRA:                  -4.777
REMARK CONF_INDEPENDENT:        2.983
REMARK UNBOUND:                -4.777
REMARK  10 active torsions:
REMARK  status: ('A' for Active; 'I' for Inactive)
REMARK    1  A    between atoms: C_5  and  N_6 
REMARK       I    between atoms: N_6  and  C_7 
REMARK    2  A    between atoms: N_6  and  C_18 
REMARK    3  A    between atoms: C_7  and  C_9 
REMARK    4  A    between atoms: C_12  and  C_13 
REMARK       I    between atoms: C_13  and  N_14 
REMARK    5  A    between atoms: C_16  and  N_17 
REMARK    6  A    between atoms: C_18  and  C_19 
REMARK    7  A    between atoms: C_18  and  C_27 
REMARK       I    between atoms: C_19  and  N_21 
REMARK    8  A    between atoms: N_21  and  C_22 
REMARK    9  A    between atoms: C_22  and  C_23 
REMARK   10  A    between atoms: C_23  and  C_24 
ROOT
ATOM      1  N   UNL d   1      27.455 -15.443  -2.099  0.00  0.00    -0.295 N 
ATOM      2  C   UNL d   1      28.009 -14.116  -1.498  0.00  0.00     0.269 C 
ATOM      3  O   UNL d   1      28.389 -13.230  -2.215  0.00  0.00    -0.266 OA
ENDROOT
BRANCH   1   4
ATOM      4  C   UNL d   1      26.210 -16.160  -1.598  0.00  0.00     0.044 C 
ATOM      5  C   UNL d   1      24.890 -15.769  -1.907  0.00  0.00     0.031 C 
ATOM      6  C   UNL d   1      23.754 -16.323  -1.240  0.00  0.00     0.009 C 
ATOM      7  C   UNL d   1      23.864 -17.511  -0.543  0.00  0.00    -0.061 C 
ATOM      8  C   UNL d   1      22.776 -18.329   0.049  0.00  0.00     0.048 C 
ATOM      9  C   UNL d   1      25.112 -18.018  -0.389  0.00  0.00     0.015 C 
ATOM     10  C   UNL d   1      26.225 -17.256  -0.724  0.00  0.00    -0.035 C 
ATOM     11  C   UNL d   1      27.397 -17.880  -0.140  0.00  0.00     0.050 C 
ENDBRANCH   1   4
BRANCH   1  12
ATOM     12  C   UNL d   1      27.937 -15.950  -3.568  0.00  0.00     0.218 C 
BRANCH  12  13
ATOM     13  C   UNL d   1      27.530 -15.026  -4.841  0.00  0.00     0.245 C 
ATOM     14  O   UNL d   1      26.793 -15.423  -5.747  0.00  0.00    -0.271 OA
ATOM     15  N   UNL d   1      27.870 -13.684  -4.836  0.00  0.00    -0.359 N 
ATOM     16  H   UNL d   1      28.611 -13.330  -4.283  0.00  0.00     0.162 HD
BRANCH  15  17
ATOM     17  C   UNL d   1      27.584 -12.781  -5.916  0.00  0.00     0.123 C 
BRANCH  17  18
ATOM     18  C   UNL d   1      26.503 -11.763  -5.515  0.00  0.00     0.023 C 
BRANCH  18  19
ATOM     19  C   UNL d   1      26.084 -11.962  -4.056  0.00  0.00    -0.021 C 
ATOM     20  C   UNL d   1      25.553 -10.653  -3.473  0.00  0.00     0.009 C 
ATOM     21  C   UNL d   1      25.022 -13.051  -3.929  0.00  0.00     0.009 C 
ENDBRANCH  18  19
ENDBRANCH  17  18
ENDBRANCH  15  17
ENDBRANCH  12  13
BRANCH  12  22
ATOM     22  C   UNL d   1      29.423 -16.411  -3.714  0.00  0.00    -0.026 C 
ATOM     23  C   UNL d   1      30.300 -16.800  -2.691  0.00  0.00     0.013 C 
ATOM     24  C   UNL d   1      31.537 -17.406  -3.021  0.00  0.00     0.043 C 
ATOM     25  C   UNL d   1      31.838 -17.725  -4.344  0.00  0.00     0.116 C 
ATOM     26  F   UNL d   1      32.988 -18.323  -4.674  0.00  0.00    -0.206 F 
ATOM     27  C   UNL d   1      31.019 -17.285  -5.341  0.00  0.00     0.043 C 
ATOM     28  C   UNL d   1      29.995 -16.437  -4.971  0.00  0.00     0.013 C 
ENDBRANCH  12  22
ENDBRANCH   1  12
BRANCH   2  29
ATOM     29  C   UNL d   1      28.049 -13.818   0.001  0.00  0.00     0.115 C 
ATOM     30  S   UNL d   1      27.082 -14.894   1.019  0.00  0.00     0.019 SA
ATOM     31  N   UNL d   1      28.068 -14.813   2.364  0.00  0.00    -0.203 NA
ATOM     32  C   UNL d   1      28.981 -13.849   2.173  0.00  0.00     0.155 C 
ATOM     33  C   UNL d   1      28.915 -13.161   0.855  0.00  0.00     0.065 C 
BRANCH  32  34
ATOM     34  C   UNL d   1      30.181 -13.770   3.058  0.00  0.00     0.270 C 
ATOM     35  N   UNL d   1      30.381 -14.780   3.965  0.00  0.00    -0.365 N 
ATOM     36  H   UNL d   1      29.773 -15.584   4.019  0.00  0.00     0.159 HD
ATOM     37  H   UNL d   1      31.148 -14.671   4.614  0.00  0.00     0.159 HD
ATOM     38  O   UNL d   1      31.036 -12.900   2.942  0.00  0.00    -0.266 OA
ENDBRANCH  32  34
BRANCH  33  39
ATOM     39  N   UNL d   1      29.910 -12.347   0.396  0.00  0.00    -0.299 NA
ATOM     40  H   UNL d   1      30.842 -12.544   0.788  0.00  0.00     0.124 HD
ATOM     41  H   UNL d   1      30.020 -12.270  -0.612  0.00  0.00     0.124 HD
ENDBRANCH  33  39
ENDBRANCH   2  29
TORSDOF 10
ENDMDL
MODEL 8
REMARK VINA RESULT:    -7.900      2.764      5.569
REMARK INTER + INTRA:         -15.711
REMARK INTER:                 -10.883
REMARK INTRA:                  -4.828
REMARK CONF_INDEPENDENT:        2.983
REMARK UNBOUND:                -4.828
REMARK  10 active torsions:
REMARK  status: ('A' for Active; 'I' for Inactive)
REMARK    1  A    between atoms: C_5  and  N_6 
REMARK       I    between atoms: N_6  and  C_7 
REMARK    2  A    between atoms: N_6  and  C_18 
REMARK    3  A    between atoms: C_7  and  C_9 
REMARK    4  A    between atoms: C_12  and  C_13 
REMARK       I    between atoms: C_13  and  N_14 
REMARK    5  A    between atoms: C_16  and  N_17 
REMARK    6  A    between atoms: C_18  and  C_19 
REMARK    7  A    between atoms: C_18  and  C_27 
REMARK       I    between atoms: C_19  and  N_21 
REMARK    8  A    between atoms: N_21  and  C_22 
REMARK    9  A    between atoms: C_22  and  C_23 
REMARK   10  A    between atoms: C_23  and  C_24 
ROOT
ATOM      1  N   UNL d   1      26.154 -15.423  -1.503  0.00  0.00    -0.295 N 
ATOM      2  C   UNL d   1      26.686 -14.224  -0.661  0.00  0.00     0.269 C 
ATOM      3  O   UNL d   1      26.973 -13.184  -1.189  0.00  0.00    -0.266 OA
ENDROOT
BRANCH   1   4
ATOM      4  C   UNL d   1      24.981 -16.304  -1.098  0.00  0.00     0.044 C 
ATOM      5  C   UNL d   1      23.626 -15.950  -1.271  0.00  0.00     0.031 C 
ATOM      6  C   UNL d   1      22.561 -16.696  -0.678  0.00  0.00     0.009 C 
ATOM      7  C   UNL d   1      22.777 -17.985  -0.230  0.00  0.00    -0.061 C 
ATOM      8  C   UNL d   1      21.770 -18.972   0.237  0.00  0.00     0.048 C 
ATOM      9  C   UNL d   1      24.058 -18.428  -0.229  0.00  0.00     0.015 C 
ATOM     10  C   UNL d   1      25.105 -17.544  -0.455  0.00  0.00    -0.035 C 
ATOM     11  C   UNL d   1      26.341 -18.188  -0.053  0.00  0.00     0.050 C 
ENDBRANCH   1   4
BRANCH   1  12
ATOM     12  C   UNL d   1      26.558 -15.575  -3.071  0.00  0.00     0.218 C 
BRANCH  12  13
ATOM     13  C   UNL d   1      25.920 -14.498  -4.108  0.00  0.00     0.245 C 
ATOM     14  O   UNL d   1      25.154 -14.821  -5.020  0.00  0.00    -0.271 OA
ATOM     15  N   UNL d   1      26.092 -13.146  -3.866  0.00  0.00    -0.359 N 
ATOM     16  H   UNL d   1      26.833 -12.801  -3.309  0.00  0.00     0.162 HD
BRANCH  15  17
ATOM     17  C   UNL d   1      25.595 -12.109  -4.727  0.00  0.00     0.123 C 
BRANCH  17  18
ATOM     18  C   UNL d   1      26.747 -11.384  -5.443  0.00  0.00     0.023 C 
BRANCH  18  19
ATOM     19  C   UNL d   1      27.834 -12.377  -5.864  0.00  0.00    -0.021 C 
ATOM     20  C   UNL d   1      28.093 -12.275  -7.367  0.00  0.00     0.009 C 
ATOM     21  C   UNL d   1      29.133 -12.132  -5.100  0.00  0.00     0.009 C 
ENDBRANCH  18  19
ENDBRANCH  17  18
ENDBRANCH  15  17
ENDBRANCH  12  13
BRANCH  12  22
ATOM     22  C   UNL d   1      28.070 -15.785  -3.404  0.00  0.00    -0.026 C 
ATOM     23  C   UNL d   1      29.088 -16.190  -2.528  0.00  0.00     0.013 C 
ATOM     24  C   UNL d   1      30.356 -16.550  -3.046  0.00  0.00     0.043 C 
ATOM     25  C   UNL d   1      30.565 -16.619  -4.423  0.00  0.00     0.116 C 
ATOM     26  F   UNL d   1      31.746 -16.984  -4.933  0.00  0.00    -0.206 F 
ATOM     27  C   UNL d   1      29.599 -16.160  -5.269  0.00  0.00     0.043 C 
ATOM     28  C   UNL d   1      28.513 -15.537  -4.688  0.00  0.00     0.013 C 
ENDBRANCH  12  22
ENDBRANCH   1  12
BRANCH   2  29
ATOM     29  C   UNL d   1      26.813 -14.250   0.862  0.00  0.00     0.115 C 
ATOM     30  S   UNL d   1      27.780 -15.575   1.525  0.00  0.00     0.019 SA
ATOM     31  N   UNL d   1      28.348 -14.744   2.857  0.00  0.00    -0.203 NA
ATOM     32  C   UNL d   1      27.684 -13.583   2.957  0.00  0.00     0.155 C 
ATOM     33  C   UNL d   1      26.689 -13.323   1.880  0.00  0.00     0.065 C 
BRANCH  32  34
ATOM     34  C   UNL d   1      28.198 -12.502   3.849  0.00  0.00     0.270 C 
ATOM     35  N   UNL d   1      29.418 -12.687   4.449  0.00  0.00    -0.365 N 
ATOM     36  H   UNL d   1      29.989 -13.500   4.271  0.00  0.00     0.159 HD
ATOM     37  H   UNL d   1      29.715 -11.987   5.116  0.00  0.00     0.159 HD
ATOM     38  O   UNL d   1      27.625 -11.428   3.990  0.00  0.00    -0.266 OA
ENDBRANCH  32  34
BRANCH  33  39
ATOM     39  N   UNL d   1      26.117 -12.099   1.683  0.00  0.00    -0.299 NA
ATOM     40  H   UNL d   1      26.486 -11.349   2.286  0.00  0.00     0.124 HD
ATOM     41  H   UNL d   1      26.107 -11.739   0.732  0.00  0.00     0.124 HD
ENDBRANCH  33  39
ENDBRANCH   2  29
TORSDOF 10
ENDMDL
MODEL 9
REMARK VINA RESULT:    -7.470      2.604      5.582
REMARK INTER + INTRA:         -15.373
REMARK INTER:                 -10.453
REMARK INTRA:                  -4.920
REMARK CONF_INDEPENDENT:        2.983
REMARK UNBOUND:                -4.920
REMARK  10 active torsions:
REMARK  status: ('A' for Active; 'I' for Inactive)
REMARK    1  A    between atoms: C_5  and  N_6 
REMARK       I    between atoms: N_6  and  C_7 
REMARK    2  A    between atoms: N_6  and  C_18 
REMARK    3  A    between atoms: C_7  and  C_9 
REMARK    4  A    between atoms: C_12  and  C_13 
REMARK       I    between atoms: C_13  and  N_14 
REMARK    5  A    between atoms: C_16  and  N_17 
REMARK    6  A    between atoms: C_18  and  C_19 
REMARK    7  A    between atoms: C_18  and  C_27 
REMARK       I    between atoms: C_19  and  N_21 
REMARK    8  A    between atoms: N_21  and  C_22 
REMARK    9  A    between atoms: C_22  and  C_23 
REMARK   10  A    between atoms: C_23  and  C_24 
ROOT
ATOM      1  N   UNL d   1      27.052 -15.632  -1.248  0.00  0.00    -0.295 N 
ATOM      2  C   UNL d   1      27.451 -14.287  -0.570  0.00  0.00     0.269 C 
ATOM      3  O   UNL d   1      27.933 -13.395  -1.214  0.00  0.00    -0.266 OA
ENDROOT
BRANCH   1   4
ATOM      4  C   UNL d   1      25.755 -16.380  -0.977  0.00  0.00     0.044 C 
ATOM      5  C   UNL d   1      24.488 -15.966  -1.440  0.00  0.00     0.031 C 
ATOM      6  C   UNL d   1      23.275 -16.563  -0.978  0.00  0.00     0.009 C 
ATOM      7  C   UNL d   1      23.295 -17.797  -0.357  0.00  0.00    -0.061 C 
ATOM      8  C   UNL d   1      22.141 -18.652   0.018  0.00  0.00     0.048 C 
ATOM      9  C   UNL d   1      24.513 -18.316  -0.066  0.00  0.00     0.015 C 
ATOM     10  C   UNL d   1      25.656 -17.535  -0.188  0.00  0.00    -0.035 C 
ATOM     11  C   UNL d   1      26.739 -18.201   0.509  0.00  0.00     0.050 C 
ENDBRANCH   1   4
BRANCH   1  12
ATOM     12  C   UNL d   1      27.811 -16.136  -2.596  0.00  0.00     0.218 C 
BRANCH  12  13
ATOM     13  C   UNL d   1      27.702 -15.181  -3.907  0.00  0.00     0.245 C 
ATOM     14  O   UNL d   1      27.252 -15.575  -4.986  0.00  0.00    -0.271 OA
ATOM     15  N   UNL d   1      27.956 -13.826  -3.777  0.00  0.00    -0.359 N 
ATOM     16  H   UNL d   1      28.506 -13.462  -3.039  0.00  0.00     0.162 HD
BRANCH  15  17
ATOM     17  C   UNL d   1      27.915 -12.895  -4.870  0.00  0.00     0.123 C 
BRANCH  17  18
ATOM     18  C   UNL d   1      26.480 -12.720  -5.395  0.00  0.00     0.023 C 
BRANCH  18  19
ATOM     19  C   UNL d   1      25.531 -12.327  -4.259  0.00  0.00    -0.021 C 
ATOM     20  C   UNL d   1      24.839 -13.567  -3.693  0.00  0.00     0.009 C 
ATOM     21  C   UNL d   1      26.276 -11.598  -3.144  0.00  0.00     0.009 C 
ENDBRANCH  18  19
ENDBRANCH  17  18
ENDBRANCH  15  17
ENDBRANCH  12  13
BRANCH  12  22
ATOM     22  C   UNL d   1      29.280 -16.644  -2.444  0.00  0.00    -0.026 C 
ATOM     23  C   UNL d   1      30.318 -16.547  -3.382  0.00  0.00     0.013 C 
ATOM     24  C   UNL d   1      31.646 -16.854  -2.995  0.00  0.00     0.043 C 
ATOM     25  C   UNL d   1      31.946 -17.136  -1.663  0.00  0.00     0.116 C 
ATOM     26  F   UNL d   1      33.197 -17.402  -1.270  0.00  0.00    -0.206 F 
ATOM     27  C   UNL d   1      30.930 -17.299  -0.768  0.00  0.00     0.043 C 
ATOM     28  C   UNL d   1      29.648 -17.289  -1.280  0.00  0.00     0.013 C 
ENDBRANCH  12  22
ENDBRANCH   1  12
BRANCH   2  29
ATOM     29  C   UNL d   1      27.205 -13.978   0.907  0.00  0.00     0.115 C 
ATOM     30  S   UNL d   1      27.780 -15.200   2.049  0.00  0.00     0.019 SA
ATOM     31  N   UNL d   1      28.128 -14.143   3.294  0.00  0.00    -0.203 NA
ATOM     32  C   UNL d   1      27.636 -12.934   2.984  0.00  0.00     0.155 C 
ATOM     33  C   UNL d   1      26.977 -12.836   1.652  0.00  0.00     0.065 C 
BRANCH  32  34
ATOM     34  C   UNL d   1      28.074 -11.730   3.751  0.00  0.00     0.270 C 
ATOM     35  N   UNL d   1      29.207 -11.832   4.519  0.00  0.00    -0.365 N 
ATOM     36  H   UNL d   1      29.767 -12.671   4.544  0.00  0.00     0.159 HD
ATOM     37  H   UNL d   1      29.443 -11.037   5.098  0.00  0.00     0.159 HD
ATOM     38  O   UNL d   1      27.524 -10.640   3.647  0.00  0.00    -0.266 OA
ENDBRANCH  32  34
BRANCH  33  39
ATOM     39  N   UNL d   1      26.655 -11.642   1.074  0.00  0.00    -0.299 NA
ATOM     40  H   UNL d   1      26.988 -10.812   1.586  0.00  0.00     0.124 HD
ATOM     41  H   UNL d   1      26.912 -11.514   0.098  0.00  0.00     0.124 HD
ENDBRANCH  33  39
ENDBRANCH   2  29
TORSDOF 10
ENDMDL
