MODEL 1
REMARK VINA RESULT:    -8.331      0.000      0.000
REMARK INTER + INTRA:         -12.155
REMARK INTER:                 -10.419
REMARK INTRA:                  -1.736
REMARK CONF_INDEPENDENT:        2.088
REMARK UNBOUND:                -1.736
REMARK  7 active torsions:
REMARK  status: ('A' for Active; 'I' for Inactive)
REMARK    1  A    between atoms: O_2  and  C_3 
REMARK    2  A    between atoms: C_3  and  C_5 
REMARK    3  A    between atoms: C_10  and  N_11 
REMARK       I    between atoms: N_11  and  C_12 
REMARK    4  A    between atoms: C_12  and  C_14 
REMARK    5  A    between atoms: C_14  and  S_15 
REMARK    6  A    between atoms: S_15  and  C_16 
REMARK    7  A    between atoms: C_19  and  C_20 
ROOT
ATOM      1  C   UNL d   1      27.466 -15.575  -3.358  0.00  0.00     0.172 A 
ATOM      2  N   UNL d   1      26.455 -16.108  -2.736  0.00  0.00    -0.221 NA
ATOM      3  C   UNL d   1      26.769 -16.698  -1.516  0.00  0.00     0.104 A 
ATOM      4  C   UNL d   1      25.915 -17.352  -0.600  0.00  0.00     0.021 A 
ATOM      5  C   UNL d   1      26.749 -17.858   0.388  0.00  0.00     0.103 A 
ATOM      6  N   UNL d   1      28.040 -17.464   0.114  0.00  0.00    -0.359 N 
ATOM      7  C   UNL d   1      28.045 -16.737  -1.045  0.00  0.00     0.131 A 
ATOM      8  C   UNL d   1      29.154 -16.130  -1.708  0.00  0.00     0.278 A 
ATOM      9  O   UNL d   1      30.290 -16.176  -1.268  0.00  0.00    -0.265 OA
ATOM     10  N   UNL d   1      28.787 -15.507  -2.906  0.00  0.00    -0.296 N 
ATOM     11  C   UNL d   1      29.833 -14.772  -3.610  0.00  0.00     0.162 C 
ATOM     12  H   UNL d   1      28.861 -17.695   0.661  0.00  0.00     0.165 HD
ENDROOT
BRANCH   1  13
ATOM     13  S   UNL d   1      27.071 -14.772  -4.850  0.00  0.00    -0.082 SA
BRANCH  13  14
ATOM     14  C   UNL d   1      25.382 -14.083  -4.686  0.00  0.00     0.185 C 
BRANCH  14  15
ATOM     15  C   UNL d   1      25.401 -12.864  -3.737  0.00  0.00     0.231 C 
ATOM     16  N   UNL d   1      25.530 -11.591  -4.285  0.00  0.00    -0.326 N 
ATOM     17  H   UNL d   1      24.998 -11.414  -5.129  0.00  0.00     0.169 HD
ATOM     18  O   UNL d   1      25.201 -13.015  -2.533  0.00  0.00    -0.272 OA
BRANCH  16  19
ATOM     19  C   UNL d   1      25.908 -10.429  -3.517  0.00  0.00     0.051 A 
ATOM     20  C   UNL d   1      26.755 -10.632  -2.396  0.00  0.00     0.030 A 
ATOM     21  C   UNL d   1      27.184  -9.561  -1.589  0.00  0.00     0.002 A 
ATOM     22  C   UNL d   1      26.780  -8.265  -1.880  0.00  0.00     0.001 A 
ATOM     23  C   UNL d   1      25.910  -8.045  -2.948  0.00  0.00     0.020 A 
ATOM     24  C   UNL d   1      25.483  -9.103  -3.780  0.00  0.00     0.066 A 
BRANCH  24  25
ATOM     25  C   UNL d   1      24.702  -8.662  -4.966  0.00  0.00     0.295 C 
ATOM     26  O   UNL d   1      24.616  -9.353  -5.972  0.00  0.00    -0.259 OA
BRANCH  25  27
ATOM     27  O   UNL d   1      24.142  -7.436  -4.791  0.00  0.00    -0.322 OA
ATOM     28  C   UNL d   1      22.844  -7.321  -5.394  0.00  0.00     0.213 C 
ENDBRANCH  25  27
ENDBRANCH  24  25
ENDBRANCH  16  19
ENDBRANCH  14  15
ENDBRANCH  13  14
ENDBRANCH   1  13
BRANCH   4  29
ATOM     29  C   UNL d   1      24.492 -17.635  -0.625  0.00  0.00    -0.022 A 
ATOM     30  C   UNL d   1      23.551 -16.596  -0.694  0.00  0.00     0.012 A 
ATOM     31  C   UNL d   1      22.184 -16.875  -0.602  0.00  0.00     0.001 A 
ATOM     32  C   UNL d   1      21.746 -18.196  -0.517  0.00  0.00     0.000 A 
ATOM     33  C   UNL d   1      22.675 -19.234  -0.466  0.00  0.00     0.001 A 
ATOM     34  C   UNL d   1      24.042 -18.954  -0.512  0.00  0.00     0.012 A 
ENDBRANCH   4  29
TORSDOF 7
ENDMDL
MODEL 2
REMARK VINA RESULT:    -8.113      3.318      7.442
REMARK INTER + INTRA:         -12.221
REMARK INTER:                 -10.201
REMARK INTRA:                  -2.020
REMARK CONF_INDEPENDENT:        2.088
REMARK UNBOUND:                -2.020
REMARK  7 active torsions:
REMARK  status: ('A' for Active; 'I' for Inactive)
REMARK    1  A    between atoms: O_2  and  C_3 
REMARK    2  A    between atoms: C_3  and  C_5 
REMARK    3  A    between atoms: C_10  and  N_11 
REMARK       I    between atoms: N_11  and  C_12 
REMARK    4  A    between atoms: C_12  and  C_14 
REMARK    5  A    between atoms: C_14  and  S_15 
REMARK    6  A    between atoms: S_15  and  C_16 
REMARK    7  A    between atoms: C_19  and  C_20 
ROOT
ATOM      1  C   UNL d   1      27.230 -13.089  -4.871  0.00  0.00     0.172 A 
ATOM      2  N   UNL d   1      27.932 -14.087  -4.421  0.00  0.00    -0.221 NA
ATOM      3  C   UNL d   1      28.844 -14.613  -5.332  0.00  0.00     0.104 A 
ATOM      4  C   UNL d   1      29.751 -15.683  -5.163  0.00  0.00     0.021 A 
ATOM      5  C   UNL d   1      30.335 -15.873  -6.409  0.00  0.00     0.103 A 
ATOM      6  N   UNL d   1      29.852 -14.913  -7.269  0.00  0.00    -0.359 N 
ATOM      7  C   UNL d   1      28.951 -14.131  -6.600  0.00  0.00     0.131 A 
ATOM      8  C   UNL d   1      28.204 -13.017  -7.091  0.00  0.00     0.278 A 
ATOM      9  O   UNL d   1      28.316 -12.600  -8.230  0.00  0.00    -0.265 OA
ATOM     10  N   UNL d   1      27.335 -12.489  -6.129  0.00  0.00    -0.296 N 
ATOM     11  C   UNL d   1      26.598 -11.286  -6.503  0.00  0.00     0.162 C 
ATOM     12  H   UNL d   1      30.097 -14.813  -8.247  0.00  0.00     0.165 HD
ENDROOT
BRANCH   1  13
ATOM     13  S   UNL d   1      26.138 -12.379  -3.716  0.00  0.00    -0.082 SA
BRANCH  13  14
ATOM     14  C   UNL d   1      24.626 -13.413  -3.667  0.00  0.00     0.185 C 
BRANCH  14  15
ATOM     15  C   UNL d   1      24.975 -14.832  -3.168  0.00  0.00     0.231 C 
ATOM     16  N   UNL d   1      24.414 -15.279  -1.976  0.00  0.00    -0.326 N 
ATOM     17  H   UNL d   1      23.438 -15.047  -1.828  0.00  0.00     0.169 HD
ATOM     18  O   UNL d   1      25.651 -15.584  -3.868  0.00  0.00    -0.272 OA
BRANCH  16  19
ATOM     19  C   UNL d   1      24.917 -16.411  -1.235  0.00  0.00     0.051 A 
ATOM     20  C   UNL d   1      26.301 -16.426  -0.921  0.00  0.00     0.030 A 
ATOM     21  C   UNL d   1      26.884 -17.483  -0.197  0.00  0.00     0.002 A 
ATOM     22  C   UNL d   1      26.103 -18.548   0.231  0.00  0.00     0.001 A 
ATOM     23  C   UNL d   1      24.750 -18.580  -0.105  0.00  0.00     0.020 A 
ATOM     24  C   UNL d   1      24.142 -17.521  -0.815  0.00  0.00     0.066 A 
BRANCH  24  25
ATOM     25  C   UNL d   1      22.665 -17.642  -0.933  0.00  0.00     0.295 C 
ATOM     26  O   UNL d   1      21.935 -16.661  -0.889  0.00  0.00    -0.259 OA
BRANCH  25  27
ATOM     27  O   UNL d   1      22.260 -18.932  -1.071  0.00  0.00    -0.322 OA
ATOM     28  C   UNL d   1      20.980 -19.186  -0.472  0.00  0.00     0.213 C 
ENDBRANCH  25  27
ENDBRANCH  24  25
ENDBRANCH  16  19
ENDBRANCH  14  15
ENDBRANCH  13  14
ENDBRANCH   1  13
BRANCH   4  29
ATOM     29  C   UNL d   1      30.016 -16.569  -4.045  0.00  0.00    -0.022 A 
ATOM     30  C   UNL d   1      29.567 -16.254  -2.754  0.00  0.00     0.012 A 
ATOM     31  C   UNL d   1      29.927 -17.056  -1.666  0.00  0.00     0.001 A 
ATOM     32  C   UNL d   1      30.673 -18.216  -1.871  0.00  0.00     0.000 A 
ATOM     33  C   UNL d   1      31.107 -18.544  -3.156  0.00  0.00     0.001 A 
ATOM     34  C   UNL d   1      30.786 -17.719  -4.236  0.00  0.00     0.012 A 
ENDBRANCH   4  29
TORSDOF 7
ENDMDL
MODEL 3
REMARK VINA RESULT:    -8.072      3.214      4.848
REMARK INTER + INTRA:         -12.036
REMARK INTER:                 -10.160
REMARK INTRA:                  -1.876
REMARK CONF_INDEPENDENT:        2.088
REMARK UNBOUND:                -1.876
REMARK  7 active torsions:
REMARK  status: ('A' for Active; 'I' for Inactive)
REMARK    1  A    between atoms: O_2  and  C_3 
REMARK    2  A    between atoms: C_3  and  C_5 
REMARK    3  A    between atoms: C_10  and  N_11 
REMARK       I    between atoms: N_11  and  C_12 
REMARK    4  A    between atoms: C_12  and  C_14 
REMARK    5  A    between atoms: C_14  and  S_15 
REMARK    6  A    between atoms: S_15  and  C_16 
REMARK    7  A    between atoms: C_19  and  C_20 
ROOT
ATOM      1  C   UNL d   1      26.735 -13.890  -1.974  0.00  0.00     0.172 A 
ATOM      2  N   UNL d   1      25.893 -14.821  -1.634  0.00  0.00    -0.221 NA
ATOM      3  C   UNL d   1      26.394 -15.757  -0.735  0.00  0.00     0.104 A 
ATOM      4  C   UNL d   1      25.748 -16.879  -0.167  0.00  0.00     0.021 A 
ATOM      5  C   UNL d   1      26.727 -17.539   0.563  0.00  0.00     0.103 A 
ATOM      6  N   UNL d   1      27.891 -16.808   0.495  0.00  0.00    -0.359 N 
ATOM      7  C   UNL d   1      27.678 -15.706  -0.287  0.00  0.00     0.131 A 
ATOM      8  C   UNL d   1      28.599 -14.671  -0.633  0.00  0.00     0.278 A 
ATOM      9  O   UNL d   1      29.745 -14.643  -0.220  0.00  0.00    -0.265 OA
ATOM     10  N   UNL d   1      28.040 -13.725  -1.500  0.00  0.00    -0.296 N 
ATOM     11  C   UNL d   1      28.870 -12.573  -1.836  0.00  0.00     0.162 C 
ATOM     12  H   UNL d   1      28.774 -17.054   0.927  0.00  0.00     0.165 HD
ENDROOT
BRANCH   1  13
ATOM     13  S   UNL d   1      26.095 -12.674  -3.042  0.00  0.00    -0.082 SA
BRANCH  13  14
ATOM     14  C   UNL d   1      25.566 -13.507  -4.586  0.00  0.00     0.185 C 
BRANCH  14  15
ATOM     15  C   UNL d   1      26.552 -14.644  -4.934  0.00  0.00     0.231 C 
ATOM     16  N   UNL d   1      27.900 -14.476  -4.631  0.00  0.00    -0.326 N 
ATOM     17  H   UNL d   1      28.106 -14.049  -3.735  0.00  0.00     0.169 HD
ATOM     18  O   UNL d   1      26.133 -15.713  -5.374  0.00  0.00    -0.272 OA
BRANCH  16  19
ATOM     19  C   UNL d   1      28.951 -15.282  -5.206  0.00  0.00     0.051 A 
ATOM     20  C   UNL d   1      29.280 -16.496  -4.549  0.00  0.00     0.030 A 
ATOM     21  C   UNL d   1      30.285 -17.353  -5.035  0.00  0.00     0.002 A 
ATOM     22  C   UNL d   1      30.986 -17.020  -6.187  0.00  0.00     0.001 A 
ATOM     23  C   UNL d   1      30.714 -15.810  -6.825  0.00  0.00     0.020 A 
ATOM     24  C   UNL d   1      29.697 -14.946  -6.363  0.00  0.00     0.066 A 
BRANCH  24  25
ATOM     25  C   UNL d   1      29.431 -13.791  -7.261  0.00  0.00     0.295 C 
ATOM     26  O   UNL d   1      30.300 -13.328  -7.987  0.00  0.00    -0.259 OA
BRANCH  25  27
ATOM     27  O   UNL d   1      28.155 -13.334  -7.153  0.00  0.00    -0.322 OA
ATOM     28  C   UNL d   1      28.030 -11.938  -7.464  0.00  0.00     0.213 C 
ENDBRANCH  25  27
ENDBRANCH  24  25
ENDBRANCH  16  19
ENDBRANCH  14  15
ENDBRANCH  13  14
ENDBRANCH   1  13
BRANCH   4  29
ATOM     29  C   UNL d   1      24.413 -17.422  -0.335  0.00  0.00    -0.022 A 
ATOM     30  C   UNL d   1      24.179 -18.802  -0.241  0.00  0.00     0.012 A 
ATOM     31  C   UNL d   1      22.912 -19.324  -0.519  0.00  0.00     0.001 A 
ATOM     32  C   UNL d   1      21.855 -18.466  -0.817  0.00  0.00     0.000 A 
ATOM     33  C   UNL d   1      22.077 -17.091  -0.895  0.00  0.00     0.001 A 
ATOM     34  C   UNL d   1      23.353 -16.573  -0.663  0.00  0.00     0.012 A 
ENDBRANCH   4  29
TORSDOF 7
ENDMDL
MODEL 4
REMARK VINA RESULT:    -7.323      3.407      5.907
REMARK INTER + INTRA:         -12.590
REMARK INTER:                  -9.411
REMARK INTRA:                  -3.179
REMARK CONF_INDEPENDENT:        2.088
REMARK UNBOUND:                -3.179
REMARK  7 active torsions:
REMARK  status: ('A' for Active; 'I' for Inactive)
REMARK    1  A    between atoms: O_2  and  C_3 
REMARK    2  A    between atoms: C_3  and  C_5 
REMARK    3  A    between atoms: C_10  and  N_11 
REMARK       I    between atoms: N_11  and  C_12 
REMARK    4  A    between atoms: C_12  and  C_14 
REMARK    5  A    between atoms: C_14  and  S_15 
REMARK    6  A    between atoms: S_15  and  C_16 
REMARK    7  A    between atoms: C_19  and  C_20 
ROOT
ATOM      1  C   UNL d   1      27.141 -13.661  -2.098  0.00  0.00     0.172 A 
ATOM      2  N   UNL d   1      26.340 -14.629  -1.758  0.00  0.00    -0.221 NA
ATOM      3  C   UNL d   1      26.763 -15.373  -0.661  0.00  0.00     0.104 A 
ATOM      4  C   UNL d   1      26.133 -16.475  -0.039  0.00  0.00     0.021 A 
ATOM      5  C   UNL d   1      27.028 -16.917   0.926  0.00  0.00     0.103 A 
ATOM      6  N   UNL d   1      28.116 -16.073   0.932  0.00  0.00    -0.359 N 
ATOM      7  C   UNL d   1      27.942 -15.117  -0.031  0.00  0.00     0.131 A 
ATOM      8  C   UNL d   1      28.811 -14.039  -0.381  0.00  0.00     0.278 A 
ATOM      9  O   UNL d   1      29.862 -13.827   0.198  0.00  0.00    -0.265 OA
ATOM     10  N   UNL d   1      28.325 -13.288  -1.457  0.00  0.00    -0.296 N 
ATOM     11  C   UNL d   1      29.094 -12.104  -1.828  0.00  0.00     0.162 C 
ATOM     12  H   UNL d   1      28.931 -16.157   1.529  0.00  0.00     0.165 HD
ENDROOT
BRANCH   1  13
ATOM     13  S   UNL d   1      26.586 -12.680  -3.424  0.00  0.00    -0.082 SA
BRANCH  13  14
ATOM     14  C   UNL d   1      25.750 -13.783  -4.625  0.00  0.00     0.185 C 
BRANCH  14  15
ATOM     15  C   UNL d   1      26.741 -14.851  -5.137  0.00  0.00     0.231 C 
ATOM     16  N   UNL d   1      27.869 -15.137  -4.374  0.00  0.00    -0.326 N 
ATOM     17  H   UNL d   1      27.726 -15.192  -3.372  0.00  0.00     0.169 HD
ATOM     18  O   UNL d   1      26.479 -15.504  -6.145  0.00  0.00    -0.272 OA
BRANCH  16  19
ATOM     19  C   UNL d   1      29.023 -15.834  -4.890  0.00  0.00     0.051 A 
ATOM     20  C   UNL d   1      29.397 -15.575  -6.235  0.00  0.00     0.030 A 
ATOM     21  C   UNL d   1      30.511 -16.200  -6.827  0.00  0.00     0.002 A 
ATOM     22  C   UNL d   1      31.277 -17.096  -6.093  0.00  0.00     0.001 A 
ATOM     23  C   UNL d   1      30.903 -17.402  -4.785  0.00  0.00     0.020 A 
ATOM     24  C   UNL d   1      29.800 -16.773  -4.168  0.00  0.00     0.066 A 
BRANCH  24  25
ATOM     25  C   UNL d   1      29.654 -17.090  -2.722  0.00  0.00     0.295 C 
ATOM     26  O   UNL d   1      28.594 -16.929  -2.133  0.00  0.00    -0.259 OA
BRANCH  25  27
ATOM     27  O   UNL d   1      30.811 -17.544  -2.172  0.00  0.00    -0.322 OA
ATOM     28  C   UNL d   1      30.857 -17.380  -0.746  0.00  0.00     0.213 C 
ENDBRANCH  25  27
ENDBRANCH  24  25
ENDBRANCH  16  19
ENDBRANCH  14  15
ENDBRANCH  13  14
ENDBRANCH   1  13
BRANCH   4  29
ATOM     29  C   UNL d   1      24.901 -17.184  -0.330  0.00  0.00    -0.022 A 
ATOM     30  C   UNL d   1      23.732 -16.488  -0.674  0.00  0.00     0.012 A 
ATOM     31  C   UNL d   1      22.525 -17.174  -0.838  0.00  0.00     0.001 A 
ATOM     32  C   UNL d   1      22.493 -18.564  -0.735  0.00  0.00     0.000 A 
ATOM     33  C   UNL d   1      23.655 -19.264  -0.411  0.00  0.00     0.001 A 
ATOM     34  C   UNL d   1      24.852 -18.575  -0.202  0.00  0.00     0.012 A 
ENDBRANCH   4  29
TORSDOF 7
ENDMDL
MODEL 5
REMARK VINA RESULT:    -6.983      3.098      4.585
REMARK INTER + INTRA:         -12.381
REMARK INTER:                  -9.071
REMARK INTRA:                  -3.311
REMARK CONF_INDEPENDENT:        2.088
REMARK UNBOUND:                -3.311
REMARK  7 active torsions:
REMARK  status: ('A' for Active; 'I' for Inactive)
REMARK    1  A    between atoms: O_2  and  C_3 
REMARK    2  A    between atoms: C_3  and  C_5 
REMARK    3  A    between atoms: C_10  and  N_11 
REMARK       I    between atoms: N_11  and  C_12 
REMARK    4  A    between atoms: C_12  and  C_14 
REMARK    5  A    between atoms: C_14  and  S_15 
REMARK    6  A    between atoms: S_15  and  C_16 
REMARK    7  A    between atoms: C_19  and  C_20 
ROOT
ATOM      1  C   UNL d   1      27.740 -13.830   0.552  0.00  0.00     0.172 A 
ATOM      2  N   UNL d   1      26.785 -14.677   0.300  0.00  0.00    -0.221 NA
ATOM      3  C   UNL d   1      27.205 -15.994   0.144  0.00  0.00     0.104 A 
ATOM      4  C   UNL d   1      26.433 -17.146  -0.129  0.00  0.00     0.021 A 
ATOM      5  C   UNL d   1      27.350 -18.174  -0.304  0.00  0.00     0.103 A 
ATOM      6  N   UNL d   1      28.613 -17.676  -0.076  0.00  0.00    -0.359 N 
ATOM      7  C   UNL d   1      28.519 -16.343   0.216  0.00  0.00     0.131 A 
ATOM      8  C   UNL d   1      29.568 -15.423   0.521  0.00  0.00     0.278 A 
ATOM      9  O   UNL d   1      30.738 -15.757   0.583  0.00  0.00    -0.265 OA
ATOM     10  N   UNL d   1      29.098 -14.120   0.718  0.00  0.00    -0.296 N 
ATOM     11  C   UNL d   1      30.081 -13.125   1.130  0.00  0.00     0.162 C 
ATOM     12  H   UNL d   1      29.479 -18.198  -0.140  0.00  0.00     0.165 HD
ENDROOT
BRANCH   1  13
ATOM     13  S   UNL d   1      27.217 -12.192   0.819  0.00  0.00    -0.082 SA
BRANCH  13  14
ATOM     14  C   UNL d   1      27.130 -11.359  -0.810  0.00  0.00     0.185 C 
BRANCH  14  15
ATOM     15  C   UNL d   1      27.966 -12.141  -1.846  0.00  0.00     0.231 C 
ATOM     16  N   UNL d   1      27.481 -13.358  -2.315  0.00  0.00    -0.326 N 
ATOM     17  H   UNL d   1      26.488 -13.396  -2.514  0.00  0.00     0.169 HD
ATOM     18  O   UNL d   1      28.985 -11.643  -2.321  0.00  0.00    -0.272 OA
BRANCH  16  19
ATOM     19  C   UNL d   1      28.302 -14.333  -2.994  0.00  0.00     0.051 A 
ATOM     20  C   UNL d   1      29.640 -14.489  -2.547  0.00  0.00     0.030 A 
ATOM     21  C   UNL d   1      30.516 -15.417  -3.141  0.00  0.00     0.002 A 
ATOM     22  C   UNL d   1      30.079 -16.211  -4.193  0.00  0.00     0.001 A 
ATOM     23  C   UNL d   1      28.783 -16.044  -4.681  0.00  0.00     0.020 A 
ATOM     24  C   UNL d   1      27.884 -15.131  -4.088  0.00  0.00     0.066 A 
BRANCH  24  25
ATOM     25  C   UNL d   1      26.500 -15.211  -4.625  0.00  0.00     0.295 C 
ATOM     26  O   UNL d   1      26.275 -15.572  -5.772  0.00  0.00    -0.259 OA
BRANCH  25  27
ATOM     27  O   UNL d   1      25.568 -14.827  -3.713  0.00  0.00    -0.322 OA
ATOM     28  C   UNL d   1      24.788 -13.703  -4.146  0.00  0.00     0.213 C 
ENDBRANCH  25  27
ENDBRANCH  24  25
ENDBRANCH  16  19
ENDBRANCH  14  15
ENDBRANCH  13  14
ENDBRANCH   1  13
BRANCH   4  29
ATOM     29  C   UNL d   1      25.011 -17.336  -0.348  0.00  0.00    -0.022 A 
ATOM     30  C   UNL d   1      24.203 -16.281  -0.798  0.00  0.00     0.012 A 
ATOM     31  C   UNL d   1      22.818 -16.444  -0.894  0.00  0.00     0.001 A 
ATOM     32  C   UNL d   1      22.240 -17.682  -0.616  0.00  0.00     0.000 A 
ATOM     33  C   UNL d   1      23.040 -18.741  -0.186  0.00  0.00     0.001 A 
ATOM     34  C   UNL d   1      24.418 -18.565  -0.045  0.00  0.00     0.012 A 
ENDBRANCH   4  29
TORSDOF 7
ENDMDL
MODEL 6
REMARK VINA RESULT:    -6.542      2.915      6.065
REMARK INTER + INTRA:         -12.066
REMARK INTER:                  -8.630
REMARK INTRA:                  -3.436
REMARK CONF_INDEPENDENT:        2.088
REMARK UNBOUND:                -3.436
REMARK  7 active torsions:
REMARK  status: ('A' for Active; 'I' for Inactive)
REMARK    1  A    between atoms: O_2  and  C_3 
REMARK    2  A    between atoms: C_3  and  C_5 
REMARK    3  A    between atoms: C_10  and  N_11 
REMARK       I    between atoms: N_11  and  C_12 
REMARK    4  A    between atoms: C_12  and  C_14 
REMARK    5  A    between atoms: C_14  and  S_15 
REMARK    6  A    between atoms: S_15  and  C_16 
REMARK    7  A    between atoms: C_19  and  C_20 
ROOT
ATOM      1  C   UNL d   1      26.657 -12.359  -2.494  0.00  0.00     0.172 A 
ATOM      2  N   UNL d   1      26.346 -13.517  -1.989  0.00  0.00    -0.221 NA
ATOM      3  C   UNL d   1      26.816 -13.732  -0.697  0.00  0.00     0.104 A 
ATOM      4  C   UNL d   1      26.653 -14.865   0.131  0.00  0.00     0.021 A 
ATOM      5  C   UNL d   1      27.417 -14.610   1.263  0.00  0.00     0.103 A 
ATOM      6  N   UNL d   1      27.957 -13.349   1.150  0.00  0.00    -0.359 N 
ATOM      7  C   UNL d   1      27.572 -12.806  -0.045  0.00  0.00     0.131 A 
ATOM      8  C   UNL d   1      27.893 -11.523  -0.583  0.00  0.00     0.278 A 
ATOM      9  O   UNL d   1      28.571 -10.708   0.019  0.00  0.00    -0.265 OA
ATOM     10  N   UNL d   1      27.361 -11.330  -1.863  0.00  0.00    -0.296 N 
ATOM     11  C   UNL d   1      27.551 -10.012  -2.458  0.00  0.00     0.162 C 
ATOM     12  H   UNL d   1      28.566 -12.900   1.825  0.00  0.00     0.165 HD
ENDROOT
BRANCH   1  13
ATOM     13  S   UNL d   1      26.013 -12.053  -4.082  0.00  0.00    -0.082 SA
BRANCH  13  14
ATOM     14  C   UNL d   1      25.165 -13.577  -4.645  0.00  0.00     0.185 C 
BRANCH  14  15
ATOM     15  C   UNL d   1      26.208 -14.653  -5.015  0.00  0.00     0.231 C 
ATOM     16  N   UNL d   1      27.450 -14.625  -4.387  0.00  0.00    -0.326 N 
ATOM     17  H   UNL d   1      27.443 -14.420  -3.395  0.00  0.00     0.169 HD
ATOM     18  O   UNL d   1      25.904 -15.575  -5.770  0.00  0.00    -0.272 OA
BRANCH  16  19
ATOM     19  C   UNL d   1      28.608 -15.333  -4.881  0.00  0.00     0.051 A 
ATOM     20  C   UNL d   1      28.934 -15.177  -6.253  0.00  0.00     0.030 A 
ATOM     21  C   UNL d   1      30.047 -15.821  -6.827  0.00  0.00     0.002 A 
ATOM     22  C   UNL d   1      30.859 -16.634  -6.047  0.00  0.00     0.001 A 
ATOM     23  C   UNL d   1      30.532 -16.840  -4.707  0.00  0.00     0.020 A 
ATOM     24  C   UNL d   1      29.431 -16.190  -4.109  0.00  0.00     0.066 A 
BRANCH  24  25
ATOM     25  C   UNL d   1      29.336 -16.390  -2.639  0.00  0.00     0.295 C 
ATOM     26  O   UNL d   1      28.513 -15.792  -1.961  0.00  0.00    -0.259 OA
BRANCH  25  27
ATOM     27  O   UNL d   1      30.260 -17.273  -2.176  0.00  0.00    -0.322 OA
ATOM     28  C   UNL d   1      29.918 -17.824  -0.895  0.00  0.00     0.213 C 
ENDBRANCH  25  27
ENDBRANCH  24  25
ENDBRANCH  16  19
ENDBRANCH  14  15
ENDBRANCH  13  14
ENDBRANCH   1  13
BRANCH   4  29
ATOM     29  C   UNL d   1      25.988 -16.138  -0.079  0.00  0.00    -0.022 A 
ATOM     30  C   UNL d   1      24.715 -16.198  -0.665  0.00  0.00     0.012 A 
ATOM     31  C   UNL d   1      24.037 -17.418  -0.756  0.00  0.00     0.001 A 
ATOM     32  C   UNL d   1      24.656 -18.593  -0.335  0.00  0.00     0.000 A 
ATOM     33  C   UNL d   1      25.930 -18.542   0.232  0.00  0.00     0.001 A 
ATOM     34  C   UNL d   1      26.589 -17.318   0.366  0.00  0.00     0.012 A 
ENDBRANCH   4  29
TORSDOF 7
ENDMDL
MODEL 7
REMARK VINA RESULT:    -6.422      3.293      4.359
REMARK INTER + INTRA:         -12.159
REMARK INTER:                  -8.510
REMARK INTRA:                  -3.648
REMARK CONF_INDEPENDENT:        2.088
REMARK UNBOUND:                -3.648
REMARK  7 active torsions:
REMARK  status: ('A' for Active; 'I' for Inactive)
REMARK    1  A    between atoms: O_2  and  C_3 
REMARK    2  A    between atoms: C_3  and  C_5 
REMARK    3  A    between atoms: C_10  and  N_11 
REMARK       I    between atoms: N_11  and  C_12 
REMARK    4  A    between atoms: C_12  and  C_14 
REMARK    5  A    between atoms: C_14  and  S_15 
REMARK    6  A    between atoms: S_15  and  C_16 
REMARK    7  A    between atoms: C_19  and  C_20 
ROOT
ATOM      1  C   UNL d   1      30.061 -17.129  -2.582  0.00  0.00     0.172 A 
ATOM      2  N   UNL d   1      28.825 -17.152  -2.174  0.00  0.00    -0.221 NA
ATOM      3  C   UNL d   1      28.609 -16.542  -0.942  0.00  0.00     0.104 A 
ATOM      4  C   UNL d   1      27.401 -16.390  -0.225  0.00  0.00     0.021 A 
ATOM      5  C   UNL d   1      27.760 -15.821   0.989  0.00  0.00     0.103 A 
ATOM      6  N   UNL d   1      29.114 -15.574   0.973  0.00  0.00    -0.359 N 
ATOM      7  C   UNL d   1      29.629 -16.002  -0.220  0.00  0.00     0.131 A 
ATOM      8  C   UNL d   1      30.981 -15.947  -0.675  0.00  0.00     0.278 A 
ATOM      9  O   UNL d   1      31.880 -15.457  -0.012  0.00  0.00    -0.265 OA
ATOM     10  N   UNL d   1      31.146 -16.529  -1.937  0.00  0.00    -0.296 N 
ATOM     11  C   UNL d   1      32.475 -16.436  -2.532  0.00  0.00     0.162 C 
ATOM     12  H   UNL d   1      29.654 -15.170   1.729  0.00  0.00     0.165 HD
ENDROOT
BRANCH   1  13
ATOM     13  S   UNL d   1      30.329 -17.827  -4.153  0.00  0.00    -0.082 SA
BRANCH  13  14
ATOM     14  C   UNL d   1      30.493 -16.453  -5.355  0.00  0.00     0.185 C 
BRANCH  14  15
ATOM     15  C   UNL d   1      29.233 -15.562  -5.311  0.00  0.00     0.231 C 
ATOM     16  N   UNL d   1      28.845 -15.012  -4.093  0.00  0.00    -0.326 N 
ATOM     17  H   UNL d   1      29.591 -14.654  -3.508  0.00  0.00     0.169 HD
ATOM     18  O   UNL d   1      28.651 -15.264  -6.352  0.00  0.00    -0.272 OA
BRANCH  16  19
ATOM     19  C   UNL d   1      27.530 -14.469  -3.849  0.00  0.00     0.051 A 
ATOM     20  C   UNL d   1      26.471 -14.915  -4.682  0.00  0.00     0.030 A 
ATOM     21  C   UNL d   1      25.153 -14.450  -4.519  0.00  0.00     0.002 A 
ATOM     22  C   UNL d   1      24.859 -13.529  -3.521  0.00  0.00     0.001 A 
ATOM     23  C   UNL d   1      25.890 -13.040  -2.719  0.00  0.00     0.020 A 
ATOM     24  C   UNL d   1      27.215 -13.508  -2.856  0.00  0.00     0.066 A 
BRANCH  24  25
ATOM     25  C   UNL d   1      28.144 -13.007  -1.808  0.00  0.00     0.295 C 
ATOM     26  O   UNL d   1      29.314 -13.362  -1.765  0.00  0.00    -0.259 OA
BRANCH  25  27
ATOM     27  O   UNL d   1      27.536 -12.158  -0.939  0.00  0.00    -0.322 OA
ATOM     28  C   UNL d   1      27.616 -12.598   0.425  0.00  0.00     0.213 C 
ENDBRANCH  25  27
ENDBRANCH  24  25
ENDBRANCH  16  19
ENDBRANCH  14  15
ENDBRANCH  13  14
ENDBRANCH   1  13
BRANCH   4  29
ATOM     29  C   UNL d   1      26.042 -16.817  -0.505  0.00  0.00    -0.022 A 
ATOM     30  C   UNL d   1      25.124 -15.947  -1.112  0.00  0.00     0.012 A 
ATOM     31  C   UNL d   1      23.788 -16.329  -1.270  0.00  0.00     0.001 A 
ATOM     32  C   UNL d   1      23.380 -17.608  -0.895  0.00  0.00     0.000 A 
ATOM     33  C   UNL d   1      24.292 -18.485  -0.308  0.00  0.00     0.001 A 
ATOM     34  C   UNL d   1      25.616 -18.087  -0.107  0.00  0.00     0.012 A 
ENDBRANCH   4  29
TORSDOF 7
ENDMDL
MODEL 8
REMARK VINA RESULT:    -6.268      2.778      4.897
REMARK INTER + INTRA:         -12.534
REMARK INTER:                  -8.356
REMARK INTRA:                  -4.178
REMARK CONF_INDEPENDENT:        2.088
REMARK UNBOUND:                -4.178
REMARK  7 active torsions:
REMARK  status: ('A' for Active; 'I' for Inactive)
REMARK    1  A    between atoms: O_2  and  C_3 
REMARK    2  A    between atoms: C_3  and  C_5 
REMARK    3  A    between atoms: C_10  and  N_11 
REMARK       I    between atoms: N_11  and  C_12 
REMARK    4  A    between atoms: C_12  and  C_14 
REMARK    5  A    between atoms: C_14  and  S_15 
REMARK    6  A    between atoms: S_15  and  C_16 
REMARK    7  A    between atoms: C_19  and  C_20 
ROOT
ATOM      1  C   UNL d   1      28.460 -15.575  -4.631  0.00  0.00     0.172 A 
ATOM      2  N   UNL d   1      27.587 -15.921  -3.730  0.00  0.00    -0.221 NA
ATOM      3  C   UNL d   1      26.445 -15.127  -3.693  0.00  0.00     0.104 A 
ATOM      4  C   UNL d   1      25.317 -15.232  -2.849  0.00  0.00     0.021 A 
ATOM      5  C   UNL d   1      24.529 -14.128  -3.145  0.00  0.00     0.103 A 
ATOM      6  N   UNL d   1      25.123 -13.429  -4.172  0.00  0.00    -0.359 N 
ATOM      7  C   UNL d   1      26.289 -14.055  -4.518  0.00  0.00     0.131 A 
ATOM      8  C   UNL d   1      27.229 -13.688  -5.528  0.00  0.00     0.278 A 
ATOM      9  O   UNL d   1      27.069 -12.724  -6.257  0.00  0.00    -0.265 OA
ATOM     10  N   UNL d   1      28.339 -14.540  -5.563  0.00  0.00    -0.296 N 
ATOM     11  C   UNL d   1      29.311 -14.306  -6.625  0.00  0.00     0.162 C 
ATOM     12  H   UNL d   1      24.774 -12.574  -4.590  0.00  0.00     0.165 HD
ENDROOT
BRANCH   1  13
ATOM     13  S   UNL d   1      29.859 -16.605  -4.733  0.00  0.00    -0.082 SA
BRANCH  13  14
ATOM     14  C   UNL d   1      30.645 -16.648  -3.078  0.00  0.00     0.185 C 
BRANCH  14  15
ATOM     15  C   UNL d   1      29.597 -16.327  -1.990  0.00  0.00     0.231 C 
ATOM     16  N   UNL d   1      29.141 -15.017  -1.865  0.00  0.00    -0.326 N 
ATOM     17  H   UNL d   1      28.961 -14.524  -2.732  0.00  0.00     0.169 HD
ATOM     18  O   UNL d   1      29.103 -17.233  -1.322  0.00  0.00    -0.272 OA
BRANCH  16  19
ATOM     19  C   UNL d   1      28.452 -14.523  -0.697  0.00  0.00     0.051 A 
ATOM     20  C   UNL d   1      28.651 -15.219   0.524  0.00  0.00     0.030 A 
ATOM     21  C   UNL d   1      28.027 -14.810   1.719  0.00  0.00     0.002 A 
ATOM     22  C   UNL d   1      27.192 -13.700   1.723  0.00  0.00     0.001 A 
ATOM     23  C   UNL d   1      26.944 -13.028   0.527  0.00  0.00     0.020 A 
ATOM     24  C   UNL d   1      27.574 -13.411  -0.677  0.00  0.00     0.066 A 
BRANCH  24  25
ATOM     25  C   UNL d   1      27.328 -12.480  -1.811  0.00  0.00     0.295 C 
ATOM     26  O   UNL d   1      26.280 -11.858  -1.915  0.00  0.00    -0.259 OA
BRANCH  25  27
ATOM     27  O   UNL d   1      28.372 -12.436  -2.680  0.00  0.00    -0.322 OA
ATOM     28  C   UNL d   1      28.399 -11.233  -3.464  0.00  0.00     0.213 C 
ENDBRANCH  25  27
ENDBRANCH  24  25
ENDBRANCH  16  19
ENDBRANCH  14  15
ENDBRANCH  13  14
ENDBRANCH   1  13
BRANCH   4  29
ATOM     29  C   UNL d   1      24.989 -16.146  -1.771  0.00  0.00    -0.022 A 
ATOM     30  C   UNL d   1      25.982 -16.923  -1.157  0.00  0.00     0.012 A 
ATOM     31  C   UNL d   1      25.637 -17.884  -0.201  0.00  0.00     0.001 A 
ATOM     32  C   UNL d   1      24.310 -18.021   0.202  0.00  0.00     0.000 A 
ATOM     33  C   UNL d   1      23.319 -17.238  -0.392  0.00  0.00     0.001 A 
ATOM     34  C   UNL d   1      23.657 -16.311  -1.380  0.00  0.00     0.012 A 
ENDBRANCH   4  29
TORSDOF 7
ENDMDL
MODEL 9
REMARK VINA RESULT:    -5.933      2.571      6.131
REMARK INTER + INTRA:         -12.072
REMARK INTER:                  -8.021
REMARK INTRA:                  -4.051
REMARK CONF_INDEPENDENT:        2.088
REMARK UNBOUND:                -4.051
REMARK  7 active torsions:
REMARK  status: ('A' for Active; 'I' for Inactive)
REMARK    1  A    between atoms: O_2  and  C_3 
REMARK    2  A    between atoms: C_3  and  C_5 
REMARK    3  A    between atoms: C_10  and  N_11 
REMARK       I    between atoms: N_11  and  C_12 
REMARK    4  A    between atoms: C_12  and  C_14 
REMARK    5  A    between atoms: C_14  and  S_15 
REMARK    6  A    between atoms: S_15  and  C_16 
REMARK    7  A    between atoms: C_19  and  C_20 
ROOT
ATOM      1  C   UNL d   1      27.868 -12.383  -1.152  0.00  0.00     0.172 A 
ATOM      2  N   UNL d   1      27.204 -13.500  -1.085  0.00  0.00    -0.221 NA
ATOM      3  C   UNL d   1      26.208 -13.643  -2.045  0.00  0.00     0.104 A 
ATOM      4  C   UNL d   1      25.319 -14.722  -2.250  0.00  0.00     0.021 A 
ATOM      5  C   UNL d   1      24.457 -14.306  -3.256  0.00  0.00     0.103 A 
ATOM      6  N   UNL d   1      24.855 -13.061  -3.685  0.00  0.00    -0.359 N 
ATOM      7  C   UNL d   1      25.940 -12.664  -2.953  0.00  0.00     0.131 A 
ATOM      8  C   UNL d   1      26.684 -11.449  -3.051  0.00  0.00     0.278 A 
ATOM      9  O   UNL d   1      26.428 -10.586  -3.873  0.00  0.00    -0.265 OA
ATOM     10  N   UNL d   1      27.705 -11.367  -2.099  0.00  0.00    -0.296 N 
ATOM     11  C   UNL d   1      28.584 -10.206  -2.180  0.00  0.00     0.162 C 
ATOM     12  H   UNL d   1      24.405 -12.508  -4.406  0.00  0.00     0.165 HD
ENDROOT
BRANCH   1  13
ATOM     13  S   UNL d   1      29.162 -12.226  -0.000  0.00  0.00    -0.082 SA
BRANCH  13  14
ATOM     14  C   UNL d   1      29.717 -13.913   0.452  0.00  0.00     0.185 C 
BRANCH  14  15
ATOM     15  C   UNL d   1      30.259 -14.641  -0.797  0.00  0.00     0.231 C 
ATOM     16  N   UNL d   1      29.358 -15.050  -1.776  0.00  0.00    -0.326 N 
ATOM     17  H   UNL d   1      28.619 -14.395  -2.002  0.00  0.00     0.169 HD
ATOM     18  O   UNL d   1      31.471 -14.760  -0.965  0.00  0.00    -0.272 OA
BRANCH  16  19
ATOM     19  C   UNL d   1      29.677 -16.024  -2.793  0.00  0.00     0.051 A 
ATOM     20  C   UNL d   1      30.477 -17.132  -2.410  0.00  0.00     0.030 A 
ATOM     21  C   UNL d   1      30.835 -18.138  -3.327  0.00  0.00     0.002 A 
ATOM     22  C   UNL d   1      30.405 -18.063  -4.646  0.00  0.00     0.001 A 
ATOM     23  C   UNL d   1      29.657 -16.960  -5.058  0.00  0.00     0.020 A 
ATOM     24  C   UNL d   1      29.273 -15.951  -4.149  0.00  0.00     0.066 A 
BRANCH  24  25
ATOM     25  C   UNL d   1      28.337 -14.946  -4.722  0.00  0.00     0.295 C 
ATOM     26  O   UNL d   1      27.608 -15.214  -5.666  0.00  0.00    -0.259 OA
BRANCH  25  27
ATOM     27  O   UNL d   1      28.417 -13.745  -4.090  0.00  0.00    -0.322 OA
ATOM     28  C   UNL d   1      29.451 -12.901  -4.619  0.00  0.00     0.213 C 
ENDBRANCH  25  27
ENDBRANCH  24  25
ENDBRANCH  16  19
ENDBRANCH  14  15
ENDBRANCH  13  14
ENDBRANCH   1  13
BRANCH   4  29
ATOM     29  C   UNL d   1      25.137 -15.981  -1.551  0.00  0.00    -0.022 A 
ATOM     30  C   UNL d   1      23.853 -16.470  -1.270  0.00  0.00     0.012 A 
ATOM     31  C   UNL d   1      23.691 -17.623  -0.495  0.00  0.00     0.001 A 
ATOM     32  C   UNL d   1      24.808 -18.334  -0.061  0.00  0.00     0.000 A 
ATOM     33  C   UNL d   1      26.088 -17.862  -0.352  0.00  0.00     0.001 A 
ATOM     34  C   UNL d   1      26.251 -16.686  -1.087  0.00  0.00     0.012 A 
ENDBRANCH   4  29
TORSDOF 7
ENDMDL
