MODEL 1
REMARK VINA RESULT:    -8.507      0.000      0.000
REMARK INTER + INTRA:         -12.401
REMARK INTER:                 -10.893
REMARK INTRA:                  -1.508
REMARK CONF_INDEPENDENT:        2.386
REMARK UNBOUND:                -1.508
REMARK  8 active torsions:
REMARK  status: ('A' for Active; 'I' for Inactive)
REMARK    1  A    between atoms: C_2  and  C_3 
REMARK    2  A    between atoms: C_3  and  C_4 
REMARK    3  A    between atoms: C_4  and  N_5 
REMARK       I    between atoms: N_5  and  C_6 
REMARK       I    between atoms: C_6  and  N_8 
REMARK    4  A    between atoms: N_8  and  N_9 
REMARK       I    between atoms: N_9  and  C_10 
REMARK    5  A    between atoms: C_10  and  C_12 
REMARK    6  A    between atoms: C_13  and  C_14 
REMARK    7  A    between atoms: C_17  and  O_18 
REMARK    8  A    between atoms: C_20  and  O_21 
ROOT
ATOM      1  N   UNL d   1      23.336 -17.840  -0.796  0.00  0.00    -0.263 N 
ATOM      2  C   UNL d   1      24.709 -17.782  -0.596  0.00  0.00     0.259 C 
ATOM      3  O   UNL d   1      25.303 -18.537   0.176  0.00  0.00    -0.267 OA
ATOM      4  H   UNL d   1      22.818 -17.229  -1.425  0.00  0.00     0.190 HD
ENDROOT
BRANCH   2   5
ATOM      5  C   UNL d   1      25.445 -16.725  -1.382  0.00  0.00     0.076 C 
ATOM      6  C   UNL d   1      24.846 -15.997  -2.353  0.00  0.00     0.017 C 
BRANCH   6   7
ATOM      7  C   UNL d   1      25.530 -14.997  -3.213  0.00  0.00    -0.033 A 
ATOM      8  C   UNL d   1      25.322 -13.618  -3.080  0.00  0.00     0.014 A 
ATOM      9  C   UNL d   1      25.901 -12.712  -3.992  0.00  0.00     0.040 A 
ATOM     10  C   UNL d   1      26.745 -13.156  -5.020  0.00  0.00     0.101 A 
ATOM     11  C   UNL d   1      26.934 -14.538  -5.179  0.00  0.00     0.102 A 
ATOM     12  C   UNL d   1      26.326 -15.430  -4.278  0.00  0.00     0.051 A 
BRANCH  10  13
ATOM     13  O   UNL d   1      27.306 -12.148  -5.771  0.00  0.00    -0.353 OA
ATOM     14  C   UNL d   1      26.456 -11.072  -6.171  0.00  0.00     0.210 C 
ENDBRANCH  10  13
BRANCH  11  15
ATOM     15  O   UNL d   1      27.688 -14.968  -6.235  0.00  0.00    -0.353 OA
ATOM     16  C   UNL d   1      29.045 -14.572  -6.303  0.00  0.00     0.210 C 
ENDBRANCH  11  15
ENDBRANCH   6   7
ENDBRANCH   2   5
BRANCH   1  17
ATOM     17  N   UNL d   1      22.545 -18.830  -0.107  0.00  0.00    -0.249 N 
ATOM     18  C   UNL d   1      21.199 -18.978  -0.420  0.00  0.00     0.334 C 
ATOM     19  N   UNL d   1      20.534 -19.961   0.294  0.00  0.00    -0.342 N 
ATOM     20  O   UNL d   1      20.646 -18.279  -1.270  0.00  0.00    -0.246 OA
ATOM     21  H   UNL d   1      21.033 -20.508   0.980  0.00  0.00     0.164 HD
ATOM     22  H   UNL d   1      23.036 -19.391   0.581  0.00  0.00     0.192 HD
BRANCH  19  23
ATOM     23  C   UNL d   1      19.106 -20.234   0.079  0.00  0.00     0.124 C 
BRANCH  23  24
ATOM     24  C   UNL d   1      18.454 -21.108   1.165  0.00  0.00     0.019 C 
BRANCH  24  25
ATOM     25  C   UNL d   1      18.496 -20.444   2.554  0.00  0.00    -0.003 C 
ATOM     26  C   UNL d   1      19.903 -20.450   3.140  0.00  0.00     0.005 C 
ENDBRANCH  24  25
ENDBRANCH  23  24
ENDBRANCH  19  23
ENDBRANCH   1  17
TORSDOF 8
ENDMDL
MODEL 2
REMARK VINA RESULT:    -8.137      0.586      1.036
REMARK INTER + INTRA:         -11.947
REMARK INTER:                 -10.524
REMARK INTRA:                  -1.423
REMARK CONF_INDEPENDENT:        2.386
REMARK UNBOUND:                -1.423
REMARK  8 active torsions:
REMARK  status: ('A' for Active; 'I' for Inactive)
REMARK    1  A    between atoms: C_2  and  C_3 
REMARK    2  A    between atoms: C_3  and  C_4 
REMARK    3  A    between atoms: C_4  and  N_5 
REMARK       I    between atoms: N_5  and  C_6 
REMARK       I    between atoms: C_6  and  N_8 
REMARK    4  A    between atoms: N_8  and  N_9 
REMARK       I    between atoms: N_9  and  C_10 
REMARK    5  A    between atoms: C_10  and  C_12 
REMARK    6  A    between atoms: C_13  and  C_14 
REMARK    7  A    between atoms: C_17  and  O_18 
REMARK    8  A    between atoms: C_20  and  O_21 
ROOT
ATOM      1  N   UNL d   1      23.612 -17.784  -0.877  0.00  0.00    -0.263 N 
ATOM      2  C   UNL d   1      24.979 -17.663  -0.671  0.00  0.00     0.259 C 
ATOM      3  O   UNL d   1      25.578 -18.280   0.214  0.00  0.00    -0.267 OA
ATOM      4  H   UNL d   1      23.090 -17.288  -1.598  0.00  0.00     0.190 HD
ENDROOT
BRANCH   2   5
ATOM      5  C   UNL d   1      25.705 -16.718  -1.597  0.00  0.00     0.076 C 
ATOM      6  C   UNL d   1      25.051 -15.825  -2.376  0.00  0.00     0.017 C 
BRANCH   6   7
ATOM      7  C   UNL d   1      25.697 -14.921  -3.361  0.00  0.00    -0.033 A 
ATOM      8  C   UNL d   1      25.416 -13.549  -3.425  0.00  0.00     0.014 A 
ATOM      9  C   UNL d   1      25.964 -12.750  -4.450  0.00  0.00     0.040 A 
ATOM     10  C   UNL d   1      26.847 -13.288  -5.397  0.00  0.00     0.101 A 
ATOM     11  C   UNL d   1      27.109 -14.667  -5.358  0.00  0.00     0.102 A 
ATOM     12  C   UNL d   1      26.532 -15.456  -4.347  0.00  0.00     0.051 A 
BRANCH  10  13
ATOM     13  O   UNL d   1      27.368 -12.367  -6.277  0.00  0.00    -0.353 OA
ATOM     14  C   UNL d   1      27.041 -10.994  -6.065  0.00  0.00     0.210 C 
ENDBRANCH  10  13
BRANCH  11  15
ATOM     15  O   UNL d   1      27.902 -15.201  -6.335  0.00  0.00    -0.353 OA
ATOM     16  C   UNL d   1      29.072 -14.500  -6.716  0.00  0.00     0.210 C 
ENDBRANCH  11  15
ENDBRANCH   6   7
ENDBRANCH   2   5
BRANCH   1  17
ATOM     17  N   UNL d   1      22.832 -18.680  -0.058  0.00  0.00    -0.249 N 
ATOM     18  C   UNL d   1      21.445 -18.667  -0.148  0.00  0.00     0.334 C 
ATOM     19  N   UNL d   1      20.794 -19.570   0.676  0.00  0.00    -0.342 N 
ATOM     20  O   UNL d   1      20.847 -17.902  -0.907  0.00  0.00    -0.246 OA
ATOM     21  H   UNL d   1      21.329 -20.176   1.279  0.00  0.00     0.164 HD
ATOM     22  H   UNL d   1      23.358 -19.299   0.549  0.00  0.00     0.192 HD
BRANCH  19  23
ATOM     23  C   UNL d   1      19.327 -19.672   0.696  0.00  0.00     0.124 C 
BRANCH  23  24
ATOM     24  C   UNL d   1      18.759 -20.417   1.916  0.00  0.00     0.019 C 
BRANCH  24  25
ATOM     25  C   UNL d   1      18.027 -21.714   1.522  0.00  0.00    -0.003 C 
ATOM     26  C   UNL d   1      17.324 -21.577   0.176  0.00  0.00     0.005 C 
ENDBRANCH  24  25
ENDBRANCH  23  24
ENDBRANCH  19  23
ENDBRANCH   1  17
TORSDOF 8
ENDMDL
MODEL 3
REMARK VINA RESULT:    -7.477      0.835      1.909
REMARK INTER + INTRA:         -11.419
REMARK INTER:                  -9.863
REMARK INTRA:                  -1.556
REMARK CONF_INDEPENDENT:        2.386
REMARK UNBOUND:                -1.556
REMARK  8 active torsions:
REMARK  status: ('A' for Active; 'I' for Inactive)
REMARK    1  A    between atoms: C_2  and  C_3 
REMARK    2  A    between atoms: C_3  and  C_4 
REMARK    3  A    between atoms: C_4  and  N_5 
REMARK       I    between atoms: N_5  and  C_6 
REMARK       I    between atoms: C_6  and  N_8 
REMARK    4  A    between atoms: N_8  and  N_9 
REMARK       I    between atoms: N_9  and  C_10 
REMARK    5  A    between atoms: C_10  and  C_12 
REMARK    6  A    between atoms: C_13  and  C_14 
REMARK    7  A    between atoms: C_17  and  O_18 
REMARK    8  A    between atoms: C_20  and  O_21 
ROOT
ATOM      1  N   UNL d   1      23.493 -17.752  -0.870  0.00  0.00    -0.263 N 
ATOM      2  C   UNL d   1      24.871 -17.692  -0.713  0.00  0.00     0.259 C 
ATOM      3  O   UNL d   1      25.497 -18.480  -0.000  0.00  0.00    -0.267 OA
ATOM      4  H   UNL d   1      22.949 -17.115  -1.450  0.00  0.00     0.190 HD
ENDROOT
BRANCH   2   5
ATOM      5  C   UNL d   1      25.573 -16.590  -1.469  0.00  0.00     0.076 C 
ATOM      6  C   UNL d   1      25.029 -16.002  -2.559  0.00  0.00     0.017 C 
BRANCH   6   7
ATOM      7  C   UNL d   1      25.696 -14.967  -3.391  0.00  0.00    -0.033 A 
ATOM      8  C   UNL d   1      26.810 -15.246  -4.194  0.00  0.00     0.014 A 
ATOM      9  C   UNL d   1      27.483 -14.210  -4.875  0.00  0.00     0.040 A 
ATOM     10  C   UNL d   1      27.026 -12.885  -4.816  0.00  0.00     0.101 A 
ATOM     11  C   UNL d   1      25.930 -12.594  -3.989  0.00  0.00     0.102 A 
ATOM     12  C   UNL d   1      25.288 -13.633  -3.293  0.00  0.00     0.051 A 
BRANCH  10  13
ATOM     13  O   UNL d   1      27.731 -12.005  -5.605  0.00  0.00    -0.353 OA
ATOM     14  C   UNL d   1      26.982 -11.095  -6.411  0.00  0.00     0.210 C 
ENDBRANCH  10  13
BRANCH  11  15
ATOM     15  O   UNL d   1      25.543 -11.288  -3.868  0.00  0.00    -0.353 OA
ATOM     16  C   UNL d   1      26.285 -10.438  -3.013  0.00  0.00     0.210 C 
ENDBRANCH  11  15
ENDBRANCH   6   7
ENDBRANCH   2   5
BRANCH   1  17
ATOM     17  N   UNL d   1      22.733 -18.783  -0.206  0.00  0.00    -0.249 N 
ATOM     18  C   UNL d   1      21.377 -18.925  -0.478  0.00  0.00     0.334 C 
ATOM     19  N   UNL d   1      20.744 -19.949   0.207  0.00  0.00    -0.342 N 
ATOM     20  O   UNL d   1      20.790 -18.188  -1.271  0.00  0.00    -0.246 OA
ATOM     21  H   UNL d   1      21.270 -20.526   0.845  0.00  0.00     0.164 HD
ATOM     22  H   UNL d   1      23.251 -19.375   0.435  0.00  0.00     0.192 HD
BRANCH  19  23
ATOM     23  C   UNL d   1      19.311 -20.221   0.028  0.00  0.00     0.124 C 
BRANCH  23  24
ATOM     24  C   UNL d   1      18.698 -21.134   1.105  0.00  0.00     0.019 C 
BRANCH  24  25
ATOM     25  C   UNL d   1      18.566 -20.427   2.467  0.00  0.00    -0.003 C 
ATOM     26  C   UNL d   1      19.879 -20.448   3.242  0.00  0.00     0.005 C 
ENDBRANCH  24  25
ENDBRANCH  23  24
ENDBRANCH  19  23
ENDBRANCH   1  17
TORSDOF 8
ENDMDL
MODEL 4
REMARK VINA RESULT:    -7.290      1.048      2.175
REMARK INTER + INTRA:         -11.136
REMARK INTER:                  -9.677
REMARK INTRA:                  -1.460
REMARK CONF_INDEPENDENT:        2.386
REMARK UNBOUND:                -1.460
REMARK  8 active torsions:
REMARK  status: ('A' for Active; 'I' for Inactive)
REMARK    1  A    between atoms: C_2  and  C_3 
REMARK    2  A    between atoms: C_3  and  C_4 
REMARK    3  A    between atoms: C_4  and  N_5 
REMARK       I    between atoms: N_5  and  C_6 
REMARK       I    between atoms: C_6  and  N_8 
REMARK    4  A    between atoms: N_8  and  N_9 
REMARK       I    between atoms: N_9  and  C_10 
REMARK    5  A    between atoms: C_10  and  C_12 
REMARK    6  A    between atoms: C_13  and  C_14 
REMARK    7  A    between atoms: C_17  and  O_18 
REMARK    8  A    between atoms: C_20  and  O_21 
ROOT
ATOM      1  N   UNL d   1      23.687 -17.957  -0.961  0.00  0.00    -0.263 N 
ATOM      2  C   UNL d   1      25.037 -17.730  -0.729  0.00  0.00     0.259 C 
ATOM      3  O   UNL d   1      25.616 -18.128   0.284  0.00  0.00    -0.267 OA
ATOM      4  H   UNL d   1      23.182 -17.640  -1.787  0.00  0.00     0.190 HD
ENDROOT
BRANCH   2   5
ATOM      5  C   UNL d   1      25.769 -16.955  -1.797  0.00  0.00     0.076 C 
ATOM      6  C   UNL d   1      25.271 -15.816  -2.333  0.00  0.00     0.017 C 
BRANCH   6   7
ATOM      7  C   UNL d   1      25.902 -15.047  -3.436  0.00  0.00    -0.033 A 
ATOM      8  C   UNL d   1      27.000 -15.528  -4.161  0.00  0.00     0.014 A 
ATOM      9  C   UNL d   1      27.639 -14.716  -5.121  0.00  0.00     0.040 A 
ATOM     10  C   UNL d   1      27.164 -13.430  -5.418  0.00  0.00     0.101 A 
ATOM     11  C   UNL d   1      26.084 -12.930  -4.674  0.00  0.00     0.102 A 
ATOM     12  C   UNL d   1      25.475 -13.741  -3.700  0.00  0.00     0.051 A 
BRANCH  10  13
ATOM     13  O   UNL d   1      27.836 -12.797  -6.439  0.00  0.00    -0.353 OA
ATOM     14  C   UNL d   1      29.170 -12.360  -6.179  0.00  0.00     0.210 C 
ENDBRANCH  10  13
BRANCH  11  15
ATOM     15  O   UNL d   1      25.681 -11.645  -4.908  0.00  0.00    -0.353 OA
ATOM     16  C   UNL d   1      25.562 -10.761  -3.809  0.00  0.00     0.210 C 
ENDBRANCH  11  15
ENDBRANCH   6   7
ENDBRANCH   2   5
BRANCH   1  17
ATOM     17  N   UNL d   1      22.905 -18.708  -0.010  0.00  0.00    -0.249 N 
ATOM     18  C   UNL d   1      21.518 -18.651  -0.060  0.00  0.00     0.334 C 
ATOM     19  N   UNL d   1      20.863 -19.415   0.893  0.00  0.00    -0.342 N 
ATOM     20  O   UNL d   1      20.921 -17.968  -0.894  0.00  0.00    -0.246 OA
ATOM     21  H   UNL d   1      21.398 -19.958   1.554  0.00  0.00     0.164 HD
ATOM     22  H   UNL d   1      23.430 -19.263   0.657  0.00  0.00     0.192 HD
BRANCH  19  23
ATOM     23  C   UNL d   1      19.396 -19.455   0.970  0.00  0.00     0.124 C 
BRANCH  23  24
ATOM     24  C   UNL d   1      18.840 -20.477   1.977  0.00  0.00     0.019 C 
BRANCH  24  25
ATOM     25  C   UNL d   1      17.986 -21.564   1.298  0.00  0.00    -0.003 C 
ATOM     26  C   UNL d   1      17.655 -21.202  -0.145  0.00  0.00     0.005 C 
ENDBRANCH  24  25
ENDBRANCH  23  24
ENDBRANCH  19  23
ENDBRANCH   1  17
TORSDOF 8
ENDMDL
MODEL 5
REMARK VINA RESULT:    -7.048      1.541      1.912
REMARK INTER + INTRA:         -10.293
REMARK INTER:                  -9.434
REMARK INTRA:                  -0.859
REMARK CONF_INDEPENDENT:        2.386
REMARK UNBOUND:                -0.859
REMARK  8 active torsions:
REMARK  status: ('A' for Active; 'I' for Inactive)
REMARK    1  A    between atoms: C_2  and  C_3 
REMARK    2  A    between atoms: C_3  and  C_4 
REMARK    3  A    between atoms: C_4  and  N_5 
REMARK       I    between atoms: N_5  and  C_6 
REMARK       I    between atoms: C_6  and  N_8 
REMARK    4  A    between atoms: N_8  and  N_9 
REMARK       I    between atoms: N_9  and  C_10 
REMARK    5  A    between atoms: C_10  and  C_12 
REMARK    6  A    between atoms: C_13  and  C_14 
REMARK    7  A    between atoms: C_17  and  O_18 
REMARK    8  A    between atoms: C_20  and  O_21 
ROOT
ATOM      1  N   UNL d   1      24.492 -17.910  -0.992  0.00  0.00    -0.263 N 
ATOM      2  C   UNL d   1      24.303 -16.674  -1.594  0.00  0.00     0.259 C 
ATOM      3  O   UNL d   1      23.324 -15.961  -1.360  0.00  0.00    -0.267 OA
ATOM      4  H   UNL d   1      25.289 -18.521  -1.166  0.00  0.00     0.190 HD
ENDROOT
BRANCH   2   5
ATOM      5  C   UNL d   1      25.371 -16.245  -2.569  0.00  0.00     0.076 C 
ATOM      6  C   UNL d   1      25.464 -14.975  -3.027  0.00  0.00     0.017 C 
BRANCH   6   7
ATOM      7  C   UNL d   1      26.442 -14.504  -4.041  0.00  0.00    -0.033 A 
ATOM      8  C   UNL d   1      26.422 -13.205  -4.565  0.00  0.00     0.014 A 
ATOM      9  C   UNL d   1      27.295 -12.836  -5.610  0.00  0.00     0.040 A 
ATOM     10  C   UNL d   1      28.243 -13.738  -6.116  0.00  0.00     0.101 A 
ATOM     11  C   UNL d   1      28.248 -15.051  -5.619  0.00  0.00     0.102 A 
ATOM     12  C   UNL d   1      27.352 -15.410  -4.597  0.00  0.00     0.051 A 
BRANCH  10  13
ATOM     13  O   UNL d   1      29.082 -13.205  -7.069  0.00  0.00    -0.353 OA
ATOM     14  C   UNL d   1      28.521 -12.279  -7.999  0.00  0.00     0.210 C 
ENDBRANCH  10  13
BRANCH  11  15
ATOM     15  O   UNL d   1      29.116 -15.947  -6.176  0.00  0.00    -0.353 OA
ATOM     16  C   UNL d   1      30.279 -16.304  -5.451  0.00  0.00     0.210 C 
ENDBRANCH  11  15
ENDBRANCH   6   7
ENDBRANCH   2   5
BRANCH   1  17
ATOM     17  N   UNL d   1      23.538 -18.401  -0.027  0.00  0.00    -0.249 N 
ATOM     18  C   UNL d   1      22.301 -18.866  -0.455  0.00  0.00     0.334 C 
ATOM     19  N   UNL d   1      21.464 -19.320   0.550  0.00  0.00    -0.342 N 
ATOM     20  O   UNL d   1      21.980 -18.870  -1.645  0.00  0.00    -0.246 OA
ATOM     21  H   UNL d   1      21.774 -19.298   1.510  0.00  0.00     0.164 HD
ATOM     22  H   UNL d   1      23.839 -18.389   0.941  0.00  0.00     0.192 HD
BRANCH  19  23
ATOM     23  C   UNL d   1      20.121 -19.840   0.255  0.00  0.00     0.124 C 
BRANCH  23  24
ATOM     24  C   UNL d   1      19.115 -19.695   1.411  0.00  0.00     0.019 C 
BRANCH  24  25
ATOM     25  C   UNL d   1      18.444 -21.033   1.775  0.00  0.00    -0.003 C 
ATOM     26  C   UNL d   1      17.632 -21.592   0.613  0.00  0.00     0.005 C 
ENDBRANCH  24  25
ENDBRANCH  23  24
ENDBRANCH  19  23
ENDBRANCH   1  17
TORSDOF 8
ENDMDL
MODEL 6
REMARK VINA RESULT:    -6.636      7.115      8.821
REMARK INTER + INTRA:          -9.901
REMARK INTER:                  -9.022
REMARK INTRA:                  -0.879
REMARK CONF_INDEPENDENT:        2.386
REMARK UNBOUND:                -0.879
REMARK  8 active torsions:
REMARK  status: ('A' for Active; 'I' for Inactive)
REMARK    1  A    between atoms: C_2  and  C_3 
REMARK    2  A    between atoms: C_3  and  C_4 
REMARK    3  A    between atoms: C_4  and  N_5 
REMARK       I    between atoms: N_5  and  C_6 
REMARK       I    between atoms: C_6  and  N_8 
REMARK    4  A    between atoms: N_8  and  N_9 
REMARK       I    between atoms: N_9  and  C_10 
REMARK    5  A    between atoms: C_10  and  C_12 
REMARK    6  A    between atoms: C_13  and  C_14 
REMARK    7  A    between atoms: C_17  and  O_18 
REMARK    8  A    between atoms: C_20  and  O_21 
ROOT
ATOM      1  N   UNL d   1      29.228 -14.450   3.689  0.00  0.00    -0.263 N 
ATOM      2  C   UNL d   1      28.182 -13.570   3.443  0.00  0.00     0.259 C 
ATOM      3  O   UNL d   1      27.891 -12.649   4.209  0.00  0.00    -0.267 OA
ATOM      4  H   UNL d   1      29.491 -15.220   3.076  0.00  0.00     0.190 HD
ENDROOT
BRANCH   2   5
ATOM      5  C   UNL d   1      27.406 -13.809   2.171  0.00  0.00     0.076 C 
ATOM      6  C   UNL d   1      27.934 -14.468   1.114  0.00  0.00     0.017 C 
BRANCH   6   7
ATOM      7  C   UNL d   1      27.253 -14.672  -0.190  0.00  0.00    -0.033 A 
ATOM      8  C   UNL d   1      27.207 -13.682  -1.181  0.00  0.00     0.014 A 
ATOM      9  C   UNL d   1      26.451 -13.875  -2.356  0.00  0.00     0.040 A 
ATOM     10  C   UNL d   1      25.772 -15.080  -2.593  0.00  0.00     0.101 A 
ATOM     11  C   UNL d   1      25.789 -16.063  -1.592  0.00  0.00     0.102 A 
ATOM     12  C   UNL d   1      26.524 -15.844  -0.413  0.00  0.00     0.051 A 
BRANCH  10  13
ATOM     13  O   UNL d   1      25.155 -15.152  -3.821  0.00  0.00    -0.353 OA
ATOM     14  C   UNL d   1      25.989 -15.279  -4.973  0.00  0.00     0.210 C 
ENDBRANCH  10  13
BRANCH  11  15
ATOM     15  O   UNL d   1      25.055 -17.199  -1.792  0.00  0.00    -0.353 OA
ATOM     16  C   UNL d   1      24.042 -17.525  -0.858  0.00  0.00     0.210 C 
ENDBRANCH  11  15
ENDBRANCH   6   7
ENDBRANCH   2   5
BRANCH   1  17
ATOM     17  N   UNL d   1      30.045 -14.292   4.868  0.00  0.00    -0.249 N 
ATOM     18  C   UNL d   1      29.447 -14.251   6.121  0.00  0.00     0.334 C 
ATOM     19  N   UNL d   1      30.322 -14.103   7.185  0.00  0.00    -0.342 N 
ATOM     20  O   UNL d   1      28.227 -14.337   6.266  0.00  0.00    -0.246 OA
ATOM     21  H   UNL d   1      31.314 -14.038   7.014  0.00  0.00     0.164 HD
ATOM     22  H   UNL d   1      31.045 -14.231   4.710  0.00  0.00     0.192 HD
BRANCH  19  23
ATOM     23  C   UNL d   1      29.841 -14.039   8.572  0.00  0.00     0.124 C 
BRANCH  23  24
ATOM     24  C   UNL d   1      28.868 -12.881   8.855  0.00  0.00     0.019 C 
BRANCH  24  25
ATOM     25  C   UNL d   1      28.195 -13.004  10.235  0.00  0.00    -0.003 C 
ATOM     26  C   UNL d   1      28.153 -14.450  10.714  0.00  0.00     0.005 C 
ENDBRANCH  24  25
ENDBRANCH  23  24
ENDBRANCH  19  23
ENDBRANCH   1  17
TORSDOF 8
ENDMDL
MODEL 7
REMARK VINA RESULT:    -6.486      1.843      2.577
REMARK INTER + INTRA:         -10.138
REMARK INTER:                  -8.872
REMARK INTRA:                  -1.266
REMARK CONF_INDEPENDENT:        2.386
REMARK UNBOUND:                -1.266
REMARK  8 active torsions:
REMARK  status: ('A' for Active; 'I' for Inactive)
REMARK    1  A    between atoms: C_2  and  C_3 
REMARK    2  A    between atoms: C_3  and  C_4 
REMARK    3  A    between atoms: C_4  and  N_5 
REMARK       I    between atoms: N_5  and  C_6 
REMARK       I    between atoms: C_6  and  N_8 
REMARK    4  A    between atoms: N_8  and  N_9 
REMARK       I    between atoms: N_9  and  C_10 
REMARK    5  A    between atoms: C_10  and  C_12 
REMARK    6  A    between atoms: C_13  and  C_14 
REMARK    7  A    between atoms: C_17  and  O_18 
REMARK    8  A    between atoms: C_20  and  O_21 
ROOT
ATOM      1  N   UNL d   1      23.407 -16.381  -1.293  0.00  0.00    -0.263 N 
ATOM      2  C   UNL d   1      24.611 -16.178  -1.954  0.00  0.00     0.259 C 
ATOM      3  O   UNL d   1      25.503 -17.028  -1.990  0.00  0.00    -0.267 OA
ATOM      4  H   UNL d   1      22.652 -15.698  -1.245  0.00  0.00     0.190 HD
ENDROOT
BRANCH   2   5
ATOM      5  C   UNL d   1      24.773 -14.840  -2.632  0.00  0.00     0.076 C 
ATOM      6  C   UNL d   1      25.971 -14.217  -2.725  0.00  0.00     0.017 C 
BRANCH   6   7
ATOM      7  C   UNL d   1      26.187 -12.869  -3.311  0.00  0.00    -0.033 A 
ATOM      8  C   UNL d   1      26.626 -11.777  -2.552  0.00  0.00     0.014 A 
ATOM      9  C   UNL d   1      26.706 -10.489  -3.123  0.00  0.00     0.040 A 
ATOM     10  C   UNL d   1      26.405 -10.275  -4.476  0.00  0.00     0.101 A 
ATOM     11  C   UNL d   1      25.935 -11.359  -5.235  0.00  0.00     0.102 A 
ATOM     12  C   UNL d   1      25.833 -12.630  -4.643  0.00  0.00     0.051 A 
BRANCH  10  13
ATOM     13  O   UNL d   1      26.617  -8.986  -4.909  0.00  0.00    -0.353 OA
ATOM     14  C   UNL d   1      25.475  -8.228  -5.310  0.00  0.00     0.210 C 
ENDBRANCH  10  13
BRANCH  11  15
ATOM     15  O   UNL d   1      25.562 -11.125  -6.529  0.00  0.00    -0.353 OA
ATOM     16  C   UNL d   1      26.552 -10.719  -7.456  0.00  0.00     0.210 C 
ENDBRANCH  11  15
ENDBRANCH   6   7
ENDBRANCH   2   5
BRANCH   1  17
ATOM     17  N   UNL d   1      23.145 -17.636  -0.632  0.00  0.00    -0.249 N 
ATOM     18  C   UNL d   1      21.856 -18.153  -0.617  0.00  0.00     0.334 C 
ATOM     19  N   UNL d   1      21.716 -19.366   0.038  0.00  0.00    -0.342 N 
ATOM     20  O   UNL d   1      20.911 -17.567  -1.148  0.00  0.00    -0.246 OA
ATOM     21  H   UNL d   1      22.521 -19.806   0.456  0.00  0.00     0.164 HD
ATOM     22  H   UNL d   1      23.948 -18.093  -0.212  0.00  0.00     0.192 HD
BRANCH  19  23
ATOM     23  C   UNL d   1      20.412 -20.037   0.141  0.00  0.00     0.124 C 
BRANCH  23  24
ATOM     24  C   UNL d   1      19.903 -20.219   1.582  0.00  0.00     0.019 C 
BRANCH  24  25
ATOM     25  C   UNL d   1      18.385 -20.471   1.640  0.00  0.00    -0.003 C 
ATOM     26  C   UNL d   1      18.008 -21.797   0.988  0.00  0.00     0.005 C 
ENDBRANCH  24  25
ENDBRANCH  23  24
ENDBRANCH  19  23
ENDBRANCH   1  17
TORSDOF 8
ENDMDL
MODEL 8
REMARK VINA RESULT:    -6.212      2.006      2.459
REMARK INTER + INTRA:         -10.131
REMARK INTER:                  -8.598
REMARK INTRA:                  -1.533
REMARK CONF_INDEPENDENT:        2.386
REMARK UNBOUND:                -1.533
REMARK  8 active torsions:
REMARK  status: ('A' for Active; 'I' for Inactive)
REMARK    1  A    between atoms: C_2  and  C_3 
REMARK    2  A    between atoms: C_3  and  C_4 
REMARK    3  A    between atoms: C_4  and  N_5 
REMARK       I    between atoms: N_5  and  C_6 
REMARK       I    between atoms: C_6  and  N_8 
REMARK    4  A    between atoms: N_8  and  N_9 
REMARK       I    between atoms: N_9  and  C_10 
REMARK    5  A    between atoms: C_10  and  C_12 
REMARK    6  A    between atoms: C_13  and  C_14 
REMARK    7  A    between atoms: C_17  and  O_18 
REMARK    8  A    between atoms: C_20  and  O_21 
ROOT
ATOM      1  N   UNL d   1      24.110 -17.608  -0.314  0.00  0.00    -0.263 N 
ATOM      2  C   UNL d   1      25.473 -17.731  -0.084  0.00  0.00     0.259 C 
ATOM      3  O   UNL d   1      25.972 -18.722   0.454  0.00  0.00    -0.267 OA
ATOM      4  H   UNL d   1      23.669 -16.803  -0.755  0.00  0.00     0.190 HD
ENDROOT
BRANCH   2   5
ATOM      5  C   UNL d   1      26.325 -16.568  -0.529  0.00  0.00     0.076 C 
ATOM      6  C   UNL d   1      25.815 -15.328  -0.713  0.00  0.00     0.017 C 
BRANCH   6   7
ATOM      7  C   UNL d   1      26.580 -14.159  -1.220  0.00  0.00    -0.033 A 
ATOM      8  C   UNL d   1      27.367 -13.353  -0.388  0.00  0.00     0.014 A 
ATOM      9  C   UNL d   1      27.982 -12.186  -0.889  0.00  0.00     0.040 A 
ATOM     10  C   UNL d   1      27.871 -11.830  -2.241  0.00  0.00     0.101 A 
ATOM     11  C   UNL d   1      27.059 -12.616  -3.074  0.00  0.00     0.102 A 
ATOM     12  C   UNL d   1      26.429 -13.760  -2.552  0.00  0.00     0.051 A 
BRANCH  10  13
ATOM     13  O   UNL d   1      28.600 -10.718  -2.598  0.00  0.00    -0.353 OA
ATOM     14  C   UNL d   1      28.630  -9.626  -1.679  0.00  0.00     0.210 C 
ENDBRANCH  10  13
BRANCH  11  15
ATOM     15  O   UNL d   1      26.886 -12.216  -4.369  0.00  0.00    -0.353 OA
ATOM     16  C   UNL d   1      25.638 -12.459  -4.992  0.00  0.00     0.210 C 
ENDBRANCH  11  15
ENDBRANCH   6   7
ENDBRANCH   2   5
BRANCH   1  17
ATOM     17  N   UNL d   1      23.213 -18.676   0.056  0.00  0.00    -0.249 N 
ATOM     18  C   UNL d   1      21.871 -18.604  -0.296  0.00  0.00     0.334 C 
ATOM     19  N   UNL d   1      21.100 -19.684   0.102  0.00  0.00    -0.342 N 
ATOM     20  O   UNL d   1      21.409 -17.643  -0.914  0.00  0.00    -0.246 OA
ATOM     21  H   UNL d   1      21.526 -20.447   0.605  0.00  0.00     0.164 HD
ATOM     22  H   UNL d   1      23.630 -19.453   0.558  0.00  0.00     0.192 HD
BRANCH  19  23
ATOM     23  C   UNL d   1      19.661 -19.750  -0.194  0.00  0.00     0.124 C 
BRANCH  23  24
ATOM     24  C   UNL d   1      18.932 -20.936   0.462  0.00  0.00     0.019 C 
BRANCH  24  25
ATOM     25  C   UNL d   1      18.407 -20.594   1.869  0.00  0.00    -0.003 C 
ATOM     26  C   UNL d   1      19.542 -20.450   2.876  0.00  0.00     0.005 C 
ENDBRANCH  24  25
ENDBRANCH  23  24
ENDBRANCH  19  23
ENDBRANCH   1  17
TORSDOF 8
ENDMDL
MODEL 9
REMARK VINA RESULT:    -6.151      1.677      2.928
REMARK INTER + INTRA:         -10.001
REMARK INTER:                  -8.537
REMARK INTRA:                  -1.464
REMARK CONF_INDEPENDENT:        2.386
REMARK UNBOUND:                -1.464
REMARK  8 active torsions:
REMARK  status: ('A' for Active; 'I' for Inactive)
REMARK    1  A    between atoms: C_2  and  C_3 
REMARK    2  A    between atoms: C_3  and  C_4 
REMARK    3  A    between atoms: C_4  and  N_5 
REMARK       I    between atoms: N_5  and  C_6 
REMARK       I    between atoms: C_6  and  N_8 
REMARK    4  A    between atoms: N_8  and  N_9 
REMARK       I    between atoms: N_9  and  C_10 
REMARK    5  A    between atoms: C_10  and  C_12 
REMARK    6  A    between atoms: C_13  and  C_14 
REMARK    7  A    between atoms: C_17  and  O_18 
REMARK    8  A    between atoms: C_20  and  O_21 
ROOT
ATOM      1  N   UNL d   1      24.485 -17.303  -1.402  0.00  0.00    -0.263 N 
ATOM      2  C   UNL d   1      25.494 -16.404  -1.084  0.00  0.00     0.259 C 
ATOM      3  O   UNL d   1      25.489 -15.733  -0.050  0.00  0.00    -0.267 OA
ATOM      4  H   UNL d   1      24.462 -17.870  -2.248  0.00  0.00     0.190 HD
ENDROOT
BRANCH   2   5
ATOM      5  C   UNL d   1      26.612 -16.286  -2.091  0.00  0.00     0.076 C 
ATOM      6  C   UNL d   1      26.564 -15.416  -3.127  0.00  0.00     0.017 C 
BRANCH   6   7
ATOM      7  C   UNL d   1      27.593 -15.302  -4.192  0.00  0.00    -0.033 A 
ATOM      8  C   UNL d   1      28.835 -15.947  -4.115  0.00  0.00     0.014 A 
ATOM      9  C   UNL d   1      29.826 -15.718  -5.092  0.00  0.00     0.040 A 
ATOM     10  C   UNL d   1      29.581 -14.887  -6.195  0.00  0.00     0.101 A 
ATOM     11  C   UNL d   1      28.351 -14.213  -6.262  0.00  0.00     0.102 A 
ATOM     12  C   UNL d   1      27.384 -14.430  -5.265  0.00  0.00     0.051 A 
BRANCH  10  13
ATOM     13  O   UNL d   1      30.610 -14.834  -7.107  0.00  0.00    -0.353 OA
ATOM     14  C   UNL d   1      31.866 -15.391  -6.718  0.00  0.00     0.210 C 
ENDBRANCH  10  13
BRANCH  11  15
ATOM     15  O   UNL d   1      28.151 -13.339  -7.294  0.00  0.00    -0.353 OA
ATOM     16  C   UNL d   1      27.898 -11.980  -6.990  0.00  0.00     0.210 C 
ENDBRANCH  11  15
ENDBRANCH   6   7
ENDBRANCH   2   5
BRANCH   1  17
ATOM     17  N   UNL d   1      23.382 -17.505  -0.494  0.00  0.00    -0.249 N 
ATOM     18  C   UNL d   1      22.418 -18.463  -0.781  0.00  0.00     0.334 C 
ATOM     19  N   UNL d   1      21.407 -18.580   0.159  0.00  0.00    -0.342 N 
ATOM     20  O   UNL d   1      22.466 -19.153  -1.800  0.00  0.00    -0.246 OA
ATOM     21  H   UNL d   1      21.414 -17.992   0.979  0.00  0.00     0.164 HD
ATOM     22  H   UNL d   1      23.379 -16.923   0.338  0.00  0.00     0.192 HD
BRANCH  19  23
ATOM     23  C   UNL d   1      20.314 -19.548  -0.006  0.00  0.00     0.124 C 
BRANCH  23  24
ATOM     24  C   UNL d   1      20.054 -20.431   1.228  0.00  0.00     0.019 C 
BRANCH  24  25
ATOM     25  C   UNL d   1      18.554 -20.555   1.554  0.00  0.00    -0.003 C 
ATOM     26  C   UNL d   1      17.850 -21.522   0.609  0.00  0.00     0.005 C 
ENDBRANCH  24  25
ENDBRANCH  23  24
ENDBRANCH  19  23
ENDBRANCH   1  17
TORSDOF 8
ENDMDL
