MODEL 1
REMARK VINA RESULT:   -29.294      0.000      0.000
REMARK INTER + INTRA:         -31.442
REMARK INTER:                 -30.786
REMARK INTRA:                  -0.656
REMARK CONF_INDEPENDENT:        1.492
REMARK UNBOUND:                -0.656
REMARK  5 active torsions:
REMARK  status: ('A' for Active; 'I' for Inactive)
REMARK    1  A    between atoms: C_2  and  C_18 
REMARK    2  A    between atoms: N_3  and  N_4 
REMARK       I    between atoms: N_4  and  C_5 
REMARK    3  A    between atoms: C_5  and  C_7 
REMARK    4  A    between atoms: C_9  and  C_10 
REMARK    5  A    between atoms: C_21  and  N_22 
ROOT
ATOM      1  N   UNL d   1      27.655 -17.873   0.012  0.00  0.00    -0.241 N 
ATOM      2  C   UNL d   1      28.416 -17.085  -0.850  0.00  0.00     0.289 C 
ATOM      3  O   UNL d   1      27.978 -16.534  -1.865  0.00  0.00    -0.264 OA
ATOM      4  H   UNL d   1      28.077 -18.163   0.882  0.00  0.00     0.192 HD
ENDROOT
BRANCH   1   5
ATOM      5  N   UNL d   1      26.333 -18.161  -0.248  0.00  0.00    -0.176 NA
ATOM      6  C   UNL d   1      25.434 -17.215  -0.330  0.00  0.00     0.061 C 
ATOM      7  C   UNL d   1      25.699 -15.733  -0.146  0.00  0.00     0.073 C 
BRANCH   6   8
ATOM      8  C   UNL d   1      24.004 -17.608  -0.636  0.00  0.00    -0.010 A 
ATOM      9  C   UNL d   1      23.037 -16.612  -0.802  0.00  0.00     0.015 A 
ATOM     10  C   UNL d   1      21.674 -16.946  -0.896  0.00  0.00     0.024 A 
ATOM     11  C   UNL d   1      21.254 -18.278  -0.939  0.00  0.00     0.005 A 
ATOM     12  C   UNL d   1      22.223 -19.272  -0.782  0.00  0.00     0.024 A 
ATOM     13  C   UNL d   1      23.588 -18.947  -0.653  0.00  0.00     0.015 A 
BRANCH  11  14
ATOM     14  N   UNL d   1      19.891 -18.591  -0.895  0.00  0.00    -0.303 NA
ATOM     15  H   UNL d   1      19.320 -18.132  -1.597  0.00  0.00     0.124 HD
ATOM     16  H   UNL d   1      19.667 -19.576  -0.791  0.00  0.00     0.124 HD
ENDBRANCH  11  14
ENDBRANCH   6   8
ENDBRANCH   1   5
BRANCH   2  17
ATOM     17  C   UNL d   1      29.803 -16.939  -0.457  0.00  0.00     0.121 A 
ATOM     18  C   UNL d   1      30.560 -15.808  -0.215  0.00  0.00     0.071 A 
ATOM     19  C   UNL d   1      31.830 -16.259   0.231  0.00  0.00     0.089 A 
ATOM     20  N   UNL d   1      31.884 -17.599   0.214  0.00  0.00    -0.174 NA
ATOM     21  N   UNL d   1      30.639 -17.980  -0.146  0.00  0.00    -0.272 N 
ATOM     22  H   UNL d   1      30.430 -18.976  -0.176  0.00  0.00     0.189 HD
BRANCH  19  23
ATOM     23  C   UNL d   1      32.938 -15.428   0.700  0.00  0.00    -0.006 A 
ATOM     24  C   UNL d   1      33.845 -14.853  -0.198  0.00  0.00     0.014 A 
ATOM     25  C   UNL d   1      34.930 -14.105   0.276  0.00  0.00     0.001 A 
ATOM     26  C   UNL d   1      35.081 -13.876   1.644  0.00  0.00     0.000 A 
ATOM     27  C   UNL d   1      34.168 -14.421   2.543  0.00  0.00     0.001 A 
ATOM     28  C   UNL d   1      33.104 -15.198   2.074  0.00  0.00     0.014 A 
ENDBRANCH  19  23
ENDBRANCH   2  17
TORSDOF 5
ENDMDL
MODEL 2
REMARK VINA RESULT:   -29.284      2.110      2.813
REMARK INTER + INTRA:         -31.321
REMARK INTER:                 -30.776
REMARK INTRA:                  -0.545
REMARK CONF_INDEPENDENT:        1.492
REMARK UNBOUND:                -0.545
REMARK  5 active torsions:
REMARK  status: ('A' for Active; 'I' for Inactive)
REMARK    1  A    between atoms: C_2  and  C_18 
REMARK    2  A    between atoms: N_3  and  N_4 
REMARK       I    between atoms: N_4  and  C_5 
REMARK    3  A    between atoms: C_5  and  C_7 
REMARK    4  A    between atoms: C_9  and  C_10 
REMARK    5  A    between atoms: C_21  and  N_22 
ROOT
ATOM      1  N   UNL d   1      27.703 -17.965   0.023  0.00  0.00    -0.241 N 
ATOM      2  C   UNL d   1      28.306 -16.710  -0.048  0.00  0.00     0.289 C 
ATOM      3  O   UNL d   1      27.698 -15.637   0.005  0.00  0.00    -0.264 OA
ATOM      4  H   UNL d   1      28.303 -18.773   0.107  0.00  0.00     0.192 HD
ENDROOT
BRANCH   1   5
ATOM      5  N   UNL d   1      26.335 -18.107   0.088  0.00  0.00    -0.176 NA
ATOM      6  C   UNL d   1      25.550 -17.557  -0.802  0.00  0.00     0.061 C 
ATOM      7  C   UNL d   1      26.009 -16.712  -1.974  0.00  0.00     0.073 C 
BRANCH   6   8
ATOM      8  C   UNL d   1      24.057 -17.773  -0.674  0.00  0.00    -0.010 A 
ATOM      9  C   UNL d   1      23.563 -19.065  -0.469  0.00  0.00     0.015 A 
ATOM     10  C   UNL d   1      22.182 -19.323  -0.538  0.00  0.00     0.024 A 
ATOM     11  C   UNL d   1      21.257 -18.288  -0.700  0.00  0.00     0.005 A 
ATOM     12  C   UNL d   1      21.752 -16.997  -0.895  0.00  0.00     0.024 A 
ATOM     13  C   UNL d   1      23.136 -16.733  -0.862  0.00  0.00     0.015 A 
BRANCH  11  14
ATOM     14  N   UNL d   1      19.903 -18.575  -0.902  0.00  0.00    -0.303 NA
ATOM     15  H   UNL d   1      19.455 -18.044  -1.642  0.00  0.00     0.124 HD
ATOM     16  H   UNL d   1      19.658 -19.560  -0.923  0.00  0.00     0.124 HD
ENDBRANCH  11  14
ENDBRANCH   6   8
ENDBRANCH   1   5
BRANCH   2  17
ATOM     17  C   UNL d   1      29.748 -16.748  -0.178  0.00  0.00     0.121 A 
ATOM     18  C   UNL d   1      30.553 -17.198  -1.208  0.00  0.00     0.071 A 
ATOM     19  C   UNL d   1      31.891 -16.905  -0.836  0.00  0.00     0.089 A 
ATOM     20  N   UNL d   1      31.926 -16.352   0.385  0.00  0.00    -0.174 NA
ATOM     21  N   UNL d   1      30.627 -16.216   0.730  0.00  0.00    -0.272 N 
ATOM     22  H   UNL d   1      30.409 -15.764   1.616  0.00  0.00     0.189 HD
BRANCH  19  23
ATOM     23  C   UNL d   1      33.089 -17.109  -1.648  0.00  0.00    -0.006 A 
ATOM     24  C   UNL d   1      34.213 -17.765  -1.133  0.00  0.00     0.014 A 
ATOM     25  C   UNL d   1      35.369 -17.901  -1.911  0.00  0.00     0.001 A 
ATOM     26  C   UNL d   1      35.389 -17.438  -3.227  0.00  0.00     0.000 A 
ATOM     27  C   UNL d   1      34.266 -16.808  -3.758  0.00  0.00     0.001 A 
ATOM     28  C   UNL d   1      33.123 -16.639  -2.970  0.00  0.00     0.014 A 
ENDBRANCH  19  23
ENDBRANCH   2  17
TORSDOF 5
ENDMDL
MODEL 3
REMARK VINA RESULT:   -29.219      0.879      1.665
REMARK INTER + INTRA:         -31.330
REMARK INTER:                 -30.711
REMARK INTRA:                  -0.619
REMARK CONF_INDEPENDENT:        1.492
REMARK UNBOUND:                -0.619
REMARK  5 active torsions:
REMARK  status: ('A' for Active; 'I' for Inactive)
REMARK    1  A    between atoms: C_2  and  C_18 
REMARK    2  A    between atoms: N_3  and  N_4 
REMARK       I    between atoms: N_4  and  C_5 
REMARK    3  A    between atoms: C_5  and  C_7 
REMARK    4  A    between atoms: C_9  and  C_10 
REMARK    5  A    between atoms: C_21  and  N_22 
ROOT
ATOM      1  N   UNL d   1      27.653 -17.606   0.194  0.00  0.00    -0.241 N 
ATOM      2  C   UNL d   1      28.214 -16.333   0.094  0.00  0.00     0.289 C 
ATOM      3  O   UNL d   1      27.567 -15.282   0.098  0.00  0.00    -0.264 OA
ATOM      4  H   UNL d   1      28.279 -18.388   0.317  0.00  0.00     0.192 HD
ENDROOT
BRANCH   1   5
ATOM      5  N   UNL d   1      26.290 -17.795   0.235  0.00  0.00    -0.176 NA
ATOM      6  C   UNL d   1      25.517 -17.385  -0.737  0.00  0.00     0.061 C 
ATOM      7  C   UNL d   1      25.985 -16.664  -1.987  0.00  0.00     0.073 C 
BRANCH   6   8
ATOM      8  C   UNL d   1      24.028 -17.644  -0.629  0.00  0.00    -0.010 A 
ATOM      9  C   UNL d   1      23.571 -18.948  -0.415  0.00  0.00     0.015 A 
ATOM     10  C   UNL d   1      22.199 -19.248  -0.502  0.00  0.00     0.024 A 
ATOM     11  C   UNL d   1      21.246 -18.244  -0.691  0.00  0.00     0.005 A 
ATOM     12  C   UNL d   1      21.705 -16.941  -0.895  0.00  0.00     0.024 A 
ATOM     13  C   UNL d   1      23.080 -16.635  -0.845  0.00  0.00     0.015 A 
BRANCH  11  14
ATOM     14  N   UNL d   1      19.905 -18.575  -0.910  0.00  0.00    -0.303 NA
ATOM     15  H   UNL d   1      19.372 -17.891  -1.438  0.00  0.00     0.124 HD
ATOM     16  H   UNL d   1      19.728 -19.527  -1.213  0.00  0.00     0.124 HD
ENDBRANCH  11  14
ENDBRANCH   6   8
ENDBRANCH   1   5
BRANCH   2  17
ATOM     17  C   UNL d   1      29.659 -16.324  -0.004  0.00  0.00     0.121 A 
ATOM     18  C   UNL d   1      30.561 -15.277   0.023  0.00  0.00     0.071 A 
ATOM     19  C   UNL d   1      31.856 -15.856  -0.017  0.00  0.00     0.089 A 
ATOM     20  N   UNL d   1      31.769 -17.190  -0.121  0.00  0.00    -0.174 NA
ATOM     21  N   UNL d   1      30.445 -17.447  -0.053  0.00  0.00    -0.272 N 
ATOM     22  H   UNL d   1      30.141 -18.418  -0.062  0.00  0.00     0.189 HD
BRANCH  19  23
ATOM     23  C   UNL d   1      33.133 -15.151   0.087  0.00  0.00    -0.006 A 
ATOM     24  C   UNL d   1      33.465 -14.416   1.231  0.00  0.00     0.014 A 
ATOM     25  C   UNL d   1      34.668 -13.704   1.288  0.00  0.00     0.001 A 
ATOM     26  C   UNL d   1      35.575 -13.771   0.230  0.00  0.00     0.000 A 
ATOM     27  C   UNL d   1      35.266 -14.522  -0.902  0.00  0.00     0.001 A 
ATOM     28  C   UNL d   1      34.048 -15.205  -0.975  0.00  0.00     0.014 A 
ENDBRANCH  19  23
ENDBRANCH   2  17
TORSDOF 5
ENDMDL
MODEL 4
REMARK VINA RESULT:   -29.013      2.692      3.033
REMARK INTER + INTRA:         -31.187
REMARK INTER:                 -30.505
REMARK INTRA:                  -0.683
REMARK CONF_INDEPENDENT:        1.492
REMARK UNBOUND:                -0.683
REMARK  5 active torsions:
REMARK  status: ('A' for Active; 'I' for Inactive)
REMARK    1  A    between atoms: C_2  and  C_18 
REMARK    2  A    between atoms: N_3  and  N_4 
REMARK       I    between atoms: N_4  and  C_5 
REMARK    3  A    between atoms: C_5  and  C_7 
REMARK    4  A    between atoms: C_9  and  C_10 
REMARK    5  A    between atoms: C_21  and  N_22 
ROOT
ATOM      1  N   UNL d   1      27.053 -15.616   0.197  0.00  0.00    -0.241 N 
ATOM      2  C   UNL d   1      27.264 -14.435   0.906  0.00  0.00     0.289 C 
ATOM      3  O   UNL d   1      26.364 -13.708   1.337  0.00  0.00    -0.264 OA
ATOM      4  H   UNL d   1      27.854 -16.203   0.010  0.00  0.00     0.192 HD
ENDROOT
BRANCH   1   5
ATOM      5  N   UNL d   1      25.788 -16.037  -0.149  0.00  0.00    -0.176 NA
ATOM      6  C   UNL d   1      25.427 -17.287  -0.011  0.00  0.00     0.061 C 
ATOM      7  C   UNL d   1      26.308 -18.404   0.511  0.00  0.00     0.073 C 
BRANCH   6   8
ATOM      8  C   UNL d   1      24.013 -17.671  -0.396  0.00  0.00    -0.010 A 
ATOM      9  C   UNL d   1      23.092 -16.670  -0.719  0.00  0.00     0.015 A 
ATOM     10  C   UNL d   1      21.730 -16.978  -0.892  0.00  0.00     0.024 A 
ATOM     11  C   UNL d   1      21.275 -18.299  -0.858  0.00  0.00     0.005 A 
ATOM     12  C   UNL d   1      22.198 -19.298  -0.544  0.00  0.00     0.024 A 
ATOM     13  C   UNL d   1      23.559 -18.995  -0.335  0.00  0.00     0.015 A 
BRANCH  11  14
ATOM     14  N   UNL d   1      19.904 -18.575  -0.896  0.00  0.00    -0.303 NA
ATOM     15  H   UNL d   1      19.385 -18.085  -1.618  0.00  0.00     0.124 HD
ATOM     16  H   UNL d   1      19.648 -19.555  -0.826  0.00  0.00     0.124 HD
ENDBRANCH  11  14
ENDBRANCH   6   8
ENDBRANCH   1   5
BRANCH   2  17
ATOM     17  C   UNL d   1      28.658 -14.111   1.126  0.00  0.00     0.121 A 
ATOM     18  C   UNL d   1      29.295 -12.891   1.255  0.00  0.00     0.071 A 
ATOM     19  C   UNL d   1      30.654 -13.172   1.551  0.00  0.00     0.089 A 
ATOM     20  N   UNL d   1      30.870 -14.495   1.552  0.00  0.00    -0.174 NA
ATOM     21  N   UNL d   1      29.647 -15.034   1.352  0.00  0.00    -0.272 N 
ATOM     22  H   UNL d   1      29.560 -16.048   1.365  0.00  0.00     0.189 HD
BRANCH  19  23
ATOM     23  C   UNL d   1      31.699 -12.199   1.868  0.00  0.00    -0.006 A 
ATOM     24  C   UNL d   1      31.851 -11.693   3.164  0.00  0.00     0.014 A 
ATOM     25  C   UNL d   1      32.823 -10.721   3.433  0.00  0.00     0.001 A 
ATOM     26  C   UNL d   1      33.687 -10.294   2.425  0.00  0.00     0.000 A 
ATOM     27  C   UNL d   1      33.561 -10.812   1.138  0.00  0.00     0.001 A 
ATOM     28  C   UNL d   1      32.568 -11.756   0.859  0.00  0.00     0.014 A 
ENDBRANCH  19  23
ENDBRANCH   2  17
TORSDOF 5
ENDMDL
MODEL 5
REMARK VINA RESULT:   -28.989      1.499      1.753
REMARK INTER + INTRA:         -31.217
REMARK INTER:                 -30.480
REMARK INTRA:                  -0.737
REMARK CONF_INDEPENDENT:        1.492
REMARK UNBOUND:                -0.737
REMARK  5 active torsions:
REMARK  status: ('A' for Active; 'I' for Inactive)
REMARK    1  A    between atoms: C_2  and  C_18 
REMARK    2  A    between atoms: N_3  and  N_4 
REMARK       I    between atoms: N_4  and  C_5 
REMARK    3  A    between atoms: C_5  and  C_7 
REMARK    4  A    between atoms: C_9  and  C_10 
REMARK    5  A    between atoms: C_21  and  N_22 
ROOT
ATOM      1  N   UNL d   1      27.209 -15.931   0.028  0.00  0.00    -0.241 N 
ATOM      2  C   UNL d   1      28.318 -16.385  -0.684  0.00  0.00     0.289 C 
ATOM      3  O   UNL d   1      28.259 -17.091  -1.695  0.00  0.00    -0.264 OA
ATOM      4  H   UNL d   1      27.364 -15.249   0.757  0.00  0.00     0.192 HD
ENDROOT
BRANCH   1   5
ATOM      5  N   UNL d   1      25.928 -16.305  -0.311  0.00  0.00    -0.176 NA
ATOM      6  C   UNL d   1      25.458 -17.484   0.004  0.00  0.00     0.061 C 
ATOM      7  C   UNL d   1      26.222 -18.565   0.744  0.00  0.00     0.073 C 
BRANCH   6   8
ATOM      8  C   UNL d   1      24.033 -17.818  -0.388  0.00  0.00    -0.010 A 
ATOM      9  C   UNL d   1      23.150 -16.784  -0.715  0.00  0.00     0.015 A 
ATOM     10  C   UNL d   1      21.779 -17.044  -0.895  0.00  0.00     0.024 A 
ATOM     11  C   UNL d   1      21.277 -18.348  -0.864  0.00  0.00     0.005 A 
ATOM     12  C   UNL d   1      22.163 -19.379  -0.547  0.00  0.00     0.024 A 
ATOM     13  C   UNL d   1      23.533 -19.125  -0.330  0.00  0.00     0.015 A 
BRANCH  11  14
ATOM     14  N   UNL d   1      19.898 -18.575  -0.910  0.00  0.00    -0.303 NA
ATOM     15  H   UNL d   1      19.373 -17.930  -1.491  0.00  0.00     0.124 HD
ATOM     16  H   UNL d   1      19.613 -19.540  -1.041  0.00  0.00     0.124 HD
ENDBRANCH  11  14
ENDBRANCH   6   8
ENDBRANCH   1   5
BRANCH   2  17
ATOM     17  C   UNL d   1      29.591 -15.946  -0.150  0.00  0.00     0.121 A 
ATOM     18  C   UNL d   1      30.105 -14.677   0.037  0.00  0.00     0.071 A 
ATOM     19  C   UNL d   1      31.358 -14.839   0.684  0.00  0.00     0.089 A 
ATOM     20  N   UNL d   1      31.639 -16.140   0.843  0.00  0.00    -0.174 NA
ATOM     21  N   UNL d   1      30.539 -16.779   0.388  0.00  0.00    -0.272 N 
ATOM     22  H   UNL d   1      30.507 -17.794   0.458  0.00  0.00     0.189 HD
BRANCH  19  23
ATOM     23  C   UNL d   1      32.233 -13.774   1.173  0.00  0.00    -0.006 A 
ATOM     24  C   UNL d   1      31.718 -12.674   1.869  0.00  0.00     0.014 A 
ATOM     25  C   UNL d   1      32.567 -11.639   2.281  0.00  0.00     0.001 A 
ATOM     26  C   UNL d   1      33.941 -11.725   2.055  0.00  0.00     0.000 A 
ATOM     27  C   UNL d   1      34.466 -12.829   1.387  0.00  0.00     0.001 A 
ATOM     28  C   UNL d   1      33.615 -13.847   0.943  0.00  0.00     0.014 A 
ENDBRANCH  19  23
ENDBRANCH   2  17
TORSDOF 5
ENDMDL
MODEL 6
REMARK VINA RESULT:   -28.893      1.525      1.798
REMARK INTER + INTRA:         -31.143
REMARK INTER:                 -30.385
REMARK INTRA:                  -0.758
REMARK CONF_INDEPENDENT:        1.492
REMARK UNBOUND:                -0.758
REMARK  5 active torsions:
REMARK  status: ('A' for Active; 'I' for Inactive)
REMARK    1  A    between atoms: C_2  and  C_18 
REMARK    2  A    between atoms: N_3  and  N_4 
REMARK       I    between atoms: N_4  and  C_5 
REMARK    3  A    between atoms: C_5  and  C_7 
REMARK    4  A    between atoms: C_9  and  C_10 
REMARK    5  A    between atoms: C_21  and  N_22 
ROOT
ATOM      1  N   UNL d   1      27.155 -15.760  -0.107  0.00  0.00    -0.241 N 
ATOM      2  C   UNL d   1      28.178 -15.807  -1.054  0.00  0.00     0.289 C 
ATOM      3  O   UNL d   1      28.023 -16.135  -2.234  0.00  0.00    -0.264 OA
ATOM      4  H   UNL d   1      27.363 -15.350   0.792  0.00  0.00     0.192 HD
ENDROOT
BRANCH   1   5
ATOM      5  N   UNL d   1      25.870 -16.154  -0.409  0.00  0.00    -0.176 NA
ATOM      6  C   UNL d   1      25.464 -17.376  -0.184  0.00  0.00     0.061 C 
ATOM      7  C   UNL d   1      26.309 -18.490   0.403  0.00  0.00     0.073 C 
BRANCH   6   8
ATOM      8  C   UNL d   1      24.031 -17.731  -0.526  0.00  0.00    -0.010 A 
ATOM      9  C   UNL d   1      23.108 -16.708  -0.767  0.00  0.00     0.015 A 
ATOM     10  C   UNL d   1      21.738 -16.997  -0.896  0.00  0.00     0.024 A 
ATOM     11  C   UNL d   1      21.270 -18.314  -0.902  0.00  0.00     0.005 A 
ATOM     12  C   UNL d   1      22.195 -19.334  -0.671  0.00  0.00     0.024 A 
ATOM     13  C   UNL d   1      23.566 -19.053  -0.505  0.00  0.00     0.015 A 
BRANCH  11  14
ATOM     14  N   UNL d   1      19.896 -18.576  -0.895  0.00  0.00    -0.303 NA
ATOM     15  H   UNL d   1      19.444 -18.487   0.009  0.00  0.00     0.124 HD
ATOM     16  H   UNL d   1      19.361 -18.149  -1.644  0.00  0.00     0.124 HD
ENDBRANCH  11  14
ENDBRANCH   6   8
ENDBRANCH   1   5
BRANCH   2  17
ATOM     17  C   UNL d   1      29.478 -15.420  -0.547  0.00  0.00     0.121 A 
ATOM     18  C   UNL d   1      30.284 -15.999   0.415  0.00  0.00     0.071 A 
ATOM     19  C   UNL d   1      31.490 -15.250   0.438  0.00  0.00     0.089 A 
ATOM     20  N   UNL d   1      31.421 -14.224  -0.423  0.00  0.00    -0.174 NA
ATOM     21  N   UNL d   1      30.230 -14.384  -1.040  0.00  0.00    -0.272 N 
ATOM     22  H   UNL d   1      29.982 -13.735  -1.784  0.00  0.00     0.189 HD
BRANCH  19  23
ATOM     23  C   UNL d   1      32.685 -15.542   1.228  0.00  0.00    -0.006 A 
ATOM     24  C   UNL d   1      33.398 -14.522   1.868  0.00  0.00     0.014 A 
ATOM     25  C   UNL d   1      34.570 -14.816   2.575  0.00  0.00     0.001 A 
ATOM     26  C   UNL d   1      35.003 -16.137   2.699  0.00  0.00     0.000 A 
ATOM     27  C   UNL d   1      34.284 -17.162   2.089  0.00  0.00     0.001 A 
ATOM     28  C   UNL d   1      33.133 -16.865   1.352  0.00  0.00     0.014 A 
ENDBRANCH  19  23
ENDBRANCH   2  17
TORSDOF 5
ENDMDL
MODEL 7
REMARK VINA RESULT:   -28.628      4.277      5.002
REMARK INTER + INTRA:         -30.771
REMARK INTER:                 -30.119
REMARK INTRA:                  -0.652
REMARK CONF_INDEPENDENT:        1.492
REMARK UNBOUND:                -0.652
REMARK  5 active torsions:
REMARK  status: ('A' for Active; 'I' for Inactive)
REMARK    1  A    between atoms: C_2  and  C_18 
REMARK    2  A    between atoms: N_3  and  N_4 
REMARK       I    between atoms: N_4  and  C_5 
REMARK    3  A    between atoms: C_5  and  C_7 
REMARK    4  A    between atoms: C_9  and  C_10 
REMARK    5  A    between atoms: C_21  and  N_22 
ROOT
ATOM      1  N   UNL d   1      26.882 -15.913  -2.908  0.00  0.00    -0.241 N 
ATOM      2  C   UNL d   1      27.219 -15.566  -4.216  0.00  0.00     0.289 C 
ATOM      3  O   UNL d   1      26.421 -15.530  -5.157  0.00  0.00    -0.264 OA
ATOM      4  H   UNL d   1      27.579 -15.780  -2.190  0.00  0.00     0.192 HD
ENDROOT
BRANCH   1   5
ATOM      5  N   UNL d   1      25.610 -16.322  -2.572  0.00  0.00    -0.176 NA
ATOM      6  C   UNL d   1      25.376 -16.975  -1.464  0.00  0.00     0.061 C 
ATOM      7  C   UNL d   1      26.422 -17.371  -0.440  0.00  0.00     0.073 C 
BRANCH   6   8
ATOM      8  C   UNL d   1      23.949 -17.377  -1.155  0.00  0.00    -0.010 A 
ATOM      9  C   UNL d   1      23.611 -18.732  -1.102  0.00  0.00     0.015 A 
ATOM     10  C   UNL d   1      22.266 -19.132  -1.008  0.00  0.00     0.024 A 
ATOM     11  C   UNL d   1      21.239 -18.197  -0.854  0.00  0.00     0.005 A 
ATOM     12  C   UNL d   1      21.580 -16.844  -0.897  0.00  0.00     0.024 A 
ATOM     13  C   UNL d   1      22.922 -16.432  -1.026  0.00  0.00     0.015 A 
BRANCH  11  14
ATOM     14  N   UNL d   1      19.901 -18.602  -0.899  0.00  0.00    -0.303 NA
ATOM     15  H   UNL d   1      19.342 -18.164  -1.625  0.00  0.00     0.124 HD
ATOM     16  H   UNL d   1      19.739 -19.602  -0.830  0.00  0.00     0.124 HD
ENDBRANCH  11  14
ENDBRANCH   6   8
ENDBRANCH   1   5
BRANCH   2  17
ATOM     17  C   UNL d   1      28.614 -15.225  -4.402  0.00  0.00     0.121 A 
ATOM     18  C   UNL d   1      29.548 -15.696  -5.305  0.00  0.00     0.071 A 
ATOM     19  C   UNL d   1      30.732 -14.941  -5.096  0.00  0.00     0.089 A 
ATOM     20  N   UNL d   1      30.565 -14.082  -4.080  0.00  0.00    -0.174 NA
ATOM     21  N   UNL d   1      29.271 -14.232  -3.722  0.00  0.00    -0.272 N 
ATOM     22  H   UNL d   1      28.902 -13.632  -2.987  0.00  0.00     0.189 HD
BRANCH  19  23
ATOM     23  C   UNL d   1      31.964 -15.013  -5.878  0.00  0.00    -0.006 A 
ATOM     24  C   UNL d   1      32.009 -14.570  -7.205  0.00  0.00     0.014 A 
ATOM     25  C   UNL d   1      33.185 -14.699  -7.954  0.00  0.00     0.001 A 
ATOM     26  C   UNL d   1      34.340 -15.213  -7.364  0.00  0.00     0.000 A 
ATOM     27  C   UNL d   1      34.313 -15.631  -6.036  0.00  0.00     0.001 A 
ATOM     28  C   UNL d   1      33.129 -15.537  -5.298  0.00  0.00     0.014 A 
ENDBRANCH  19  23
ENDBRANCH   2  17
TORSDOF 5
ENDMDL
MODEL 8
REMARK VINA RESULT:   -28.144      2.245      2.899
REMARK INTER + INTRA:         -30.390
REMARK INTER:                 -29.636
REMARK INTRA:                  -0.754
REMARK CONF_INDEPENDENT:        1.492
REMARK UNBOUND:                -0.754
REMARK  5 active torsions:
REMARK  status: ('A' for Active; 'I' for Inactive)
REMARK    1  A    between atoms: C_2  and  C_18 
REMARK    2  A    between atoms: N_3  and  N_4 
REMARK       I    between atoms: N_4  and  C_5 
REMARK    3  A    between atoms: C_5  and  C_7 
REMARK    4  A    between atoms: C_9  and  C_10 
REMARK    5  A    between atoms: C_21  and  N_22 
ROOT
ATOM      1  N   UNL d   1      27.400 -16.744  -1.629  0.00  0.00    -0.241 N 
ATOM      2  C   UNL d   1      27.939 -15.913  -2.610  0.00  0.00     0.289 C 
ATOM      3  O   UNL d   1      27.272 -15.249  -3.409  0.00  0.00    -0.264 OA
ATOM      4  H   UNL d   1      28.030 -17.134  -0.943  0.00  0.00     0.192 HD
ENDROOT
BRANCH   1   5
ATOM      5  N   UNL d   1      26.042 -16.947  -1.519  0.00  0.00    -0.176 NA
ATOM      6  C   UNL d   1      25.545 -17.741  -0.606  0.00  0.00     0.061 C 
ATOM      7  C   UNL d   1      26.352 -18.527   0.409  0.00  0.00     0.073 C 
BRANCH   6   8
ATOM      8  C   UNL d   1      24.040 -17.900  -0.535  0.00  0.00    -0.010 A 
ATOM      9  C   UNL d   1      23.493 -19.163  -0.291  0.00  0.00     0.015 A 
ATOM     10  C   UNL d   1      22.108 -19.379  -0.410  0.00  0.00     0.024 A 
ATOM     11  C   UNL d   1      21.228 -18.324  -0.664  0.00  0.00     0.005 A 
ATOM     12  C   UNL d   1      21.776 -17.061  -0.898  0.00  0.00     0.024 A 
ATOM     13  C   UNL d   1      23.166 -16.841  -0.815  0.00  0.00     0.015 A 
BRANCH  11  14
ATOM     14  N   UNL d   1      19.875 -18.576  -0.913  0.00  0.00    -0.303 NA
ATOM     15  H   UNL d   1      19.304 -18.724  -0.086  0.00  0.00     0.124 HD
ATOM     16  H   UNL d   1      19.430 -17.968  -1.592  0.00  0.00     0.124 HD
ENDBRANCH  11  14
ENDBRANCH   6   8
ENDBRANCH   1   5
BRANCH   2  17
ATOM     17  C   UNL d   1      29.387 -15.867  -2.623  0.00  0.00     0.121 A 
ATOM     18  C   UNL d   1      30.319 -16.457  -1.790  0.00  0.00     0.071 A 
ATOM     19  C   UNL d   1      31.596 -16.150  -2.329  0.00  0.00     0.089 A 
ATOM     20  N   UNL d   1      31.472 -15.364  -3.408  0.00  0.00    -0.174 NA
ATOM     21  N   UNL d   1      30.139 -15.259  -3.595  0.00  0.00    -0.272 N 
ATOM     22  H   UNL d   1      29.805 -14.738  -4.404  0.00  0.00     0.189 HD
BRANCH  19  23
ATOM     23  C   UNL d   1      32.888 -16.635  -1.846  0.00  0.00    -0.006 A 
ATOM     24  C   UNL d   1      33.499 -16.074  -0.718  0.00  0.00     0.014 A 
ATOM     25  C   UNL d   1      34.761 -16.517  -0.306  0.00  0.00     0.001 A 
ATOM     26  C   UNL d   1      35.393 -17.563  -0.978  0.00  0.00     0.000 A 
ATOM     27  C   UNL d   1      34.781 -18.146  -2.085  0.00  0.00     0.001 A 
ATOM     28  C   UNL d   1      33.536 -17.681  -2.520  0.00  0.00     0.014 A 
ENDBRANCH  19  23
ENDBRANCH   2  17
TORSDOF 5
ENDMDL
MODEL 9
REMARK VINA RESULT:   -27.919      3.700      4.304
REMARK INTER + INTRA:         -30.142
REMARK INTER:                 -29.411
REMARK INTRA:                  -0.731
REMARK CONF_INDEPENDENT:        1.492
REMARK UNBOUND:                -0.731
REMARK  5 active torsions:
REMARK  status: ('A' for Active; 'I' for Inactive)
REMARK    1  A    between atoms: C_2  and  C_18 
REMARK    2  A    between atoms: N_3  and  N_4 
REMARK       I    between atoms: N_4  and  C_5 
REMARK    3  A    between atoms: C_5  and  C_7 
REMARK    4  A    between atoms: C_9  and  C_10 
REMARK    5  A    between atoms: C_21  and  N_22 
ROOT
ATOM      1  N   UNL d   1      26.588 -15.343  -3.035  0.00  0.00    -0.241 N 
ATOM      2  C   UNL d   1      26.942 -15.196  -4.376  0.00  0.00     0.289 C 
ATOM      3  O   UNL d   1      26.191 -15.431  -5.327  0.00  0.00    -0.264 OA
ATOM      4  H   UNL d   1      27.230 -14.995  -2.337  0.00  0.00     0.192 HD
ENDROOT
BRANCH   1   5
ATOM      5  N   UNL d   1      25.360 -15.844  -2.661  0.00  0.00    -0.176 NA
ATOM      6  C   UNL d   1      25.246 -16.704  -1.683  0.00  0.00     0.061 C 
ATOM      7  C   UNL d   1      26.395 -17.262  -0.865  0.00  0.00     0.073 C 
BRANCH   6   8
ATOM      8  C   UNL d   1      23.861 -17.196  -1.319  0.00  0.00    -0.010 A 
ATOM      9  C   UNL d   1      23.594 -18.569  -1.327  0.00  0.00     0.015 A 
ATOM     10  C   UNL d   1      22.277 -19.043  -1.182  0.00  0.00     0.024 A 
ATOM     11  C   UNL d   1      21.217 -18.173  -0.914  0.00  0.00     0.005 A 
ATOM     12  C   UNL d   1      21.488 -16.803  -0.897  0.00  0.00     0.024 A 
ATOM     13  C   UNL d   1      22.798 -16.315  -1.076  0.00  0.00     0.015 A 
BRANCH  11  14
ATOM     14  N   UNL d   1      19.900 -18.644  -0.908  0.00  0.00    -0.303 NA
ATOM     15  H   UNL d   1      19.204 -17.983  -1.236  0.00  0.00     0.124 HD
ATOM     16  H   UNL d   1      19.762 -19.577  -1.284  0.00  0.00     0.124 HD
ENDBRANCH  11  14
ENDBRANCH   6   8
ENDBRANCH   1   5
BRANCH   2  17
ATOM     17  C   UNL d   1      28.293 -14.720  -4.587  0.00  0.00     0.121 A 
ATOM     18  C   UNL d   1      29.094 -13.898  -3.817  0.00  0.00     0.071 A 
ATOM     19  C   UNL d   1      30.357 -13.842  -4.462  0.00  0.00     0.089 A 
ATOM     20  N   UNL d   1      30.332 -14.546  -5.603  0.00  0.00    -0.174 NA
ATOM     21  N   UNL d   1      29.103 -15.107  -5.624  0.00  0.00    -0.272 N 
ATOM     22  H   UNL d   1      28.874 -15.737  -6.390  0.00  0.00     0.189 HD
BRANCH  19  23
ATOM     23  C   UNL d   1      31.561 -13.172  -3.972  0.00  0.00    -0.006 A 
ATOM     24  C   UNL d   1      31.594 -12.573  -2.707  0.00  0.00     0.014 A 
ATOM     25  C   UNL d   1      32.738 -11.890  -2.279  0.00  0.00     0.001 A 
ATOM     26  C   UNL d   1      33.876 -11.853  -3.085  0.00  0.00     0.000 A 
ATOM     27  C   UNL d   1      33.863 -12.469  -4.334  0.00  0.00     0.001 A 
ATOM     28  C   UNL d   1      32.708 -13.122  -4.778  0.00  0.00     0.014 A 
ENDBRANCH  19  23
ENDBRANCH   2  17
TORSDOF 5
ENDMDL
