MODEL 1
REMARK VINA RESULT:    -9.237      0.000      0.000
REMARK INTER + INTRA:         -15.152
REMARK INTER:                 -13.712
REMARK INTRA:                  -1.440
REMARK CONF_INDEPENDENT:        4.474
REMARK UNBOUND:                -1.440
REMARK  15 active torsions:
REMARK  status: ('A' for Active; 'I' for Inactive)
REMARK    1  A    between atoms: C_2  and  C_3 
REMARK       I    between atoms: C_2  and  N_18 
REMARK    2  A    between atoms: C_3  and  C_4 
REMARK    3  A    between atoms: C_4  and  C_5 
REMARK    4  A    between atoms: C_5  and  C_6 
REMARK    5  A    between atoms: C_6  and  O_8 
REMARK    6  A    between atoms: O_8  and  C_9 
REMARK    7  A    between atoms: C_9  and  C_10 
REMARK    8  A    between atoms: C_10  and  C_11 
REMARK    9  A    between atoms: C_11  and  C_12 
REMARK   10  A    between atoms: N_18  and  C_19 
REMARK   11  A    between atoms: C_19  and  N_21 
REMARK   12  A    between atoms: N_21  and  C_22 
REMARK   13  A    between atoms: C_25  and  O_26 
REMARK   14  A    between atoms: O_26  and  C_27 
REMARK   15  A    between atoms: C_28  and  C_27 
ROOT
ATOM      1  O   UNL d   1      29.350 -15.582  -0.924  0.00  0.00    -0.273 OA
ATOM      2  C   UNL d   1      28.663 -15.522   0.094  0.00  0.00     0.223 C 
ATOM      3  N   UNL d   1      28.624 -14.339   0.859  0.00  0.00    -0.304 N 
ATOM      4  H   UNL d   1      29.239 -13.643   0.454  0.00  0.00     0.171 HD
ENDROOT
BRANCH   3   5
ATOM      5  C   UNL d   1      27.840 -13.967   1.977  0.00  0.00     0.178 C 
ATOM      6  S   UNL d   1      26.841 -12.595   2.036  0.00  0.00    -0.040 SA
BRANCH   5   7
ATOM      7  N   UNL d   1      27.971 -14.834   3.083  0.00  0.00    -0.333 N 
ATOM      8  H   UNL d   1      28.095 -15.828   2.930  0.00  0.00     0.168 HD
BRANCH   7   9
ATOM      9  C   UNL d   1      28.334 -14.337   4.378  0.00  0.00     0.034 A 
ATOM     10  C   UNL d   1      27.483 -13.552   5.156  0.00  0.00     0.032 A 
ATOM     11  C   UNL d   1      27.888 -13.172   6.456  0.00  0.00     0.039 A 
ATOM     12  C   UNL d   1      29.096 -13.628   7.009  0.00  0.00     0.069 A 
ATOM     13  C   UNL d   1      29.936 -14.398   6.222  0.00  0.00     0.039 A 
ATOM     14  C   UNL d   1      29.577 -14.697   4.914  0.00  0.00     0.032 A 
BRANCH  12  15
ATOM     15  O   UNL d   1      29.364 -13.279   8.307  0.00  0.00    -0.349 OA
BRANCH  15  16
ATOM     16  C   UNL d   1      28.536 -12.243   8.877  0.00  0.00     0.207 C 
BRANCH  16  17
ATOM     17  C   UNL d   1      28.261 -12.578  10.353  0.00  0.00     0.145 C 
ATOM     18  C   UNL d   1      27.776 -14.008  10.557  0.00  0.00     0.036 C 
ATOM     19  C   UNL d   1      29.044 -14.774  10.839  0.00  0.00     0.029 C 
ATOM     20  C   UNL d   1      29.891 -13.758  11.569  0.00  0.00     0.168 C 
ATOM     21  O   UNL d   1      29.490 -12.463  11.106  0.00  0.00    -0.384 OA
ENDBRANCH  16  17
ENDBRANCH  15  16
ENDBRANCH  12  15
ENDBRANCH   7   9
ENDBRANCH   5   7
ENDBRANCH   3   5
BRANCH   2  22
ATOM     22  C   UNL d   1      27.828 -16.689   0.593  0.00  0.00     0.103 C 
BRANCH  22  23
ATOM     23  C   UNL d   1      26.516 -16.984  -0.085  0.00  0.00     0.019 C 
BRANCH  23  24
ATOM     24  C   UNL d   1      25.872 -15.690  -0.627  0.00  0.00     0.111 C 
BRANCH  24  25
ATOM     25  C   UNL d   1      24.673 -16.054  -1.462  0.00  0.00     0.258 C 
ATOM     26  O   UNL d   1      24.007 -15.233  -2.100  0.00  0.00    -0.265 OA
BRANCH  25  27
ATOM     27  O   UNL d   1      24.407 -17.389  -1.437  0.00  0.00    -0.321 OA
BRANCH  27  28
ATOM     28  C   UNL d   1      23.480 -17.746  -0.396  0.00  0.00     0.179 C 
BRANCH  28  29
ATOM     29  C   UNL d   1      22.722 -19.005  -0.786  0.00  0.00     0.031 C 
BRANCH  29  30
ATOM     30  C   UNL d   1      21.245 -18.705  -1.068  0.00  0.00     0.041 C 
BRANCH  30  31
ATOM     31  C   UNL d   1      20.319 -19.385  -0.087  0.00  0.00    -0.058 A 
ATOM     32  C   UNL d   1      20.600 -19.341   1.285  0.00  0.00     0.007 A 
ATOM     33  C   UNL d   1      19.808 -20.047   2.191  0.00  0.00     0.001 A 
ATOM     34  C   UNL d   1      18.677 -20.730   1.747  0.00  0.00     0.000 A 
ATOM     35  C   UNL d   1      18.361 -20.743   0.391  0.00  0.00     0.001 A 
ATOM     36  C   UNL d   1      19.178 -20.074  -0.520  0.00  0.00     0.007 A 
ENDBRANCH  30  31
ENDBRANCH  29  30
ENDBRANCH  28  29
ENDBRANCH  27  28
ENDBRANCH  25  27
ENDBRANCH  24  25
ENDBRANCH  23  24
ENDBRANCH  22  23
ENDBRANCH   2  22
TORSDOF 15
ENDMDL
MODEL 2
REMARK VINA RESULT:    -9.023      6.439     10.622
REMARK INTER + INTRA:         -15.528
REMARK INTER:                 -13.498
REMARK INTRA:                  -2.030
REMARK CONF_INDEPENDENT:        4.474
REMARK UNBOUND:                -2.030
REMARK  15 active torsions:
REMARK  status: ('A' for Active; 'I' for Inactive)
REMARK    1  A    between atoms: C_2  and  C_3 
REMARK       I    between atoms: C_2  and  N_18 
REMARK    2  A    between atoms: C_3  and  C_4 
REMARK    3  A    between atoms: C_4  and  C_5 
REMARK    4  A    between atoms: C_5  and  C_6 
REMARK    5  A    between atoms: C_6  and  O_8 
REMARK    6  A    between atoms: O_8  and  C_9 
REMARK    7  A    between atoms: C_9  and  C_10 
REMARK    8  A    between atoms: C_10  and  C_11 
REMARK    9  A    between atoms: C_11  and  C_12 
REMARK   10  A    between atoms: N_18  and  C_19 
REMARK   11  A    between atoms: C_19  and  N_21 
REMARK   12  A    between atoms: N_21  and  C_22 
REMARK   13  A    between atoms: C_25  and  O_26 
REMARK   14  A    between atoms: O_26  and  C_27 
REMARK   15  A    between atoms: C_28  and  C_27 
ROOT
ATOM      1  O   UNL d   1      28.474 -15.421  -2.610  0.00  0.00    -0.273 OA
ATOM      2  C   UNL d   1      27.478 -15.898  -2.067  0.00  0.00     0.223 C 
ATOM      3  N   UNL d   1      27.606 -16.660  -0.888  0.00  0.00    -0.304 N 
ATOM      4  H   UNL d   1      28.583 -16.747  -0.635  0.00  0.00     0.171 HD
ENDROOT
BRANCH   3   5
ATOM      5  C   UNL d   1      26.637 -17.206  -0.012  0.00  0.00     0.178 C 
ATOM      6  S   UNL d   1      26.890 -18.568   0.970  0.00  0.00    -0.040 SA
BRANCH   5   7
ATOM      7  N   UNL d   1      25.399 -16.528  -0.032  0.00  0.00    -0.333 N 
ATOM      8  H   UNL d   1      25.381 -15.518  -0.114  0.00  0.00     0.168 HD
BRANCH   7   9
ATOM      9  C   UNL d   1      24.181 -17.216  -0.343  0.00  0.00     0.034 A 
ATOM     10  C   UNL d   1      22.960 -16.561  -0.507  0.00  0.00     0.032 A 
ATOM     11  C   UNL d   1      21.822 -17.306  -0.895  0.00  0.00     0.039 A 
ATOM     12  C   UNL d   1      21.910 -18.676  -1.191  0.00  0.00     0.069 A 
ATOM     13  C   UNL d   1      23.125 -19.315  -1.014  0.00  0.00     0.039 A 
ATOM     14  C   UNL d   1      24.222 -18.601  -0.548  0.00  0.00     0.032 A 
BRANCH  12  15
ATOM     15  O   UNL d   1      20.774 -19.296  -1.642  0.00  0.00    -0.349 OA
BRANCH  15  16
ATOM     16  C   UNL d   1      19.655 -19.327  -0.730  0.00  0.00     0.207 C 
BRANCH  16  17
ATOM     17  C   UNL d   1      19.885 -20.443   0.305  0.00  0.00     0.145 C 
ATOM     18  C   UNL d   1      19.902 -19.928   1.740  0.00  0.00     0.036 C 
ATOM     19  C   UNL d   1      18.473 -20.093   2.191  0.00  0.00     0.029 C 
ATOM     20  C   UNL d   1      18.028 -21.328   1.444  0.00  0.00     0.168 C 
ATOM     21  O   UNL d   1      18.794 -21.389   0.236  0.00  0.00    -0.384 OA
ENDBRANCH  16  17
ENDBRANCH  15  16
ENDBRANCH  12  15
ENDBRANCH   7   9
ENDBRANCH   5   7
ENDBRANCH   3   5
BRANCH   2  22
ATOM     22  C   UNL d   1      26.074 -15.709  -2.614  0.00  0.00     0.103 C 
BRANCH  22  23
ATOM     23  C   UNL d   1      25.903 -15.385  -4.075  0.00  0.00     0.019 C 
BRANCH  23  24
ATOM     24  C   UNL d   1      26.611 -14.061  -4.432  0.00  0.00     0.111 C 
BRANCH  24  25
ATOM     25  C   UNL d   1      27.617 -14.324  -5.522  0.00  0.00     0.258 C 
ATOM     26  O   UNL d   1      27.485 -15.202  -6.379  0.00  0.00    -0.265 OA
BRANCH  25  27
ATOM     27  O   UNL d   1      28.686 -13.484  -5.456  0.00  0.00    -0.321 OA
BRANCH  27  28
ATOM     28  C   UNL d   1      29.398 -13.400  -6.705  0.00  0.00     0.179 C 
BRANCH  28  29
ATOM     29  C   UNL d   1      30.637 -14.281  -6.656  0.00  0.00     0.031 C 
BRANCH  29  30
ATOM     30  C   UNL d   1      30.844 -14.879  -5.258  0.00  0.00     0.041 C 
BRANCH  30  31
ATOM     31  C   UNL d   1      30.754 -16.387  -5.255  0.00  0.00    -0.058 A 
ATOM     32  C   UNL d   1      30.589 -17.080  -6.462  0.00  0.00     0.007 A 
ATOM     33  C   UNL d   1      30.407 -18.463  -6.462  0.00  0.00     0.001 A 
ATOM     34  C   UNL d   1      30.478 -19.177  -5.267  0.00  0.00     0.000 A 
ATOM     35  C   UNL d   1      30.688 -18.505  -4.067  0.00  0.00     0.001 A 
ATOM     36  C   UNL d   1      30.825 -17.117  -4.061  0.00  0.00     0.007 A 
ENDBRANCH  30  31
ENDBRANCH  29  30
ENDBRANCH  28  29
ENDBRANCH  27  28
ENDBRANCH  25  27
ENDBRANCH  24  25
ENDBRANCH  23  24
ENDBRANCH  22  23
ENDBRANCH   2  22
TORSDOF 15
ENDMDL
MODEL 3
REMARK VINA RESULT:    -8.806      2.033     11.021
REMARK INTER + INTRA:         -15.040
REMARK INTER:                 -13.280
REMARK INTRA:                  -1.760
REMARK CONF_INDEPENDENT:        4.474
REMARK UNBOUND:                -1.760
REMARK  15 active torsions:
REMARK  status: ('A' for Active; 'I' for Inactive)
REMARK    1  A    between atoms: C_2  and  C_3 
REMARK       I    between atoms: C_2  and  N_18 
REMARK    2  A    between atoms: C_3  and  C_4 
REMARK    3  A    between atoms: C_4  and  C_5 
REMARK    4  A    between atoms: C_5  and  C_6 
REMARK    5  A    between atoms: C_6  and  O_8 
REMARK    6  A    between atoms: O_8  and  C_9 
REMARK    7  A    between atoms: C_9  and  C_10 
REMARK    8  A    between atoms: C_10  and  C_11 
REMARK    9  A    between atoms: C_11  and  C_12 
REMARK   10  A    between atoms: N_18  and  C_19 
REMARK   11  A    between atoms: C_19  and  N_21 
REMARK   12  A    between atoms: N_21  and  C_22 
REMARK   13  A    between atoms: C_25  and  O_26 
REMARK   14  A    between atoms: O_26  and  C_27 
REMARK   15  A    between atoms: C_28  and  C_27 
ROOT
ATOM      1  O   UNL d   1      26.352 -13.066   2.098  0.00  0.00    -0.273 OA
ATOM      2  C   UNL d   1      27.280 -13.873   2.064  0.00  0.00     0.223 C 
ATOM      3  N   UNL d   1      27.500 -14.659   0.915  0.00  0.00    -0.304 N 
ATOM      4  H   UNL d   1      26.791 -14.462   0.219  0.00  0.00     0.171 HD
ENDROOT
BRANCH   3   5
ATOM      5  C   UNL d   1      28.543 -15.552   0.572  0.00  0.00     0.178 C 
ATOM      6  S   UNL d   1      30.187 -15.130   0.507  0.00  0.00    -0.040 SA
BRANCH   5   7
ATOM      7  N   UNL d   1      28.101 -16.855   0.255  0.00  0.00    -0.333 N 
ATOM      8  H   UNL d   1      28.615 -17.657   0.600  0.00  0.00     0.168 HD
BRANCH   7   9
ATOM      9  C   UNL d   1      26.758 -17.096  -0.185  0.00  0.00     0.034 A 
ATOM     10  C   UNL d   1      26.256 -16.612  -1.392  0.00  0.00     0.032 A 
ATOM     11  C   UNL d   1      24.945 -16.966  -1.788  0.00  0.00     0.039 A 
ATOM     12  C   UNL d   1      24.166 -17.854  -1.030  0.00  0.00     0.069 A 
ATOM     13  C   UNL d   1      24.673 -18.320   0.172  0.00  0.00     0.039 A 
ATOM     14  C   UNL d   1      25.925 -17.901   0.603  0.00  0.00     0.032 A 
BRANCH  12  15
ATOM     15  O   UNL d   1      22.942 -18.207  -1.536  0.00  0.00    -0.349 OA
BRANCH  15  16
ATOM     16  C   UNL d   1      21.821 -18.107  -0.631  0.00  0.00     0.207 C 
BRANCH  16  17
ATOM     17  C   UNL d   1      21.223 -19.509  -0.420  0.00  0.00     0.145 C 
ATOM     18  C   UNL d   1      20.642 -19.703   0.976  0.00  0.00     0.036 C 
ATOM     19  C   UNL d   1      19.189 -19.338   0.808  0.00  0.00     0.029 C 
ATOM     20  C   UNL d   1      18.895 -19.784  -0.605  0.00  0.00     0.168 C 
ATOM     21  O   UNL d   1      20.122 -19.701  -1.338  0.00  0.00    -0.384 OA
ENDBRANCH  16  17
ENDBRANCH  15  16
ENDBRANCH  12  15
ENDBRANCH   7   9
ENDBRANCH   5   7
ENDBRANCH   3   5
BRANCH   2  22
ATOM     22  C   UNL d   1      28.232 -14.080   3.229  0.00  0.00     0.103 C 
BRANCH  22  23
ATOM     23  C   UNL d   1      27.661 -14.420   4.581  0.00  0.00     0.019 C 
BRANCH  23  24
ATOM     24  C   UNL d   1      28.778 -14.822   5.567  0.00  0.00     0.111 C 
BRANCH  24  25
ATOM     25  C   UNL d   1      30.111 -14.453   4.972  0.00  0.00     0.258 C 
ATOM     26  O   UNL d   1      30.765 -15.199   4.238  0.00  0.00    -0.265 OA
BRANCH  25  27
ATOM     27  O   UNL d   1      30.513 -13.204   5.332  0.00  0.00    -0.321 OA
BRANCH  27  28
ATOM     28  C   UNL d   1      30.406 -12.978   6.750  0.00  0.00     0.179 C 
BRANCH  28  29
ATOM     29  C   UNL d   1      29.381 -11.890   7.026  0.00  0.00     0.031 C 
BRANCH  29  30
ATOM     30  C   UNL d   1      28.156 -12.448   7.762  0.00  0.00     0.041 C 
BRANCH  30  31
ATOM     31  C   UNL d   1      28.520 -13.109   9.071  0.00  0.00    -0.058 A 
ATOM     32  C   UNL d   1      28.489 -12.368  10.261  0.00  0.00     0.007 A 
ATOM     33  C   UNL d   1      28.916 -12.941  11.459  0.00  0.00     0.001 A 
ATOM     34  C   UNL d   1      29.293 -14.281  11.498  0.00  0.00     0.000 A 
ATOM     35  C   UNL d   1      29.284 -15.041  10.331  0.00  0.00     0.001 A 
ATOM     36  C   UNL d   1      28.899 -14.457   9.125  0.00  0.00     0.007 A 
ENDBRANCH  30  31
ENDBRANCH  29  30
ENDBRANCH  28  29
ENDBRANCH  27  28
ENDBRANCH  25  27
ENDBRANCH  24  25
ENDBRANCH  23  24
ENDBRANCH  22  23
ENDBRANCH   2  22
TORSDOF 15
ENDMDL
MODEL 4
REMARK VINA RESULT:    -8.125      5.402      9.735
REMARK INTER + INTRA:         -15.133
REMARK INTER:                 -12.600
REMARK INTRA:                  -2.533
REMARK CONF_INDEPENDENT:        4.474
REMARK UNBOUND:                -2.533
REMARK  15 active torsions:
REMARK  status: ('A' for Active; 'I' for Inactive)
REMARK    1  A    between atoms: C_2  and  C_3 
REMARK       I    between atoms: C_2  and  N_18 
REMARK    2  A    between atoms: C_3  and  C_4 
REMARK    3  A    between atoms: C_4  and  C_5 
REMARK    4  A    between atoms: C_5  and  C_6 
REMARK    5  A    between atoms: C_6  and  O_8 
REMARK    6  A    between atoms: O_8  and  C_9 
REMARK    7  A    between atoms: C_9  and  C_10 
REMARK    8  A    between atoms: C_10  and  C_11 
REMARK    9  A    between atoms: C_11  and  C_12 
REMARK   10  A    between atoms: N_18  and  C_19 
REMARK   11  A    between atoms: C_19  and  N_21 
REMARK   12  A    between atoms: N_21  and  C_22 
REMARK   13  A    between atoms: C_25  and  O_26 
REMARK   14  A    between atoms: O_26  and  C_27 
REMARK   15  A    between atoms: C_28  and  C_27 
ROOT
ATOM      1  O   UNL d   1      31.226 -13.855  -1.145  0.00  0.00    -0.273 OA
ATOM      2  C   UNL d   1      30.107 -14.349  -1.012  0.00  0.00     0.223 C 
ATOM      3  N   UNL d   1      29.737 -14.959   0.203  0.00  0.00    -0.304 N 
ATOM      4  H   UNL d   1      30.513 -14.936   0.854  0.00  0.00     0.171 HD
ENDROOT
BRANCH   3   5
ATOM      5  C   UNL d   1      28.502 -15.481   0.655  0.00  0.00     0.178 C 
ATOM      6  S   UNL d   1      27.395 -14.628   1.621  0.00  0.00    -0.040 SA
BRANCH   5   7
ATOM      7  N   UNL d   1      28.259 -16.812   0.252  0.00  0.00    -0.333 N 
ATOM      8  H   UNL d   1      28.921 -17.539   0.498  0.00  0.00     0.168 HD
BRANCH   7   9
ATOM      9  C   UNL d   1      26.948 -17.244  -0.131  0.00  0.00     0.034 A 
ATOM     10  C   UNL d   1      26.175 -18.106   0.647  0.00  0.00     0.032 A 
ATOM     11  C   UNL d   1      24.858 -18.417   0.235  0.00  0.00     0.039 A 
ATOM     12  C   UNL d   1      24.286 -17.820  -0.900  0.00  0.00     0.069 A 
ATOM     13  C   UNL d   1      25.068 -16.975  -1.669  0.00  0.00     0.039 A 
ATOM     14  C   UNL d   1      26.389 -16.739  -1.312  0.00  0.00     0.032 A 
BRANCH  12  15
ATOM     15  O   UNL d   1      22.976 -18.116  -1.172  0.00  0.00    -0.349 OA
BRANCH  15  16
ATOM     16  C   UNL d   1      22.119 -18.343  -0.033  0.00  0.00     0.207 C 
BRANCH  16  17
ATOM     17  C   UNL d   1      21.398 -19.691  -0.210  0.00  0.00     0.145 C 
ATOM     18  C   UNL d   1      20.518 -20.056   0.979  0.00  0.00     0.036 C 
ATOM     19  C   UNL d   1      19.162 -19.519   0.594  0.00  0.00     0.029 C 
ATOM     20  C   UNL d   1      19.152 -19.689  -0.907  0.00  0.00     0.168 C 
ATOM     21  O   UNL d   1      20.511 -19.611  -1.350  0.00  0.00    -0.384 OA
ENDBRANCH  16  17
ENDBRANCH  15  16
ENDBRANCH  12  15
ENDBRANCH   7   9
ENDBRANCH   5   7
ENDBRANCH   3   5
BRANCH   2  22
ATOM     22  C   UNL d   1      29.068 -14.340  -2.120  0.00  0.00     0.103 C 
BRANCH  22  23
ATOM     23  C   UNL d   1      28.074 -13.210  -2.173  0.00  0.00     0.019 C 
BRANCH  23  24
ATOM     24  C   UNL d   1      26.631 -13.738  -2.029  0.00  0.00     0.111 C 
BRANCH  24  25
ATOM     25  C   UNL d   1      25.835 -13.318  -3.236  0.00  0.00     0.258 C 
ATOM     26  O   UNL d   1      25.593 -12.142  -3.523  0.00  0.00    -0.265 OA
BRANCH  25  27
ATOM     27  O   UNL d   1      25.414 -14.379  -3.976  0.00  0.00    -0.321 OA
BRANCH  27  28
ATOM     28  C   UNL d   1      26.482 -15.294  -4.284  0.00  0.00     0.179 C 
BRANCH  28  29
ATOM     29  C   UNL d   1      27.216 -14.833  -5.533  0.00  0.00     0.031 C 
BRANCH  29  30
ATOM     30  C   UNL d   1      28.710 -14.623  -5.259  0.00  0.00     0.041 C 
BRANCH  30  31
ATOM     31  C   UNL d   1      29.499 -15.908  -5.340  0.00  0.00    -0.058 A 
ATOM     32  C   UNL d   1      30.029 -16.327  -6.568  0.00  0.00     0.007 A 
ATOM     33  C   UNL d   1      30.676 -17.559  -6.674  0.00  0.00     0.001 A 
ATOM     34  C   UNL d   1      30.876 -18.343  -5.540  0.00  0.00     0.000 A 
ATOM     35  C   UNL d   1      30.395 -17.916  -4.305  0.00  0.00     0.001 A 
ATOM     36  C   UNL d   1      29.710 -16.705  -4.207  0.00  0.00     0.007 A 
ENDBRANCH  30  31
ENDBRANCH  29  30
ENDBRANCH  28  29
ENDBRANCH  27  28
ENDBRANCH  25  27
ENDBRANCH  24  25
ENDBRANCH  23  24
ENDBRANCH  22  23
ENDBRANCH   2  22
TORSDOF 15
ENDMDL
MODEL 5
REMARK VINA RESULT:    -8.092      6.002     10.439
REMARK INTER + INTRA:         -15.364
REMARK INTER:                 -12.567
REMARK INTRA:                  -2.797
REMARK CONF_INDEPENDENT:        4.474
REMARK UNBOUND:                -2.797
REMARK  15 active torsions:
REMARK  status: ('A' for Active; 'I' for Inactive)
REMARK    1  A    between atoms: C_2  and  C_3 
REMARK       I    between atoms: C_2  and  N_18 
REMARK    2  A    between atoms: C_3  and  C_4 
REMARK    3  A    between atoms: C_4  and  C_5 
REMARK    4  A    between atoms: C_5  and  C_6 
REMARK    5  A    between atoms: C_6  and  O_8 
REMARK    6  A    between atoms: O_8  and  C_9 
REMARK    7  A    between atoms: C_9  and  C_10 
REMARK    8  A    between atoms: C_10  and  C_11 
REMARK    9  A    between atoms: C_11  and  C_12 
REMARK   10  A    between atoms: N_18  and  C_19 
REMARK   11  A    between atoms: C_19  and  N_21 
REMARK   12  A    between atoms: N_21  and  C_22 
REMARK   13  A    between atoms: C_25  and  O_26 
REMARK   14  A    between atoms: O_26  and  C_27 
REMARK   15  A    between atoms: C_28  and  C_27 
ROOT
ATOM      1  O   UNL d   1      26.565 -12.576  -0.001  0.00  0.00    -0.273 OA
ATOM      2  C   UNL d   1      26.997 -13.538  -0.634  0.00  0.00     0.223 C 
ATOM      3  N   UNL d   1      27.003 -14.824  -0.059  0.00  0.00    -0.304 N 
ATOM      4  H   UNL d   1      26.648 -14.783   0.889  0.00  0.00     0.171 HD
ENDROOT
BRANCH   3   5
ATOM      5  C   UNL d   1      27.320 -16.094  -0.599  0.00  0.00     0.178 C 
ATOM      6  S   UNL d   1      28.686 -17.007  -0.168  0.00  0.00    -0.040 SA
BRANCH   5   7
ATOM      7  N   UNL d   1      26.402 -16.550  -1.569  0.00  0.00    -0.333 N 
ATOM      8  H   UNL d   1      26.730 -16.795  -2.496  0.00  0.00     0.168 HD
BRANCH   7   9
ATOM      9  C   UNL d   1      25.116 -17.059  -1.192  0.00  0.00     0.034 A 
ATOM     10  C   UNL d   1      24.939 -18.306  -0.592  0.00  0.00     0.032 A 
ATOM     11  C   UNL d   1      23.644 -18.697  -0.176  0.00  0.00     0.039 A 
ATOM     12  C   UNL d   1      22.547 -17.828  -0.287  0.00  0.00     0.069 A 
ATOM     13  C   UNL d   1      22.735 -16.597  -0.894  0.00  0.00     0.039 A 
ATOM     14  C   UNL d   1      23.988 -16.250  -1.382  0.00  0.00     0.032 A 
BRANCH  12  15
ATOM     15  O   UNL d   1      21.350 -18.259   0.221  0.00  0.00    -0.349 OA
BRANCH  15  16
ATOM     16  C   UNL d   1      20.686 -19.314  -0.509  0.00  0.00     0.207 C 
BRANCH  16  17
ATOM     17  C   UNL d   1      20.380 -20.473   0.455  0.00  0.00     0.145 C 
ATOM     18  C   UNL d   1      20.225 -20.018   1.902  0.00  0.00     0.036 C 
ATOM     19  C   UNL d   1      18.742 -19.787   2.043  0.00  0.00     0.029 C 
ATOM     20  C   UNL d   1      18.153 -20.831   1.123  0.00  0.00     0.168 C 
ATOM     21  O   UNL d   1      19.116 -21.075   0.091  0.00  0.00    -0.384 OA
ENDBRANCH  16  17
ENDBRANCH  15  16
ENDBRANCH  12  15
ENDBRANCH   7   9
ENDBRANCH   5   7
ENDBRANCH   3   5
BRANCH   2  22
ATOM     22  C   UNL d   1      27.545 -13.414  -2.045  0.00  0.00     0.103 C 
BRANCH  22  23
ATOM     23  C   UNL d   1      26.590 -13.105  -3.168  0.00  0.00     0.019 C 
BRANCH  23  24
ATOM     24  C   UNL d   1      25.815 -14.369  -3.597  0.00  0.00     0.111 C 
BRANCH  24  25
ATOM     25  C   UNL d   1      26.660 -15.155  -4.565  0.00  0.00     0.258 C 
ATOM     26  O   UNL d   1      26.436 -15.216  -5.777  0.00  0.00    -0.265 OA
BRANCH  25  27
ATOM     27  O   UNL d   1      27.697 -15.790  -3.954  0.00  0.00    -0.321 OA
BRANCH  27  28
ATOM     28  C   UNL d   1      28.906 -15.745  -4.735  0.00  0.00     0.179 C 
BRANCH  28  29
ATOM     29  C   UNL d   1      29.883 -16.800  -4.239  0.00  0.00     0.031 C 
BRANCH  29  30
ATOM     30  C   UNL d   1      31.144 -16.849  -5.111  0.00  0.00     0.041 C 
BRANCH  30  31
ATOM     31  C   UNL d   1      31.046 -17.878  -6.212  0.00  0.00    -0.058 A 
ATOM     32  C   UNL d   1      30.412 -19.104  -5.970  0.00  0.00     0.007 A 
ATOM     33  C   UNL d   1      30.401 -20.099  -6.949  0.00  0.00     0.001 A 
ATOM     34  C   UNL d   1      30.944 -19.847  -8.207  0.00  0.00     0.000 A 
ATOM     35  C   UNL d   1      31.536 -18.616  -8.475  0.00  0.00     0.001 A 
ATOM     36  C   UNL d   1      31.586 -17.637  -7.483  0.00  0.00     0.007 A 
ENDBRANCH  30  31
ENDBRANCH  29  30
ENDBRANCH  28  29
ENDBRANCH  27  28
ENDBRANCH  25  27
ENDBRANCH  24  25
ENDBRANCH  23  24
ENDBRANCH  22  23
ENDBRANCH   2  22
TORSDOF 15
ENDMDL
MODEL 6
REMARK VINA RESULT:    -7.989      5.572      9.739
REMARK INTER + INTRA:         -15.162
REMARK INTER:                 -12.464
REMARK INTRA:                  -2.699
REMARK CONF_INDEPENDENT:        4.474
REMARK UNBOUND:                -2.699
REMARK  15 active torsions:
REMARK  status: ('A' for Active; 'I' for Inactive)
REMARK    1  A    between atoms: C_2  and  C_3 
REMARK       I    between atoms: C_2  and  N_18 
REMARK    2  A    between atoms: C_3  and  C_4 
REMARK    3  A    between atoms: C_4  and  C_5 
REMARK    4  A    between atoms: C_5  and  C_6 
REMARK    5  A    between atoms: C_6  and  O_8 
REMARK    6  A    between atoms: O_8  and  C_9 
REMARK    7  A    between atoms: C_9  and  C_10 
REMARK    8  A    between atoms: C_10  and  C_11 
REMARK    9  A    between atoms: C_11  and  C_12 
REMARK   10  A    between atoms: N_18  and  C_19 
REMARK   11  A    between atoms: C_19  and  N_21 
REMARK   12  A    between atoms: N_21  and  C_22 
REMARK   13  A    between atoms: C_25  and  O_26 
REMARK   14  A    between atoms: O_26  and  C_27 
REMARK   15  A    between atoms: C_28  and  C_27 
ROOT
ATOM      1  O   UNL d   1      31.166 -14.545  -1.900  0.00  0.00    -0.273 OA
ATOM      2  C   UNL d   1      30.169 -15.080  -1.418  0.00  0.00     0.223 C 
ATOM      3  N   UNL d   1      29.497 -14.485  -0.331  0.00  0.00    -0.304 N 
ATOM      4  H   UNL d   1      29.978 -13.641  -0.045  0.00  0.00     0.171 HD
ENDROOT
BRANCH   3   5
ATOM      5  C   UNL d   1      28.283 -14.815   0.318  0.00  0.00     0.178 C 
ATOM      6  S   UNL d   1      27.242 -13.684   1.040  0.00  0.00    -0.040 SA
BRANCH   5   7
ATOM      7  N   UNL d   1      28.004 -16.199   0.344  0.00  0.00    -0.333 N 
ATOM      8  H   UNL d   1      28.590 -16.819   0.892  0.00  0.00     0.168 HD
BRANCH   7   9
ATOM      9  C   UNL d   1      26.717 -16.704  -0.034  0.00  0.00     0.034 A 
ATOM     10  C   UNL d   1      25.950 -16.139  -1.052  0.00  0.00     0.032 A 
ATOM     11  C   UNL d   1      24.727 -16.750  -1.418  0.00  0.00     0.039 A 
ATOM     12  C   UNL d   1      24.306 -17.953  -0.829  0.00  0.00     0.069 A 
ATOM     13  C   UNL d   1      25.073 -18.498   0.187  0.00  0.00     0.039 A 
ATOM     14  C   UNL d   1      26.228 -17.850   0.606  0.00  0.00     0.032 A 
BRANCH  12  15
ATOM     15  O   UNL d   1      23.152 -18.516  -1.308  0.00  0.00    -0.349 OA
BRANCH  15  16
ATOM     16  C   UNL d   1      21.967 -18.332  -0.503  0.00  0.00     0.207 C 
BRANCH  16  17
ATOM     17  C   UNL d   1      21.223 -19.674  -0.395  0.00  0.00     0.145 C 
ATOM     18  C   UNL d   1      20.571 -19.884   0.967  0.00  0.00     0.036 C 
ATOM     19  C   UNL d   1      19.169 -19.362   0.772  0.00  0.00     0.029 C 
ATOM     20  C   UNL d   1      18.888 -19.698  -0.674  0.00  0.00     0.168 C 
ATOM     21  O   UNL d   1      20.145 -19.701  -1.359  0.00  0.00    -0.384 OA
ENDBRANCH  16  17
ENDBRANCH  15  16
ENDBRANCH  12  15
ENDBRANCH   7   9
ENDBRANCH   5   7
ENDBRANCH   3   5
BRANCH   2  22
ATOM     22  C   UNL d   1      29.602 -16.387  -1.943  0.00  0.00     0.103 C 
BRANCH  22  23
ATOM     23  C   UNL d   1      28.696 -16.354  -3.146  0.00  0.00     0.019 C 
BRANCH  23  24
ATOM     24  C   UNL d   1      27.953 -15.004  -3.239  0.00  0.00     0.111 C 
BRANCH  24  25
ATOM     25  C   UNL d   1      26.898 -15.101  -4.309  0.00  0.00     0.258 C 
ATOM     26  O   UNL d   1      27.150 -15.199  -5.514  0.00  0.00    -0.265 OA
BRANCH  25  27
ATOM     27  O   UNL d   1      25.636 -15.069  -3.800  0.00  0.00    -0.321 OA
BRANCH  27  28
ATOM     28  C   UNL d   1      24.880 -13.939  -4.272  0.00  0.00     0.179 C 
BRANCH  28  29
ATOM     29  C   UNL d   1      25.812 -12.768  -4.542  0.00  0.00     0.031 C 
BRANCH  29  30
ATOM     30  C   UNL d   1      25.532 -11.598  -3.591  0.00  0.00     0.041 C 
BRANCH  30  31
ATOM     31  C   UNL d   1      26.757 -11.177  -2.814  0.00  0.00    -0.058 A 
ATOM     32  C   UNL d   1      27.283  -9.889  -2.983  0.00  0.00     0.007 A 
ATOM     33  C   UNL d   1      28.470  -9.523  -2.346  0.00  0.00     0.001 A 
ATOM     34  C   UNL d   1      29.093 -10.407  -1.467  0.00  0.00     0.000 A 
ATOM     35  C   UNL d   1      28.554 -11.673  -1.256  0.00  0.00     0.001 A 
ATOM     36  C   UNL d   1      27.393 -12.056  -1.926  0.00  0.00     0.007 A 
ENDBRANCH  30  31
ENDBRANCH  29  30
ENDBRANCH  28  29
ENDBRANCH  27  28
ENDBRANCH  25  27
ENDBRANCH  24  25
ENDBRANCH  23  24
ENDBRANCH  22  23
ENDBRANCH   2  22
TORSDOF 15
ENDMDL
MODEL 7
REMARK VINA RESULT:    -7.576      5.625     10.530
REMARK INTER + INTRA:         -15.017
REMARK INTER:                 -12.050
REMARK INTRA:                  -2.966
REMARK CONF_INDEPENDENT:        4.474
REMARK UNBOUND:                -2.966
REMARK  15 active torsions:
REMARK  status: ('A' for Active; 'I' for Inactive)
REMARK    1  A    between atoms: C_2  and  C_3 
REMARK       I    between atoms: C_2  and  N_18 
REMARK    2  A    between atoms: C_3  and  C_4 
REMARK    3  A    between atoms: C_4  and  C_5 
REMARK    4  A    between atoms: C_5  and  C_6 
REMARK    5  A    between atoms: C_6  and  O_8 
REMARK    6  A    between atoms: O_8  and  C_9 
REMARK    7  A    between atoms: C_9  and  C_10 
REMARK    8  A    between atoms: C_10  and  C_11 
REMARK    9  A    between atoms: C_11  and  C_12 
REMARK   10  A    between atoms: N_18  and  C_19 
REMARK   11  A    between atoms: C_19  and  N_21 
REMARK   12  A    between atoms: N_21  and  C_22 
REMARK   13  A    between atoms: C_25  and  O_26 
REMARK   14  A    between atoms: O_26  and  C_27 
REMARK   15  A    between atoms: C_28  and  C_27 
ROOT
ATOM      1  O   UNL d   1      27.709 -12.987   0.727  0.00  0.00    -0.273 OA
ATOM      2  C   UNL d   1      27.784 -13.795  -0.198  0.00  0.00     0.223 C 
ATOM      3  N   UNL d   1      27.815 -15.179   0.066  0.00  0.00    -0.304 N 
ATOM      4  H   UNL d   1      27.797 -15.343   1.066  0.00  0.00     0.171 HD
ENDROOT
BRANCH   3   5
ATOM      5  C   UNL d   1      27.774 -16.302  -0.795  0.00  0.00     0.178 C 
ATOM      6  S   UNL d   1      28.973 -17.503  -0.864  0.00  0.00    -0.040 SA
BRANCH   5   7
ATOM      7  N   UNL d   1      26.640 -16.339  -1.636  0.00  0.00    -0.333 N 
ATOM      8  H   UNL d   1      26.761 -16.336  -2.642  0.00  0.00     0.168 HD
BRANCH   7   9
ATOM      9  C   UNL d   1      25.368 -16.780  -1.146  0.00  0.00     0.034 A 
ATOM     10  C   UNL d   1      24.195 -16.043  -1.309  0.00  0.00     0.032 A 
ATOM     11  C   UNL d   1      22.967 -16.590  -0.869  0.00  0.00     0.039 A 
ATOM     12  C   UNL d   1      22.892 -17.888  -0.338  0.00  0.00     0.069 A 
ATOM     13  C   UNL d   1      24.066 -18.604  -0.171  0.00  0.00     0.039 A 
ATOM     14  C   UNL d   1      25.282 -18.032  -0.523  0.00  0.00     0.032 A 
BRANCH  12  15
ATOM     15  O   UNL d   1      21.648 -18.365  -0.018  0.00  0.00    -0.349 OA
BRANCH  15  16
ATOM     16  C   UNL d   1      21.070 -19.316  -0.937  0.00  0.00     0.207 C 
BRANCH  16  17
ATOM     17  C   UNL d   1      19.621 -19.609  -0.509  0.00  0.00     0.145 C 
ATOM     18  C   UNL d   1      19.486 -20.902   0.285  0.00  0.00     0.036 C 
ATOM     19  C   UNL d   1      19.596 -20.449   1.720  0.00  0.00     0.029 C 
ATOM     20  C   UNL d   1      18.961 -19.078   1.685  0.00  0.00     0.168 C 
ATOM     21  O   UNL d   1      19.161 -18.554   0.367  0.00  0.00    -0.384 OA
ENDBRANCH  16  17
ENDBRANCH  15  16
ENDBRANCH  12  15
ENDBRANCH   7   9
ENDBRANCH   5   7
ENDBRANCH   3   5
BRANCH   2  22
ATOM     22  C   UNL d   1      27.852 -13.372  -1.655  0.00  0.00     0.103 C 
BRANCH  22  23
ATOM     23  C   UNL d   1      26.573 -13.291  -2.446  0.00  0.00     0.019 C 
BRANCH  23  24
ATOM     24  C   UNL d   1      26.849 -13.427  -3.958  0.00  0.00     0.111 C 
BRANCH  24  25
ATOM     25  C   UNL d   1      26.273 -14.730  -4.445  0.00  0.00     0.258 C 
ATOM     26  O   UNL d   1      25.241 -15.234  -3.994  0.00  0.00    -0.265 OA
BRANCH  25  27
ATOM     27  O   UNL d   1      27.017 -15.289  -5.438  0.00  0.00    -0.321 OA
BRANCH  27  28
ATOM     28  C   UNL d   1      28.414 -15.373  -5.100  0.00  0.00     0.179 C 
BRANCH  28  29
ATOM     29  C   UNL d   1      29.261 -14.947  -6.289  0.00  0.00     0.031 C 
BRANCH  29  30
ATOM     30  C   UNL d   1      29.626 -13.459  -6.213  0.00  0.00     0.041 C 
BRANCH  30  31
ATOM     31  C   UNL d   1      28.716 -12.597  -7.056  0.00  0.00    -0.058 A 
ATOM     32  C   UNL d   1      28.461 -12.945  -8.389  0.00  0.00     0.007 A 
ATOM     33  C   UNL d   1      27.703 -12.105  -9.205  0.00  0.00     0.001 A 
ATOM     34  C   UNL d   1      27.118 -10.957  -8.675  0.00  0.00     0.000 A 
ATOM     35  C   UNL d   1      27.326 -10.624  -7.339  0.00  0.00     0.001 A 
ATOM     36  C   UNL d   1      28.121 -11.440  -6.534  0.00  0.00     0.007 A 
ENDBRANCH  30  31
ENDBRANCH  29  30
ENDBRANCH  28  29
ENDBRANCH  27  28
ENDBRANCH  25  27
ENDBRANCH  24  25
ENDBRANCH  23  24
ENDBRANCH  22  23
ENDBRANCH   2  22
TORSDOF 15
ENDMDL
MODEL 8
REMARK VINA RESULT:    -7.558      5.466      9.460
REMARK INTER + INTRA:         -14.868
REMARK INTER:                 -12.032
REMARK INTRA:                  -2.835
REMARK CONF_INDEPENDENT:        4.474
REMARK UNBOUND:                -2.835
REMARK  15 active torsions:
REMARK  status: ('A' for Active; 'I' for Inactive)
REMARK    1  A    between atoms: C_2  and  C_3 
REMARK       I    between atoms: C_2  and  N_18 
REMARK    2  A    between atoms: C_3  and  C_4 
REMARK    3  A    between atoms: C_4  and  C_5 
REMARK    4  A    between atoms: C_5  and  C_6 
REMARK    5  A    between atoms: C_6  and  O_8 
REMARK    6  A    between atoms: O_8  and  C_9 
REMARK    7  A    between atoms: C_9  and  C_10 
REMARK    8  A    between atoms: C_10  and  C_11 
REMARK    9  A    between atoms: C_11  and  C_12 
REMARK   10  A    between atoms: N_18  and  C_19 
REMARK   11  A    between atoms: C_19  and  N_21 
REMARK   12  A    between atoms: N_21  and  C_22 
REMARK   13  A    between atoms: C_25  and  O_26 
REMARK   14  A    between atoms: O_26  and  C_27 
REMARK   15  A    between atoms: C_28  and  C_27 
ROOT
ATOM      1  O   UNL d   1      30.971 -13.604  -1.707  0.00  0.00    -0.273 OA
ATOM      2  C   UNL d   1      29.926 -14.186  -1.421  0.00  0.00     0.223 C 
ATOM      3  N   UNL d   1      29.436 -14.164  -0.100  0.00  0.00    -0.304 N 
ATOM      4  H   UNL d   1      30.075 -13.653   0.499  0.00  0.00     0.171 HD
ENDROOT
BRANCH   3   5
ATOM      5  C   UNL d   1      28.225 -14.633   0.462  0.00  0.00     0.178 C 
ATOM      6  S   UNL d   1      26.991 -13.630   1.060  0.00  0.00    -0.040 SA
BRANCH   5   7
ATOM      7  N   UNL d   1      28.124 -16.040   0.513  0.00  0.00    -0.333 N 
ATOM      8  H   UNL d   1      28.690 -16.561   1.173  0.00  0.00     0.168 HD
BRANCH   7   9
ATOM      9  C   UNL d   1      26.987 -16.723  -0.031  0.00  0.00     0.034 A 
ATOM     10  C   UNL d   1      26.460 -17.887   0.530  0.00  0.00     0.032 A 
ATOM     11  C   UNL d   1      25.286 -18.451  -0.021  0.00  0.00     0.039 A 
ATOM     12  C   UNL d   1      24.598 -17.825  -1.073  0.00  0.00     0.069 A 
ATOM     13  C   UNL d   1      25.138 -16.676  -1.627  0.00  0.00     0.039 A 
ATOM     14  C   UNL d   1      26.338 -16.172  -1.143  0.00  0.00     0.032 A 
BRANCH  12  15
ATOM     15  O   UNL d   1      23.424 -18.399  -1.485  0.00  0.00    -0.349 OA
BRANCH  15  16
ATOM     16  C   UNL d   1      22.771 -19.273  -0.539  0.00  0.00     0.207 C 
BRANCH  16  17
ATOM     17  C   UNL d   1      21.393 -18.687  -0.185  0.00  0.00     0.145 C 
ATOM     18  C   UNL d   1      20.256 -19.316  -0.982  0.00  0.00     0.036 C 
ATOM     19  C   UNL d   1      19.777 -20.434  -0.091  0.00  0.00     0.029 C 
ATOM     20  C   UNL d   1      20.005 -19.877   1.295  0.00  0.00     0.168 C 
ATOM     21  O   UNL d   1      21.102 -18.961   1.205  0.00  0.00    -0.384 OA
ENDBRANCH  16  17
ENDBRANCH  15  16
ENDBRANCH  12  15
ENDBRANCH   7   9
ENDBRANCH   5   7
ENDBRANCH   3   5
BRANCH   2  22
ATOM     22  C   UNL d   1      29.107 -14.955  -2.444  0.00  0.00     0.103 C 
BRANCH  22  23
ATOM     23  C   UNL d   1      29.772 -15.396  -3.721  0.00  0.00     0.019 C 
BRANCH  23  24
ATOM     24  C   UNL d   1      28.737 -15.965  -4.715  0.00  0.00     0.111 C 
BRANCH  24  25
ATOM     25  C   UNL d   1      28.113 -14.825  -5.476  0.00  0.00     0.258 C 
ATOM     26  O   UNL d   1      28.720 -13.798  -5.792  0.00  0.00    -0.265 OA
BRANCH  25  27
ATOM     27  O   UNL d   1      26.806 -15.055  -5.778  0.00  0.00    -0.321 OA
BRANCH  27  28
ATOM     28  C   UNL d   1      26.065 -15.575  -4.659  0.00  0.00     0.179 C 
BRANCH  28  29
ATOM     29  C   UNL d   1      25.411 -14.434  -3.895  0.00  0.00     0.031 C 
BRANCH  29  30
ATOM     30  C   UNL d   1      25.494 -13.117  -4.677  0.00  0.00     0.041 C 
BRANCH  30  31
ATOM     31  C   UNL d   1      26.045 -11.984  -3.843  0.00  0.00    -0.058 A 
ATOM     32  C   UNL d   1      26.644 -12.253  -2.605  0.00  0.00     0.007 A 
ATOM     33  C   UNL d   1      27.068 -11.208  -1.783  0.00  0.00     0.001 A 
ATOM     34  C   UNL d   1      26.978  -9.890  -2.227  0.00  0.00     0.000 A 
ATOM     35  C   UNL d   1      26.427  -9.612  -3.475  0.00  0.00     0.001 A 
ATOM     36  C   UNL d   1      25.962 -10.653  -4.278  0.00  0.00     0.007 A 
ENDBRANCH  30  31
ENDBRANCH  29  30
ENDBRANCH  28  29
ENDBRANCH  27  28
ENDBRANCH  25  27
ENDBRANCH  24  25
ENDBRANCH  23  24
ENDBRANCH  22  23
ENDBRANCH   2  22
TORSDOF 15
ENDMDL
MODEL 9
REMARK VINA RESULT:    -7.268      5.668     10.012
REMARK INTER + INTRA:         -15.020
REMARK INTER:                 -11.742
REMARK INTRA:                  -3.278
REMARK CONF_INDEPENDENT:        4.474
REMARK UNBOUND:                -3.278
REMARK  15 active torsions:
REMARK  status: ('A' for Active; 'I' for Inactive)
REMARK    1  A    between atoms: C_2  and  C_3 
REMARK       I    between atoms: C_2  and  N_18 
REMARK    2  A    between atoms: C_3  and  C_4 
REMARK    3  A    between atoms: C_4  and  C_5 
REMARK    4  A    between atoms: C_5  and  C_6 
REMARK    5  A    between atoms: C_6  and  O_8 
REMARK    6  A    between atoms: O_8  and  C_9 
REMARK    7  A    between atoms: C_9  and  C_10 
REMARK    8  A    between atoms: C_10  and  C_11 
REMARK    9  A    between atoms: C_11  and  C_12 
REMARK   10  A    between atoms: N_18  and  C_19 
REMARK   11  A    between atoms: C_19  and  N_21 
REMARK   12  A    between atoms: N_21  and  C_22 
REMARK   13  A    between atoms: C_25  and  O_26 
REMARK   14  A    between atoms: O_26  and  C_27 
REMARK   15  A    between atoms: C_28  and  C_27 
ROOT
ATOM      1  O   UNL d   1      27.516 -12.914   0.649  0.00  0.00    -0.273 OA
ATOM      2  C   UNL d   1      27.589 -13.763  -0.239  0.00  0.00     0.223 C 
ATOM      3  N   UNL d   1      27.785 -15.119   0.088  0.00  0.00    -0.304 N 
ATOM      4  H   UNL d   1      27.877 -15.226   1.091  0.00  0.00     0.171 HD
ENDROOT
BRANCH   3   5
ATOM      5  C   UNL d   1      27.781 -16.289  -0.710  0.00  0.00     0.178 C 
ATOM      6  S   UNL d   1      28.989 -17.482  -0.671  0.00  0.00    -0.040 SA
BRANCH   5   7
ATOM      7  N   UNL d   1      26.677 -16.382  -1.585  0.00  0.00    -0.333 N 
ATOM      8  H   UNL d   1      26.832 -16.435  -2.585  0.00  0.00     0.168 HD
BRANCH   7   9
ATOM      9  C   UNL d   1      25.391 -16.806  -1.114  0.00  0.00     0.034 A 
ATOM     10  C   UNL d   1      24.225 -16.072  -1.329  0.00  0.00     0.032 A 
ATOM     11  C   UNL d   1      22.985 -16.603  -0.903  0.00  0.00     0.039 A 
ATOM     12  C   UNL d   1      22.893 -17.884  -0.336  0.00  0.00     0.069 A 
ATOM     13  C   UNL d   1      24.060 -18.598  -0.120  0.00  0.00     0.039 A 
ATOM     14  C   UNL d   1      25.286 -18.039  -0.457  0.00  0.00     0.032 A 
BRANCH  12  15
ATOM     15  O   UNL d   1      21.640 -18.349  -0.033  0.00  0.00    -0.349 OA
BRANCH  15  16
ATOM     16  C   UNL d   1      21.081 -19.324  -0.940  0.00  0.00     0.207 C 
BRANCH  16  17
ATOM     17  C   UNL d   1      19.669 -19.702  -0.460  0.00  0.00     0.145 C 
ATOM     18  C   UNL d   1      19.649 -20.968   0.387  0.00  0.00     0.036 C 
ATOM     19  C   UNL d   1      19.762 -20.450   1.799  0.00  0.00     0.029 C 
ATOM     20  C   UNL d   1      19.029 -19.131   1.730  0.00  0.00     0.168 C 
ATOM     21  O   UNL d   1      19.156 -18.648   0.387  0.00  0.00    -0.384 OA
ENDBRANCH  16  17
ENDBRANCH  15  16
ENDBRANCH  12  15
ENDBRANCH   7   9
ENDBRANCH   5   7
ENDBRANCH   3   5
BRANCH   2  22
ATOM     22  C   UNL d   1      27.478 -13.420  -1.714  0.00  0.00     0.103 C 
BRANCH  22  23
ATOM     23  C   UNL d   1      26.114 -13.399  -2.353  0.00  0.00     0.019 C 
BRANCH  23  24
ATOM     24  C   UNL d   1      26.224 -13.259  -3.886  0.00  0.00     0.111 C 
BRANCH  24  25
ATOM     25  C   UNL d   1      26.207 -14.632  -4.504  0.00  0.00     0.258 C 
ATOM     26  O   UNL d   1      25.522 -15.567  -4.078  0.00  0.00    -0.265 OA
BRANCH  25  27
ATOM     27  O   UNL d   1      27.028 -14.727  -5.585  0.00  0.00    -0.321 OA
BRANCH  27  28
ATOM     28  C   UNL d   1      28.421 -14.708  -5.221  0.00  0.00     0.179 C 
BRANCH  28  29
ATOM     29  C   UNL d   1      28.921 -16.129  -5.012  0.00  0.00     0.031 C 
BRANCH  29  30
ATOM     30  C   UNL d   1      29.817 -16.230  -3.771  0.00  0.00     0.041 C 
BRANCH  30  31
ATOM     31  C   UNL d   1      30.676 -17.472  -3.778  0.00  0.00    -0.058 A 
ATOM     32  C   UNL d   1      30.406 -18.504  -4.687  0.00  0.00     0.007 A 
ATOM     33  C   UNL d   1      31.130 -19.696  -4.637  0.00  0.00     0.001 A 
ATOM     34  C   UNL d   1      32.186 -19.835  -3.739  0.00  0.00     0.000 A 
ATOM     35  C   UNL d   1      32.494 -18.799  -2.861  0.00  0.00     0.001 A 
ATOM     36  C   UNL d   1      31.743 -17.625  -2.881  0.00  0.00     0.007 A 
ENDBRANCH  30  31
ENDBRANCH  29  30
ENDBRANCH  28  29
ENDBRANCH  27  28
ENDBRANCH  25  27
ENDBRANCH  24  25
ENDBRANCH  23  24
ENDBRANCH  22  23
ENDBRANCH   2  22
TORSDOF 15
ENDMDL
