MODEL 1
REMARK VINA RESULT:    -8.622      0.000      0.000
REMARK INTER + INTRA:         -17.319
REMARK INTER:                 -13.395
REMARK INTRA:                  -3.924
REMARK CONF_INDEPENDENT:        4.773
REMARK UNBOUND:                -3.924
REMARK  16 active torsions:
REMARK  status: ('A' for Active; 'I' for Inactive)
REMARK    1  A    between atoms: C_2  and  C_3 
REMARK    2  A    between atoms: C_3  and  C_4 
REMARK    3  A    between atoms: C_6  and  C_7 
REMARK    4  A    between atoms: N_8  and  N_9 
REMARK       I    between atoms: N_9  and  C_10 
REMARK    5  A    between atoms: C_10  and  C_12 
REMARK    6  A    between atoms: C_12  and  C_13 
REMARK    7  A    between atoms: C_13  and  C_14 
REMARK    8  A    between atoms: C_14  and  O_15 
REMARK    9  A    between atoms: C_14  and  C_16 
REMARK   10  A    between atoms: C_19  and  O_20 
REMARK   11  A    between atoms: O_20  and  C_21 
REMARK   12  A    between atoms: C_26  and  O_27 
REMARK   13  A    between atoms: O_27  and  C_28 
REMARK   14  A    between atoms: C_30  and  O_31 
REMARK   15  A    between atoms: O_31  and  C_32 
REMARK   16  A    between atoms: C_32  and  C_33 
ROOT
ATOM      1  C   UNL d   1      26.065 -15.963  -2.183  0.00  0.00    -0.018 C 
ATOM      2  C   UNL d   1      27.226 -16.409  -1.507  0.00  0.00     0.023 C 
ATOM      3  C   UNL d   1      28.466 -16.372  -2.130  0.00  0.00    -0.014 C 
ATOM      4  C   UNL d   1      28.496 -16.116  -3.489  0.00  0.00     0.052 C 
ATOM      5  C   UNL d   1      27.420 -15.575  -4.162  0.00  0.00     0.103 C 
ATOM      6  C   UNL d   1      26.168 -15.552  -3.533  0.00  0.00     0.109 C 
ENDROOT
BRANCH   3   7
ATOM      7  C   UNL d   1      29.704 -16.499  -1.318  0.00  0.00     0.150 C 
ATOM      8  N   UNL d   1      29.955 -16.102  -0.100  0.00  0.00    -0.184 NA
BRANCH   8   9
ATOM      9  N   UNL d   1      28.969 -15.520   0.639  0.00  0.00    -0.247 N 
ATOM     10  C   UNL d   1      28.437 -14.293   0.342  0.00  0.00     0.237 C 
ATOM     11  O   UNL d   1      28.830 -13.549  -0.565  0.00  0.00    -0.272 OA
ATOM     12  H   UNL d   1      28.863 -15.790   1.604  0.00  0.00     0.192 HD
BRANCH  10  13
ATOM     13  C   UNL d   1      27.264 -13.956   1.261  0.00  0.00     0.107 C 
BRANCH  13  14
ATOM     14  C   UNL d   1      27.829 -13.366   2.531  0.00  0.00     0.046 C 
BRANCH  14  15
ATOM     15  C   UNL d   1      28.479 -14.347   3.504  0.00  0.00     0.151 C 
BRANCH  15  16
ATOM     16  O   UNL d   1      29.825 -14.574   3.100  0.00  0.00    -0.391 OA
ATOM     17  H   UNL d   1      29.961 -15.537   3.107  0.00  0.00     0.210 HD
ENDBRANCH  15  16
BRANCH  15  18
ATOM     18  C   UNL d   1      28.422 -13.828   4.933  0.00  0.00    -0.029 A 
ATOM     19  C   UNL d   1      27.912 -12.557   5.223  0.00  0.00     0.012 A 
ATOM     20  C   UNL d   1      28.007 -12.036   6.523  0.00  0.00     0.037 A 
ATOM     21  C   UNL d   1      28.532 -12.805   7.568  0.00  0.00     0.068 A 
ATOM     22  C   UNL d   1      29.025 -14.071   7.287  0.00  0.00     0.037 A 
ATOM     23  C   UNL d   1      28.969 -14.570   5.994  0.00  0.00     0.012 A 
BRANCH  21  24
ATOM     24  O   UNL d   1      28.504 -12.250   8.819  0.00  0.00    -0.352 OA
BRANCH  24  25
ATOM     25  C   UNL d   1      28.920 -13.114   9.883  0.00  0.00     0.171 C 
ATOM     26  C   UNL d   1      27.769 -13.299  10.849  0.00  0.00     0.034 C 
ENDBRANCH  24  25
ENDBRANCH  21  24
ENDBRANCH  15  18
ENDBRANCH  14  15
ENDBRANCH  13  14
ENDBRANCH  10  13
ENDBRANCH   8   9
ENDBRANCH   3   7
BRANCH   1  27
ATOM     27  C   UNL d   1      24.792 -15.958  -1.377  0.00  0.00     0.068 C 
BRANCH  27  28
ATOM     28  C   UNL d   1      24.158 -17.288  -1.153  0.00  0.00    -0.032 C 
ATOM     29  C   UNL d   1      24.498 -18.013  -0.080  0.00  0.00     0.007 C 
ENDBRANCH  27  28
ENDBRANCH   1  27
BRANCH   5  30
ATOM     30  O   UNL d   1      27.792 -15.110  -5.406  0.00  0.00    -0.349 OA
BRANCH  30  31
ATOM     31  C   UNL d   1      29.084 -14.535  -5.496  0.00  0.00     0.171 C 
ATOM     32  C   UNL d   1      29.124 -13.363  -6.442  0.00  0.00     0.034 C 
ENDBRANCH  30  31
ENDBRANCH   5  30
BRANCH   6  33
ATOM     33  O   UNL d   1      25.157 -15.190  -4.368  0.00  0.00    -0.343 OA
BRANCH  33  34
ATOM     34  C   UNL d   1      24.539 -13.939  -4.270  0.00  0.00     0.214 C 
BRANCH  34  35
ATOM     35  C   UNL d   1      25.482 -12.817  -4.039  0.00  0.00    -0.034 A 
ATOM     36  C   UNL d   1      26.003 -12.058  -5.078  0.00  0.00     0.009 A 
ATOM     37  C   UNL d   1      27.055 -11.201  -4.829  0.00  0.00     0.001 A 
ATOM     38  C   UNL d   1      27.486 -11.004  -3.518  0.00  0.00     0.000 A 
ATOM     39  C   UNL d   1      26.905 -11.701  -2.461  0.00  0.00     0.001 A 
ATOM     40  C   UNL d   1      25.905 -12.618  -2.720  0.00  0.00     0.009 A 
ENDBRANCH  34  35
ENDBRANCH  33  34
ENDBRANCH   6  33
TORSDOF 16
ENDMDL
MODEL 2
REMARK VINA RESULT:    -8.566      3.863      6.386
REMARK INTER + INTRA:         -17.201
REMARK INTER:                 -13.339
REMARK INTRA:                  -3.862
REMARK CONF_INDEPENDENT:        4.773
REMARK UNBOUND:                -3.862
REMARK  16 active torsions:
REMARK  status: ('A' for Active; 'I' for Inactive)
REMARK    1  A    between atoms: C_2  and  C_3 
REMARK    2  A    between atoms: C_3  and  C_4 
REMARK    3  A    between atoms: C_6  and  C_7 
REMARK    4  A    between atoms: N_8  and  N_9 
REMARK       I    between atoms: N_9  and  C_10 
REMARK    5  A    between atoms: C_10  and  C_12 
REMARK    6  A    between atoms: C_12  and  C_13 
REMARK    7  A    between atoms: C_13  and  C_14 
REMARK    8  A    between atoms: C_14  and  O_15 
REMARK    9  A    between atoms: C_14  and  C_16 
REMARK   10  A    between atoms: C_19  and  O_20 
REMARK   11  A    between atoms: O_20  and  C_21 
REMARK   12  A    between atoms: C_26  and  O_27 
REMARK   13  A    between atoms: O_27  and  C_28 
REMARK   14  A    between atoms: C_30  and  O_31 
REMARK   15  A    between atoms: O_31  and  C_32 
REMARK   16  A    between atoms: C_32  and  C_33 
ROOT
ATOM      1  C   UNL d   1      28.309 -15.402  -3.674  0.00  0.00    -0.018 C 
ATOM      2  C   UNL d   1      28.955 -15.914  -2.523  0.00  0.00     0.023 C 
ATOM      3  C   UNL d   1      30.050 -16.760  -2.643  0.00  0.00    -0.014 C 
ATOM      4  C   UNL d   1      30.336 -17.269  -3.897  0.00  0.00     0.052 C 
ATOM      5  C   UNL d   1      29.811 -16.725  -5.052  0.00  0.00     0.103 C 
ATOM      6  C   UNL d   1      28.740 -15.827  -4.953  0.00  0.00     0.109 C 
ENDROOT
BRANCH   3   7
ATOM      7  C   UNL d   1      30.928 -17.001  -1.469  0.00  0.00     0.150 C 
ATOM      8  N   UNL d   1      30.656 -16.960  -0.192  0.00  0.00    -0.184 NA
BRANCH   8   9
ATOM      9  N   UNL d   1      29.380 -16.719   0.221  0.00  0.00    -0.247 N 
ATOM     10  C   UNL d   1      28.942 -15.483   0.615  0.00  0.00     0.237 C 
ATOM     11  O   UNL d   1      29.654 -14.477   0.718  0.00  0.00    -0.272 OA
ATOM     12  H   UNL d   1      28.838 -17.485   0.591  0.00  0.00     0.192 HD
BRANCH  10  13
ATOM     13  C   UNL d   1      27.440 -15.486   0.898  0.00  0.00     0.107 C 
BRANCH  13  14
ATOM     14  C   UNL d   1      26.737 -15.943  -0.358  0.00  0.00     0.046 C 
BRANCH  14  15
ATOM     15  C   UNL d   1      26.339 -17.417  -0.414  0.00  0.00     0.151 C 
BRANCH  15  16
ATOM     16  O   UNL d   1      26.761 -18.055   0.787  0.00  0.00    -0.391 OA
ATOM     17  H   UNL d   1      27.573 -18.545   0.574  0.00  0.00     0.210 HD
ENDBRANCH  15  16
BRANCH  15  18
ATOM     18  C   UNL d   1      24.840 -17.578  -0.616  0.00  0.00    -0.029 A 
ATOM     19  C   UNL d   1      24.013 -16.467  -0.819  0.00  0.00     0.012 A 
ATOM     20  C   UNL d   1      22.618 -16.621  -0.852  0.00  0.00     0.037 A 
ATOM     21  C   UNL d   1      22.033 -17.889  -0.768  0.00  0.00     0.068 A 
ATOM     22  C   UNL d   1      22.851 -18.994  -0.581  0.00  0.00     0.037 A 
ATOM     23  C   UNL d   1      24.227 -18.837  -0.508  0.00  0.00     0.012 A 
BRANCH  21  24
ATOM     24  O   UNL d   1      20.671 -17.952  -0.898  0.00  0.00    -0.352 OA
BRANCH  24  25
ATOM     25  C   UNL d   1      20.119 -19.273  -0.930  0.00  0.00     0.171 C 
ATOM     26  C   UNL d   1      19.696 -19.667   0.470  0.00  0.00     0.034 C 
ENDBRANCH  24  25
ENDBRANCH  21  24
ENDBRANCH  15  18
ENDBRANCH  14  15
ENDBRANCH  13  14
ENDBRANCH  10  13
ENDBRANCH   8   9
ENDBRANCH   3   7
BRANCH   1  27
ATOM     27  C   UNL d   1      27.195 -14.419  -3.424  0.00  0.00     0.068 C 
BRANCH  27  28
ATOM     28  C   UNL d   1      25.903 -14.711  -4.107  0.00  0.00    -0.032 C 
ATOM     29  C   UNL d   1      24.793 -14.063  -3.730  0.00  0.00     0.007 C 
ENDBRANCH  27  28
ENDBRANCH   1  27
BRANCH   5  30
ATOM     30  O   UNL d   1      30.485 -17.176  -6.166  0.00  0.00    -0.349 OA
BRANCH  30  31
ATOM     31  C   UNL d   1      31.153 -18.419  -6.031  0.00  0.00     0.171 C 
ATOM     32  C   UNL d   1      30.195 -19.567  -5.848  0.00  0.00     0.034 C 
ENDBRANCH  30  31
ENDBRANCH   5  30
BRANCH   6  33
ATOM     33  O   UNL d   1      28.184 -15.525  -6.157  0.00  0.00    -0.343 OA
BRANCH  33  34
ATOM     34  C   UNL d   1      28.569 -14.391  -6.878  0.00  0.00     0.214 C 
BRANCH  34  35
ATOM     35  C   UNL d   1      28.454 -13.123  -6.115  0.00  0.00    -0.034 A 
ATOM     36  C   UNL d   1      27.330 -12.312  -6.187  0.00  0.00     0.009 A 
ATOM     37  C   UNL d   1      27.380 -11.037  -5.659  0.00  0.00     0.001 A 
ATOM     38  C   UNL d   1      28.504 -10.635  -4.939  0.00  0.00     0.000 A 
ATOM     39  C   UNL d   1      29.601 -11.482  -4.791  0.00  0.00     0.001 A 
ATOM     40  C   UNL d   1      29.582 -12.728  -5.387  0.00  0.00     0.009 A 
ENDBRANCH  34  35
ENDBRANCH  33  34
ENDBRANCH   6  33
TORSDOF 16
ENDMDL
MODEL 3
REMARK VINA RESULT:    -8.352      4.655      7.358
REMARK INTER + INTRA:         -16.297
REMARK INTER:                 -13.124
REMARK INTRA:                  -3.173
REMARK CONF_INDEPENDENT:        4.773
REMARK UNBOUND:                -3.173
REMARK  16 active torsions:
REMARK  status: ('A' for Active; 'I' for Inactive)
REMARK    1  A    between atoms: C_2  and  C_3 
REMARK    2  A    between atoms: C_3  and  C_4 
REMARK    3  A    between atoms: C_6  and  C_7 
REMARK    4  A    between atoms: N_8  and  N_9 
REMARK       I    between atoms: N_9  and  C_10 
REMARK    5  A    between atoms: C_10  and  C_12 
REMARK    6  A    between atoms: C_12  and  C_13 
REMARK    7  A    between atoms: C_13  and  C_14 
REMARK    8  A    between atoms: C_14  and  O_15 
REMARK    9  A    between atoms: C_14  and  C_16 
REMARK   10  A    between atoms: C_19  and  O_20 
REMARK   11  A    between atoms: O_20  and  C_21 
REMARK   12  A    between atoms: C_26  and  O_27 
REMARK   13  A    between atoms: O_27  and  C_28 
REMARK   14  A    between atoms: C_30  and  O_31 
REMARK   15  A    between atoms: O_31  and  C_32 
REMARK   16  A    between atoms: C_32  and  C_33 
ROOT
ATOM      1  C   UNL d   1      27.236 -11.698  -5.085  0.00  0.00    -0.018 C 
ATOM      2  C   UNL d   1      25.927 -12.025  -4.658  0.00  0.00     0.023 C 
ATOM      3  C   UNL d   1      25.491 -13.344  -4.658  0.00  0.00    -0.014 C 
ATOM      4  C   UNL d   1      26.278 -14.282  -5.301  0.00  0.00     0.052 C 
ATOM      5  C   UNL d   1      27.595 -14.038  -5.633  0.00  0.00     0.103 C 
ATOM      6  C   UNL d   1      28.073 -12.721  -5.589  0.00  0.00     0.109 C 
ENDROOT
BRANCH   3   7
ATOM      7  C   UNL d   1      24.275 -13.719  -3.891  0.00  0.00     0.150 C 
ATOM      8  N   UNL d   1      24.142 -14.508  -2.859  0.00  0.00    -0.184 NA
BRANCH   8   9
ATOM      9  N   UNL d   1      25.243 -15.077  -2.295  0.00  0.00    -0.247 N 
ATOM     10  C   UNL d   1      26.217 -14.352  -1.659  0.00  0.00     0.237 C 
ATOM     11  O   UNL d   1      26.253 -13.118  -1.590  0.00  0.00    -0.272 OA
ATOM     12  H   UNL d   1      25.555 -15.973  -2.637  0.00  0.00     0.192 HD
BRANCH  10  13
ATOM     13  C   UNL d   1      27.259 -15.264  -1.013  0.00  0.00     0.107 C 
BRANCH  13  14
ATOM     14  C   UNL d   1      26.591 -15.992   0.128  0.00  0.00     0.046 C 
BRANCH  14  15
ATOM     15  C   UNL d   1      26.263 -17.465  -0.106  0.00  0.00     0.151 C 
BRANCH  15  16
ATOM     16  O   UNL d   1      26.668 -18.215   1.035  0.00  0.00    -0.391 OA
ATOM     17  H   UNL d   1      27.588 -18.488   0.877  0.00  0.00     0.210 HD
ENDBRANCH  15  16
BRANCH  15  18
ATOM     18  C   UNL d   1      24.781 -17.664  -0.386  0.00  0.00    -0.029 A 
ATOM     19  C   UNL d   1      23.899 -16.577  -0.424  0.00  0.00     0.012 A 
ATOM     20  C   UNL d   1      22.515 -16.793  -0.533  0.00  0.00     0.037 A 
ATOM     21  C   UNL d   1      22.000 -18.084  -0.691  0.00  0.00     0.068 A 
ATOM     22  C   UNL d   1      22.873 -19.162  -0.668  0.00  0.00     0.037 A 
ATOM     23  C   UNL d   1      24.236 -18.952  -0.519  0.00  0.00     0.012 A 
BRANCH  21  24
ATOM     24  O   UNL d   1      20.648 -18.192  -0.878  0.00  0.00    -0.352 OA
BRANCH  24  25
ATOM     25  C   UNL d   1      20.112 -19.512  -0.729  0.00  0.00     0.171 C 
ATOM     26  C   UNL d   1      19.179 -19.535   0.464  0.00  0.00     0.034 C 
ENDBRANCH  24  25
ENDBRANCH  21  24
ENDBRANCH  15  18
ENDBRANCH  14  15
ENDBRANCH  13  14
ENDBRANCH  10  13
ENDBRANCH   8   9
ENDBRANCH   3   7
BRANCH   1  27
ATOM     27  C   UNL d   1      27.632 -10.251  -4.951  0.00  0.00     0.068 C 
BRANCH  27  28
ATOM     28  C   UNL d   1      26.510  -9.278  -4.825  0.00  0.00    -0.032 C 
ATOM     29  C   UNL d   1      26.413  -8.516  -3.727  0.00  0.00     0.007 C 
ENDBRANCH  27  28
ENDBRANCH   1  27
BRANCH   5  30
ATOM     30  O   UNL d   1      28.253 -15.206  -5.954  0.00  0.00    -0.349 OA
BRANCH  30  31
ATOM     31  C   UNL d   1      29.284 -15.605  -5.067  0.00  0.00     0.171 C 
ATOM     32  C   UNL d   1      30.042 -16.805  -5.573  0.00  0.00     0.034 C 
ENDBRANCH  30  31
ENDBRANCH   5  30
BRANCH   6  33
ATOM     33  O   UNL d   1      29.312 -12.585  -6.132  0.00  0.00    -0.343 OA
BRANCH  33  34
ATOM     34  C   UNL d   1      29.498 -12.469  -7.514  0.00  0.00     0.214 C 
BRANCH  34  35
ATOM     35  C   UNL d   1      28.555 -11.530  -8.172  0.00  0.00    -0.034 A 
ATOM     36  C   UNL d   1      27.478 -11.968  -8.930  0.00  0.00     0.009 A 
ATOM     37  C   UNL d   1      26.791 -11.065  -9.715  0.00  0.00     0.001 A 
ATOM     38  C   UNL d   1      27.095  -9.708  -9.629  0.00  0.00     0.000 A 
ATOM     39  C   UNL d   1      28.121  -9.255  -8.801  0.00  0.00     0.001 A 
ATOM     40  C   UNL d   1      28.861 -10.168  -8.076  0.00  0.00     0.009 A 
ENDBRANCH  34  35
ENDBRANCH  33  34
ENDBRANCH   6  33
TORSDOF 16
ENDMDL
MODEL 4
REMARK VINA RESULT:    -7.623      1.688      2.539
REMARK INTER + INTRA:         -16.789
REMARK INTER:                 -12.396
REMARK INTRA:                  -4.393
REMARK CONF_INDEPENDENT:        4.773
REMARK UNBOUND:                -4.393
REMARK  16 active torsions:
REMARK  status: ('A' for Active; 'I' for Inactive)
REMARK    1  A    between atoms: C_2  and  C_3 
REMARK    2  A    between atoms: C_3  and  C_4 
REMARK    3  A    between atoms: C_6  and  C_7 
REMARK    4  A    between atoms: N_8  and  N_9 
REMARK       I    between atoms: N_9  and  C_10 
REMARK    5  A    between atoms: C_10  and  C_12 
REMARK    6  A    between atoms: C_12  and  C_13 
REMARK    7  A    between atoms: C_13  and  C_14 
REMARK    8  A    between atoms: C_14  and  O_15 
REMARK    9  A    between atoms: C_14  and  C_16 
REMARK   10  A    between atoms: C_19  and  O_20 
REMARK   11  A    between atoms: O_20  and  C_21 
REMARK   12  A    between atoms: C_26  and  O_27 
REMARK   13  A    between atoms: O_27  and  C_28 
REMARK   14  A    between atoms: C_30  and  O_31 
REMARK   15  A    between atoms: O_31  and  C_32 
REMARK   16  A    between atoms: C_32  and  C_33 
ROOT
ATOM      1  C   UNL d   1      26.615 -17.178  -0.490  0.00  0.00    -0.018 C 
ATOM      2  C   UNL d   1      27.962 -17.612  -0.495  0.00  0.00     0.023 C 
ATOM      3  C   UNL d   1      28.990 -16.723  -0.781  0.00  0.00    -0.014 C 
ATOM      4  C   UNL d   1      28.647 -15.482  -1.285  0.00  0.00     0.052 C 
ATOM      5  C   UNL d   1      27.365 -14.978  -1.197  0.00  0.00     0.103 C 
ATOM      6  C   UNL d   1      26.317 -15.845  -0.858  0.00  0.00     0.109 C 
ENDROOT
BRANCH   3   7
ATOM      7  C   UNL d   1      30.391 -17.083  -0.442  0.00  0.00     0.150 C 
ATOM      8  N   UNL d   1      31.212 -16.548   0.421  0.00  0.00    -0.184 NA
BRANCH   8   9
ATOM      9  N   UNL d   1      30.785 -15.531   1.220  0.00  0.00    -0.247 N 
ATOM     10  C   UNL d   1      31.416 -14.316   1.285  0.00  0.00     0.237 C 
ATOM     11  O   UNL d   1      32.467 -14.029   0.701  0.00  0.00    -0.272 OA
ATOM     12  H   UNL d   1      30.236 -15.752   2.036  0.00  0.00     0.192 HD
BRANCH  10  13
ATOM     13  C   UNL d   1      30.641 -13.331   2.161  0.00  0.00     0.107 C 
BRANCH  13  14
ATOM     14  C   UNL d   1      29.292 -13.109   1.521  0.00  0.00     0.046 C 
BRANCH  14  15
ATOM     15  C   UNL d   1      28.110 -13.832   2.163  0.00  0.00     0.151 C 
BRANCH  15  16
ATOM     16  O   UNL d   1      28.129 -15.197   1.758  0.00  0.00    -0.391 OA
ATOM     17  H   UNL d   1      28.900 -15.605   2.188  0.00  0.00     0.210 HD
ENDBRANCH  15  16
BRANCH  15  18
ATOM     18  C   UNL d   1      28.146 -13.715   3.679  0.00  0.00    -0.029 A 
ATOM     19  C   UNL d   1      27.970 -12.481   4.315  0.00  0.00     0.012 A 
ATOM     20  C   UNL d   1      28.157 -12.366   5.702  0.00  0.00     0.037 A 
ATOM     21  C   UNL d   1      28.437 -13.492   6.484  0.00  0.00     0.068 A 
ATOM     22  C   UNL d   1      28.598 -14.720   5.858  0.00  0.00     0.037 A 
ATOM     23  C   UNL d   1      28.453 -14.826   4.483  0.00  0.00     0.012 A 
BRANCH  21  24
ATOM     24  O   UNL d   1      28.516 -13.301   7.837  0.00  0.00    -0.352 OA
BRANCH  24  25
ATOM     25  C   UNL d   1      29.530 -14.060   8.505  0.00  0.00     0.171 C 
ATOM     26  C   UNL d   1      28.930 -14.716   9.731  0.00  0.00     0.034 C 
ENDBRANCH  24  25
ENDBRANCH  21  24
ENDBRANCH  15  18
ENDBRANCH  14  15
ENDBRANCH  13  14
ENDBRANCH  10  13
ENDBRANCH   8   9
ENDBRANCH   3   7
BRANCH   1  27
ATOM     27  C   UNL d   1      25.593 -18.203  -0.073  0.00  0.00     0.068 C 
BRANCH  27  28
ATOM     28  C   UNL d   1      24.170 -17.852  -0.342  0.00  0.00    -0.032 C 
ATOM     29  C   UNL d   1      23.279 -18.825  -0.574  0.00  0.00     0.007 C 
ENDBRANCH  27  28
ENDBRANCH   1  27
BRANCH   5  30
ATOM     30  O   UNL d   1      27.342 -13.625  -1.459  0.00  0.00    -0.349 OA
BRANCH  30  31
ATOM     31  C   UNL d   1      28.570 -13.047  -1.867  0.00  0.00     0.171 C 
ATOM     32  C   UNL d   1      28.598 -11.555  -1.661  0.00  0.00     0.034 C 
ENDBRANCH  30  31
ENDBRANCH   5  30
BRANCH   6  33
ATOM     33  O   UNL d   1      25.089 -15.281  -1.007  0.00  0.00    -0.343 OA
BRANCH  33  34
ATOM     34  C   UNL d   1      24.406 -15.325  -2.226  0.00  0.00     0.214 C 
BRANCH  34  35
ATOM     35  C   UNL d   1      25.176 -14.775  -3.370  0.00  0.00    -0.034 A 
ATOM     36  C   UNL d   1      25.959 -15.575  -4.191  0.00  0.00     0.009 A 
ATOM     37  C   UNL d   1      26.840 -14.982  -5.072  0.00  0.00     0.001 A 
ATOM     38  C   UNL d   1      26.829 -13.596  -5.227  0.00  0.00     0.000 A 
ATOM     39  C   UNL d   1      25.979 -12.797  -4.465  0.00  0.00     0.001 A 
ATOM     40  C   UNL d   1      25.155 -13.385  -3.526  0.00  0.00     0.009 A 
ENDBRANCH  34  35
ENDBRANCH  33  34
ENDBRANCH   6  33
TORSDOF 16
ENDMDL
MODEL 5
REMARK VINA RESULT:    -7.424      4.511      6.898
REMARK INTER + INTRA:         -16.603
REMARK INTER:                 -12.197
REMARK INTRA:                  -4.406
REMARK CONF_INDEPENDENT:        4.773
REMARK UNBOUND:                -4.406
REMARK  16 active torsions:
REMARK  status: ('A' for Active; 'I' for Inactive)
REMARK    1  A    between atoms: C_2  and  C_3 
REMARK    2  A    between atoms: C_3  and  C_4 
REMARK    3  A    between atoms: C_6  and  C_7 
REMARK    4  A    between atoms: N_8  and  N_9 
REMARK       I    between atoms: N_9  and  C_10 
REMARK    5  A    between atoms: C_10  and  C_12 
REMARK    6  A    between atoms: C_12  and  C_13 
REMARK    7  A    between atoms: C_13  and  C_14 
REMARK    8  A    between atoms: C_14  and  O_15 
REMARK    9  A    between atoms: C_14  and  C_16 
REMARK   10  A    between atoms: C_19  and  O_20 
REMARK   11  A    between atoms: O_20  and  C_21 
REMARK   12  A    between atoms: C_26  and  O_27 
REMARK   13  A    between atoms: O_27  and  C_28 
REMARK   14  A    between atoms: C_30  and  O_31 
REMARK   15  A    between atoms: O_31  and  C_32 
REMARK   16  A    between atoms: C_32  and  C_33 
ROOT
ATOM      1  C   UNL d   1      29.866 -16.177  -4.553  0.00  0.00    -0.018 C 
ATOM      2  C   UNL d   1      30.840 -16.110  -3.528  0.00  0.00     0.023 C 
ATOM      3  C   UNL d   1      30.592 -15.398  -2.362  0.00  0.00    -0.014 C 
ATOM      4  C   UNL d   1      29.481 -14.574  -2.334  0.00  0.00     0.052 C 
ATOM      5  C   UNL d   1      28.457 -14.686  -3.252  0.00  0.00     0.103 C 
ATOM      6  C   UNL d   1      28.664 -15.444  -4.413  0.00  0.00     0.109 C 
ENDROOT
BRANCH   3   7
ATOM      7  C   UNL d   1      31.446 -15.619  -1.167  0.00  0.00     0.150 C 
ATOM      8  N   UNL d   1      31.256 -16.387  -0.128  0.00  0.00    -0.184 NA
BRANCH   8   9
ATOM      9  N   UNL d   1      30.156 -17.189  -0.070  0.00  0.00    -0.247 N 
ATOM     10  C   UNL d   1      28.878 -16.700   0.005  0.00  0.00     0.237 C 
ATOM     11  O   UNL d   1      28.580 -15.504   0.107  0.00  0.00    -0.272 OA
ATOM     12  H   UNL d   1      30.259 -18.128   0.282  0.00  0.00     0.192 HD
BRANCH  10  13
ATOM     13  C   UNL d   1      27.846 -17.824  -0.076  0.00  0.00     0.107 C 
BRANCH  13  14
ATOM     14  C   UNL d   1      26.594 -17.350   0.622  0.00  0.00     0.046 C 
BRANCH  14  15
ATOM     15  C   UNL d   1      25.650 -16.474  -0.199  0.00  0.00     0.151 C 
BRANCH  15  16
ATOM     16  O   UNL d   1      26.330 -16.035  -1.371  0.00  0.00    -0.391 OA
ATOM     17  H   UNL d   1      26.851 -15.255  -1.117  0.00  0.00     0.210 HD
ENDBRANCH  15  16
BRANCH  15  18
ATOM     18  C   UNL d   1      24.374 -17.219  -0.559  0.00  0.00    -0.029 A 
ATOM     19  C   UNL d   1      23.158 -16.543  -0.710  0.00  0.00     0.012 A 
ATOM     20  C   UNL d   1      21.966 -17.263  -0.893  0.00  0.00     0.037 A 
ATOM     21  C   UNL d   1      21.981 -18.657  -1.013  0.00  0.00     0.068 A 
ATOM     22  C   UNL d   1      23.187 -19.330  -0.878  0.00  0.00     0.037 A 
ATOM     23  C   UNL d   1      24.359 -18.621  -0.657  0.00  0.00     0.012 A 
BRANCH  21  24
ATOM     24  O   UNL d   1      20.784 -19.268  -1.278  0.00  0.00    -0.352 OA
BRANCH  24  25
ATOM     25  C   UNL d   1      19.757 -19.052  -0.303  0.00  0.00     0.171 C 
ATOM     26  C   UNL d   1      19.959 -20.014   0.849  0.00  0.00     0.034 C 
ENDBRANCH  24  25
ENDBRANCH  21  24
ENDBRANCH  15  18
ENDBRANCH  14  15
ENDBRANCH  13  14
ENDBRANCH  10  13
ENDBRANCH   8   9
ENDBRANCH   3   7
BRANCH   1  27
ATOM     27  C   UNL d   1      30.204 -17.056  -5.729  0.00  0.00     0.068 C 
BRANCH  27  28
ATOM     28  C   UNL d   1      31.025 -18.262  -5.426  0.00  0.00    -0.032 C 
ATOM     29  C   UNL d   1      30.430 -19.456  -5.304  0.00  0.00     0.007 C 
ENDBRANCH  27  28
ENDBRANCH   1  27
BRANCH   5  30
ATOM     30  O   UNL d   1      27.335 -14.003  -2.833  0.00  0.00    -0.349 OA
BRANCH  30  31
ATOM     31  C   UNL d   1      26.360 -13.735  -3.825  0.00  0.00     0.171 C 
ATOM     32  C   UNL d   1      25.159 -14.637  -3.706  0.00  0.00     0.034 C 
ENDBRANCH  30  31
ENDBRANCH   5  30
BRANCH   6  33
ATOM     33  O   UNL d   1      27.666 -15.307  -5.325  0.00  0.00    -0.343 OA
BRANCH  33  34
ATOM     34  C   UNL d   1      27.854 -14.598  -6.516  0.00  0.00     0.214 C 
BRANCH  34  35
ATOM     35  C   UNL d   1      29.036 -13.701  -6.504  0.00  0.00    -0.034 A 
ATOM     36  C   UNL d   1      30.189 -13.980  -7.224  0.00  0.00     0.009 A 
ATOM     37  C   UNL d   1      31.334 -13.250  -6.980  0.00  0.00     0.001 A 
ATOM     38  C   UNL d   1      31.280 -12.153  -6.121  0.00  0.00     0.000 A 
ATOM     39  C   UNL d   1      30.098 -11.817  -5.462  0.00  0.00     0.001 A 
ATOM     40  C   UNL d   1      28.973 -12.597  -5.646  0.00  0.00     0.009 A 
ENDBRANCH  34  35
ENDBRANCH  33  34
ENDBRANCH   6  33
TORSDOF 16
ENDMDL
MODEL 6
REMARK VINA RESULT:    -6.991      1.175      3.337
REMARK INTER + INTRA:         -16.395
REMARK INTER:                 -11.764
REMARK INTRA:                  -4.631
REMARK CONF_INDEPENDENT:        4.773
REMARK UNBOUND:                -4.631
REMARK  16 active torsions:
REMARK  status: ('A' for Active; 'I' for Inactive)
REMARK    1  A    between atoms: C_2  and  C_3 
REMARK    2  A    between atoms: C_3  and  C_4 
REMARK    3  A    between atoms: C_6  and  C_7 
REMARK    4  A    between atoms: N_8  and  N_9 
REMARK       I    between atoms: N_9  and  C_10 
REMARK    5  A    between atoms: C_10  and  C_12 
REMARK    6  A    between atoms: C_12  and  C_13 
REMARK    7  A    between atoms: C_13  and  C_14 
REMARK    8  A    between atoms: C_14  and  O_15 
REMARK    9  A    between atoms: C_14  and  C_16 
REMARK   10  A    between atoms: C_19  and  O_20 
REMARK   11  A    between atoms: O_20  and  C_21 
REMARK   12  A    between atoms: C_26  and  O_27 
REMARK   13  A    between atoms: O_27  and  C_28 
REMARK   14  A    between atoms: C_30  and  O_31 
REMARK   15  A    between atoms: O_31  and  C_32 
REMARK   16  A    between atoms: C_32  and  C_33 
ROOT
ATOM      1  C   UNL d   1      27.647 -15.342  -4.260  0.00  0.00    -0.018 C 
ATOM      2  C   UNL d   1      28.739 -15.821  -3.498  0.00  0.00     0.023 C 
ATOM      3  C   UNL d   1      28.531 -16.420  -2.263  0.00  0.00    -0.014 C 
ATOM      4  C   UNL d   1      27.271 -16.320  -1.702  0.00  0.00     0.052 C 
ATOM      5  C   UNL d   1      26.161 -15.964  -2.441  0.00  0.00     0.103 C 
ATOM      6  C   UNL d   1      26.343 -15.405  -3.713  0.00  0.00     0.109 C 
ENDROOT
BRANCH   3   7
ATOM      7  C   UNL d   1      29.614 -17.227  -1.642  0.00  0.00     0.150 C 
ATOM      8  N   UNL d   1      30.299 -17.018  -0.551  0.00  0.00    -0.184 NA
BRANCH   8   9
ATOM      9  N   UNL d   1      30.007 -15.945   0.237  0.00  0.00    -0.247 N 
ATOM     10  C   UNL d   1      30.319 -14.656  -0.110  0.00  0.00     0.237 C 
ATOM     11  O   UNL d   1      30.957 -14.326  -1.116  0.00  0.00    -0.272 OA
ATOM     12  H   UNL d   1      29.893 -16.088   1.228  0.00  0.00     0.192 HD
BRANCH  10  13
ATOM     13  C   UNL d   1      29.756 -13.656   0.899  0.00  0.00     0.107 C 
BRANCH  13  14
ATOM     14  C   UNL d   1      28.262 -13.585   0.693  0.00  0.00     0.046 C 
BRANCH  14  15
ATOM     15  C   UNL d   1      27.405 -14.409   1.652  0.00  0.00     0.151 C 
BRANCH  15  16
ATOM     16  O   UNL d   1      27.770 -15.781   1.534  0.00  0.00    -0.391 OA
ATOM     17  H   UNL d   1      28.549 -15.913   2.100  0.00  0.00     0.210 HD
ENDBRANCH  15  16
BRANCH  15  18
ATOM     18  C   UNL d   1      27.562 -13.928   3.086  0.00  0.00    -0.029 A 
ATOM     19  C   UNL d   1      27.483 -12.568   3.407  0.00  0.00     0.012 A 
ATOM     20  C   UNL d   1      27.780 -12.129   4.708  0.00  0.00     0.037 A 
ATOM     21  C   UNL d   1      28.074 -13.044   5.724  0.00  0.00     0.068 A 
ATOM     22  C   UNL d   1      28.139 -14.395   5.413  0.00  0.00     0.037 A 
ATOM     23  C   UNL d   1      27.886 -14.825   4.118  0.00  0.00     0.012 A 
BRANCH  21  24
ATOM     24  O   UNL d   1      28.264 -12.534   6.980  0.00  0.00    -0.352 OA
BRANCH  24  25
ATOM     25  C   UNL d   1      29.250 -13.205   7.773  0.00  0.00     0.171 C 
ATOM     26  C   UNL d   1      28.696 -13.434   9.163  0.00  0.00     0.034 C 
ENDBRANCH  24  25
ENDBRANCH  21  24
ENDBRANCH  15  18
ENDBRANCH  14  15
ENDBRANCH  13  14
ENDBRANCH  10  13
ENDBRANCH   8   9
ENDBRANCH   3   7
BRANCH   1  27
ATOM     27  C   UNL d   1      27.982 -14.799  -5.624  0.00  0.00     0.068 C 
BRANCH  27  28
ATOM     28  C   UNL d   1      28.408 -13.372  -5.672  0.00  0.00    -0.032 C 
ATOM     29  C   UNL d   1      29.261 -12.903  -4.750  0.00  0.00     0.007 C 
ENDBRANCH  27  28
ENDBRANCH   1  27
BRANCH   5  30
ATOM     30  O   UNL d   1      24.996 -16.251  -1.761  0.00  0.00    -0.349 OA
BRANCH  30  31
ATOM     31  C   UNL d   1      25.140 -16.599  -0.396  0.00  0.00     0.171 C 
ATOM     32  C   UNL d   1      24.861 -18.058  -0.145  0.00  0.00     0.034 C 
ENDBRANCH  30  31
ENDBRANCH   5  30
BRANCH   6  33
ATOM     33  O   UNL d   1      25.196 -14.909  -4.248  0.00  0.00    -0.343 OA
BRANCH  33  34
ATOM     34  C   UNL d   1      24.647 -13.699  -3.811  0.00  0.00     0.214 C 
BRANCH  34  35
ATOM     35  C   UNL d   1      25.658 -12.678  -3.438  0.00  0.00    -0.034 A 
ATOM     36  C   UNL d   1      26.301 -12.684  -2.208  0.00  0.00     0.009 A 
ATOM     37  C   UNL d   1      27.036 -11.581  -1.824  0.00  0.00     0.001 A 
ATOM     38  C   UNL d   1      27.240 -10.541  -2.730  0.00  0.00     0.000 A 
ATOM     39  C   UNL d   1      26.666 -10.574  -3.999  0.00  0.00     0.001 A 
ATOM     40  C   UNL d   1      25.865 -11.641  -4.354  0.00  0.00     0.009 A 
ENDBRANCH  34  35
ENDBRANCH  33  34
ENDBRANCH   6  33
TORSDOF 16
ENDMDL
MODEL 7
REMARK VINA RESULT:    -6.911      1.296      1.996
REMARK INTER + INTRA:         -16.408
REMARK INTER:                 -11.684
REMARK INTRA:                  -4.724
REMARK CONF_INDEPENDENT:        4.773
REMARK UNBOUND:                -4.724
REMARK  16 active torsions:
REMARK  status: ('A' for Active; 'I' for Inactive)
REMARK    1  A    between atoms: C_2  and  C_3 
REMARK    2  A    between atoms: C_3  and  C_4 
REMARK    3  A    between atoms: C_6  and  C_7 
REMARK    4  A    between atoms: N_8  and  N_9 
REMARK       I    between atoms: N_9  and  C_10 
REMARK    5  A    between atoms: C_10  and  C_12 
REMARK    6  A    between atoms: C_12  and  C_13 
REMARK    7  A    between atoms: C_13  and  C_14 
REMARK    8  A    between atoms: C_14  and  O_15 
REMARK    9  A    between atoms: C_14  and  C_16 
REMARK   10  A    between atoms: C_19  and  O_20 
REMARK   11  A    between atoms: O_20  and  C_21 
REMARK   12  A    between atoms: C_26  and  O_27 
REMARK   13  A    between atoms: O_27  and  C_28 
REMARK   14  A    between atoms: C_30  and  O_31 
REMARK   15  A    between atoms: O_31  and  C_32 
REMARK   16  A    between atoms: C_32  and  C_33 
ROOT
ATOM      1  C   UNL d   1      26.597 -15.731  -2.592  0.00  0.00    -0.018 C 
ATOM      2  C   UNL d   1      27.897 -16.167  -2.238  0.00  0.00     0.023 C 
ATOM      3  C   UNL d   1      28.937 -16.108  -3.155  0.00  0.00    -0.014 C 
ATOM      4  C   UNL d   1      28.619 -15.839  -4.474  0.00  0.00     0.052 C 
ATOM      5  C   UNL d   1      27.401 -15.308  -4.845  0.00  0.00     0.103 C 
ATOM      6  C   UNL d   1      26.349 -15.308  -3.919  0.00  0.00     0.109 C 
ENDROOT
BRANCH   3   7
ATOM      7  C   UNL d   1      30.342 -16.224  -2.686  0.00  0.00     0.150 C 
ATOM      8  N   UNL d   1      30.960 -15.601  -1.718  0.00  0.00    -0.184 NA
BRANCH   8   9
ATOM      9  N   UNL d   1      30.273 -14.732  -0.925  0.00  0.00    -0.247 N 
ATOM     10  C   UNL d   1      29.675 -13.596  -1.404  0.00  0.00     0.237 C 
ATOM     11  O   UNL d   1      29.751 -13.191  -2.570  0.00  0.00    -0.272 OA
ATOM     12  H   UNL d   1      30.490 -14.699   0.059  0.00  0.00     0.192 HD
BRANCH  10  13
ATOM     13  C   UNL d   1      28.871 -12.888  -0.315  0.00  0.00     0.107 C 
BRANCH  13  14
ATOM     14  C   UNL d   1      27.631 -13.708  -0.052  0.00  0.00     0.046 C 
BRANCH  14  15
ATOM     15  C   UNL d   1      27.702 -14.688   1.117  0.00  0.00     0.151 C 
BRANCH  15  16
ATOM     16  O   UNL d   1      28.870 -15.491   0.977  0.00  0.00    -0.391 OA
ATOM     17  H   UNL d   1      28.827 -16.172   1.669  0.00  0.00     0.210 HD
ENDBRANCH  15  16
BRANCH  15  18
ATOM     18  C   UNL d   1      27.703 -13.958   2.452  0.00  0.00    -0.029 A 
ATOM     19  C   UNL d   1      27.285 -12.626   2.550  0.00  0.00     0.012 A 
ATOM     20  C   UNL d   1      27.436 -11.924   3.756  0.00  0.00     0.037 A 
ATOM     21  C   UNL d   1      27.923 -12.562   4.902  0.00  0.00     0.068 A 
ATOM     22  C   UNL d   1      28.325 -13.887   4.813  0.00  0.00     0.037 A 
ATOM     23  C   UNL d   1      28.214 -14.569   3.610  0.00  0.00     0.012 A 
BRANCH  21  24
ATOM     24  O   UNL d   1      27.953 -11.824   6.055  0.00  0.00    -0.352 OA
BRANCH  24  25
ATOM     25  C   UNL d   1      28.153 -12.576   7.258  0.00  0.00     0.171 C 
ATOM     26  C   UNL d   1      29.061 -11.794   8.184  0.00  0.00     0.034 C 
ENDBRANCH  24  25
ENDBRANCH  21  24
ENDBRANCH  15  18
ENDBRANCH  14  15
ENDBRANCH  13  14
ENDBRANCH  10  13
ENDBRANCH   8   9
ENDBRANCH   3   7
BRANCH   1  27
ATOM     27  C   UNL d   1      25.571 -15.752  -1.489  0.00  0.00     0.068 C 
BRANCH  27  28
ATOM     28  C   UNL d   1      24.935 -17.071  -1.216  0.00  0.00    -0.032 C 
ATOM     29  C   UNL d   1      25.270 -17.753  -0.112  0.00  0.00     0.007 C 
ENDBRANCH  27  28
ENDBRANCH   1  27
BRANCH   5  30
ATOM     30  O   UNL d   1      27.439 -14.827  -6.137  0.00  0.00    -0.349 OA
BRANCH  30  31
ATOM     31  C   UNL d   1      28.728 -14.582  -6.673  0.00  0.00     0.171 C 
ATOM     32  C   UNL d   1      28.824 -13.235  -7.340  0.00  0.00     0.034 C 
ENDBRANCH  30  31
ENDBRANCH   5  30
BRANCH   6  33
ATOM     33  O   UNL d   1      25.156 -14.953  -4.465  0.00  0.00    -0.343 OA
BRANCH  33  34
ATOM     34  C   UNL d   1      24.585 -13.699  -4.226  0.00  0.00     0.214 C 
BRANCH  34  35
ATOM     35  C   UNL d   1      25.576 -12.609  -4.045  0.00  0.00    -0.034 A 
ATOM     36  C   UNL d   1      25.984 -12.176  -2.790  0.00  0.00     0.009 A 
ATOM     37  C   UNL d   1      26.708 -11.007  -2.680  0.00  0.00     0.001 A 
ATOM     38  C   UNL d   1      27.141 -10.355  -3.834  0.00  0.00     0.000 A 
ATOM     39  C   UNL d   1      26.806 -10.837  -5.098  0.00  0.00     0.001 A 
ATOM     40  C   UNL d   1      26.014 -11.963  -5.206  0.00  0.00     0.009 A 
ENDBRANCH  34  35
ENDBRANCH  33  34
ENDBRANCH   6  33
TORSDOF 16
ENDMDL
MODEL 8
REMARK VINA RESULT:    -6.167      2.406      5.171
REMARK INTER + INTRA:         -16.282
REMARK INTER:                 -10.940
REMARK INTRA:                  -5.343
REMARK CONF_INDEPENDENT:        4.773
REMARK UNBOUND:                -5.343
REMARK  16 active torsions:
REMARK  status: ('A' for Active; 'I' for Inactive)
REMARK    1  A    between atoms: C_2  and  C_3 
REMARK    2  A    between atoms: C_3  and  C_4 
REMARK    3  A    between atoms: C_6  and  C_7 
REMARK    4  A    between atoms: N_8  and  N_9 
REMARK       I    between atoms: N_9  and  C_10 
REMARK    5  A    between atoms: C_10  and  C_12 
REMARK    6  A    between atoms: C_12  and  C_13 
REMARK    7  A    between atoms: C_13  and  C_14 
REMARK    8  A    between atoms: C_14  and  O_15 
REMARK    9  A    between atoms: C_14  and  C_16 
REMARK   10  A    between atoms: C_19  and  O_20 
REMARK   11  A    between atoms: O_20  and  C_21 
REMARK   12  A    between atoms: C_26  and  O_27 
REMARK   13  A    between atoms: O_27  and  C_28 
REMARK   14  A    between atoms: C_30  and  O_31 
REMARK   15  A    between atoms: O_31  and  C_32 
REMARK   16  A    between atoms: C_32  and  C_33 
ROOT
ATOM      1  C   UNL d   1      28.041 -15.938  -2.554  0.00  0.00    -0.018 C 
ATOM      2  C   UNL d   1      28.850 -16.058  -3.709  0.00  0.00     0.023 C 
ATOM      3  C   UNL d   1      28.412 -15.574  -4.935  0.00  0.00    -0.014 C 
ATOM      4  C   UNL d   1      27.087 -15.194  -5.040  0.00  0.00     0.052 C 
ATOM      5  C   UNL d   1      26.297 -14.958  -3.933  0.00  0.00     0.103 C 
ATOM      6  C   UNL d   1      26.742 -15.390  -2.677  0.00  0.00     0.109 C 
ENDROOT
BRANCH   3   7
ATOM      7  C   UNL d   1      29.384 -15.381  -6.042  0.00  0.00     0.150 C 
ATOM      8  N   UNL d   1      30.431 -14.604  -6.116  0.00  0.00    -0.184 NA
BRANCH   8   9
ATOM      9  N   UNL d   1      30.799 -13.858  -5.037  0.00  0.00    -0.247 N 
ATOM     10  C   UNL d   1      30.013 -12.866  -4.511  0.00  0.00     0.237 C 
ATOM     11  O   UNL d   1      28.938 -12.484  -4.988  0.00  0.00    -0.272 OA
ATOM     12  H   UNL d   1      31.780 -13.760  -4.827  0.00  0.00     0.192 HD
BRANCH  10  13
ATOM     13  C   UNL d   1      30.621 -12.293  -3.232  0.00  0.00     0.107 C 
BRANCH  13  14
ATOM     14  C   UNL d   1      29.945 -12.965  -2.060  0.00  0.00     0.046 C 
BRANCH  14  15
ATOM     15  C   UNL d   1      28.690 -12.285  -1.520  0.00  0.00     0.151 C 
BRANCH  15  16
ATOM     16  O   UNL d   1      27.626 -12.473  -2.448  0.00  0.00    -0.391 OA
ATOM     17  H   UNL d   1      27.953 -12.172  -3.313  0.00  0.00     0.210 HD
ENDBRANCH  15  16
BRANCH  15  18
ATOM     18  C   UNL d   1      28.314 -12.826  -0.149  0.00  0.00    -0.029 A 
ATOM     19  C   UNL d   1      26.974 -13.000   0.219  0.00  0.00     0.012 A 
ATOM     20  C   UNL d   1      26.642 -13.355   1.536  0.00  0.00     0.037 A 
ATOM     21  C   UNL d   1      27.640 -13.625   2.480  0.00  0.00     0.068 A 
ATOM     22  C   UNL d   1      28.969 -13.468   2.115  0.00  0.00     0.037 A 
ATOM     23  C   UNL d   1      29.296 -13.077   0.824  0.00  0.00     0.012 A 
BRANCH  21  24
ATOM     24  O   UNL d   1      27.225 -14.050   3.714  0.00  0.00    -0.352 OA
BRANCH  24  25
ATOM     25  C   UNL d   1      28.169 -14.850   4.435  0.00  0.00     0.171 C 
ATOM     26  C   UNL d   1      28.350 -14.271   5.822  0.00  0.00     0.034 C 
ENDBRANCH  24  25
ENDBRANCH  21  24
ENDBRANCH  15  18
ENDBRANCH  14  15
ENDBRANCH  13  14
ENDBRANCH  10  13
ENDBRANCH   8   9
ENDBRANCH   3   7
BRANCH   1  27
ATOM     27  C   UNL d   1      28.657 -16.410  -1.264  0.00  0.00     0.068 C 
BRANCH  27  28
ATOM     28  C   UNL d   1      27.799 -16.293  -0.051  0.00  0.00    -0.032 C 
ATOM     29  C   UNL d   1      27.419 -17.400   0.602  0.00  0.00     0.007 C 
ENDBRANCH  27  28
ENDBRANCH   1  27
BRANCH   5  30
ATOM     30  O   UNL d   1      25.144 -14.284  -4.278  0.00  0.00    -0.349 OA
BRANCH  30  31
ATOM     31  C   UNL d   1      25.122 -12.897  -3.987  0.00  0.00     0.171 C 
ATOM     32  C   UNL d   1      25.887 -12.087  -5.001  0.00  0.00     0.034 C 
ENDBRANCH  30  31
ENDBRANCH   5  30
BRANCH   6  33
ATOM     33  O   UNL d   1      25.792 -15.287  -1.709  0.00  0.00    -0.343 OA
BRANCH  33  34
ATOM     34  C   UNL d   1      24.439 -15.510  -1.984  0.00  0.00     0.214 C 
BRANCH  34  35
ATOM     35  C   UNL d   1      23.878 -16.710  -1.314  0.00  0.00    -0.034 A 
ATOM     36  C   UNL d   1      22.557 -16.776  -0.894  0.00  0.00     0.009 A 
ATOM     37  C   UNL d   1      22.162 -17.805  -0.063  0.00  0.00     0.001 A 
ATOM     38  C   UNL d   1      23.054 -18.837   0.226  0.00  0.00     0.000 A 
ATOM     39  C   UNL d   1      24.357 -18.816  -0.267  0.00  0.00     0.001 A 
ATOM     40  C   UNL d   1      24.776 -17.746  -1.034  0.00  0.00     0.009 A 
ENDBRANCH  34  35
ENDBRANCH  33  34
ENDBRANCH   6  33
TORSDOF 16
ENDMDL
