MODEL 1
REMARK VINA RESULT:   -11.309      0.000      0.000
REMARK INTER + INTRA:         -15.362
REMARK INTER:                 -14.292
REMARK INTRA:                  -1.070
REMARK CONF_INDEPENDENT:        2.983
REMARK UNBOUND:                -1.070
REMARK  10 active torsions:
REMARK  status: ('A' for Active; 'I' for Inactive)
REMARK    1  A    between atoms: C_2  and  C_26 
REMARK    2  A    between atoms: N_3  and  N_4 
REMARK    3  A    between atoms: N_4  and  C_5 
REMARK    4  A    between atoms: C_7  and  S_8 
REMARK    5  A    between atoms: S_8  and  C_9 
REMARK    6  A    between atoms: C_9  and  C_10 
REMARK    7  A    between atoms: C_10  and  C_11 
REMARK       I    between atoms: C_11  and  N_13 
REMARK    8  A    between atoms: N_13  and  C_14 
REMARK    9  A    between atoms: C_17  and  S_18 
REMARK   10  A    between atoms: S_18  and  N_19 
ROOT
ATOM      1  C   UNL d   1      30.141 -14.463   2.606  0.00  0.00     0.739 A 
ATOM      2  N   UNL d   1      30.189 -15.197   1.510  0.00  0.00    -0.034 NA
ATOM      3  C   UNL d   1      31.481 -15.654   1.466  0.00  0.00     0.226 A 
ATOM      4  N   UNL d   1      32.244 -15.264   2.495  0.00  0.00    -0.132 NA
ATOM      5  N   UNL d   1      31.378 -14.516   3.200  0.00  0.00    -0.103 N 
ATOM      6  H   UNL d   1      31.673 -14.128   4.087  0.00  0.00     0.208 HD
ENDROOT
BRANCH   3   7
ATOM      7  S   UNL d   1      32.162 -16.674   0.208  0.00  0.00    -0.087 SA
BRANCH   7   8
ATOM      8  C   UNL d   1      30.713 -17.121  -0.801  0.00  0.00     0.092 C 
BRANCH   8   9
ATOM      9  C   UNL d   1      29.922 -15.873  -1.264  0.00  0.00     0.113 C 
BRANCH   9  10
ATOM     10  C   UNL d   1      28.458 -16.237  -1.515  0.00  0.00     0.222 C 
ATOM     11  O   UNL d   1      28.040 -16.395  -2.661  0.00  0.00    -0.273 OA
ATOM     12  N   UNL d   1      27.651 -16.346  -0.380  0.00  0.00    -0.327 N 
ATOM     13  H   UNL d   1      27.982 -15.954   0.494  0.00  0.00     0.169 HD
BRANCH  12  14
ATOM     14  C   UNL d   1      26.291 -16.760  -0.442  0.00  0.00     0.034 A 
ATOM     15  C   UNL d   1      25.302 -15.919  -0.976  0.00  0.00     0.031 A 
ATOM     16  C   UNL d   1      23.961 -16.347  -1.046  0.00  0.00     0.027 A 
ATOM     17  C   UNL d   1      23.612 -17.617  -0.569  0.00  0.00     0.079 A 
ATOM     18  C   UNL d   1      24.575 -18.439   0.005  0.00  0.00     0.027 A 
ATOM     19  C   UNL d   1      25.904 -18.012   0.057  0.00  0.00     0.031 A 
BRANCH  17  20
ATOM     20  S   UNL d   1      21.962 -18.233  -0.799  0.00  0.00     0.256 S 
ATOM     21  O   UNL d   1      21.077 -17.108  -0.916  0.00  0.00    -0.201 OA
ATOM     22  O   UNL d   1      22.002 -19.311  -1.773  0.00  0.00    -0.201 OA
BRANCH  20  23
ATOM     23  N   UNL d   1      21.671 -18.950   0.668  0.00  0.00    -0.324 N 
ATOM     24  H   UNL d   1      21.002 -18.500   1.283  0.00  0.00     0.169 HD
ATOM     25  H   UNL d   1      22.316 -19.667   0.980  0.00  0.00     0.169 HD
ENDBRANCH  20  23
ENDBRANCH  17  20
ENDBRANCH  12  14
ENDBRANCH   9  10
ENDBRANCH   8   9
ENDBRANCH   7   8
ENDBRANCH   3   7
BRANCH   1  26
ATOM     26  N   UNL d   1      29.123 -13.749   3.174  0.00  0.00    -0.106 N 
ATOM     27  H   UNL d   1      28.394 -13.418   2.547  0.00  0.00     0.208 HD
BRANCH  26  28
ATOM     28  N   UNL d   1      28.910 -13.728   4.532  0.00  0.00    -0.164 NA
ATOM     29  C   UNL d   1      29.344 -12.762   5.305  0.00  0.00     0.061 C 
ATOM     30  C   UNL d   1      30.132 -11.560   4.825  0.00  0.00     0.073 C 
BRANCH  29  31
ATOM     31  C   UNL d   1      29.050 -12.857   6.807  0.00  0.00    -0.009 C 
ATOM     32  C   UNL d   1      28.705 -11.667   7.452  0.00  0.00     0.014 C 
ATOM     33  C   UNL d   1      28.532 -11.645   8.837  0.00  0.00     0.013 C 
ATOM     34  C   UNL d   1      28.632 -12.809   9.609  0.00  0.00    -0.029 C 
ATOM     35  C   UNL d   1      28.265 -12.759  10.956  0.00  0.00    -0.005 C 
ATOM     36  C   UNL d   1      29.069 -14.027   9.055  0.00  0.00    -0.026 C 
ATOM     37  C   UNL d   1      28.155 -13.925  11.686  0.00  0.00     0.043 C 
ATOM     38  C   UNL d   1      29.142 -14.828  11.407  0.00  0.00    -0.016 C 
ATOM     39  C   UNL d   1      29.392 -15.047  10.043  0.00  0.00     0.009 C 
ATOM     40  C   UNL d   1      29.215 -14.033   7.604  0.00  0.00     0.025 C 
ENDBRANCH  29  31
ENDBRANCH  26  28
ENDBRANCH   1  26
TORSDOF 10
ENDMDL
MODEL 2
REMARK VINA RESULT:   -10.928      1.585      2.195
REMARK INTER + INTRA:         -15.593
REMARK INTER:                 -13.911
REMARK INTRA:                  -1.682
REMARK CONF_INDEPENDENT:        2.983
REMARK UNBOUND:                -1.682
REMARK  10 active torsions:
REMARK  status: ('A' for Active; 'I' for Inactive)
REMARK    1  A    between atoms: C_2  and  C_26 
REMARK    2  A    between atoms: N_3  and  N_4 
REMARK    3  A    between atoms: N_4  and  C_5 
REMARK    4  A    between atoms: C_7  and  S_8 
REMARK    5  A    between atoms: S_8  and  C_9 
REMARK    6  A    between atoms: C_9  and  C_10 
REMARK    7  A    between atoms: C_10  and  C_11 
REMARK       I    between atoms: C_11  and  N_13 
REMARK    8  A    between atoms: N_13  and  C_14 
REMARK    9  A    between atoms: C_17  and  S_18 
REMARK   10  A    between atoms: S_18  and  N_19 
ROOT
ATOM      1  C   UNL d   1      29.572 -14.559   3.642  0.00  0.00     0.739 A 
ATOM      2  N   UNL d   1      28.996 -14.486   2.457  0.00  0.00    -0.034 NA
ATOM      3  C   UNL d   1      29.866 -13.741   1.704  0.00  0.00     0.226 A 
ATOM      4  N   UNL d   1      30.975 -13.360   2.351  0.00  0.00    -0.132 NA
ATOM      5  N   UNL d   1      30.768 -13.889   3.569  0.00  0.00    -0.103 N 
ATOM      6  H   UNL d   1      31.493 -13.807   4.271  0.00  0.00     0.208 HD
ENDROOT
BRANCH   3   7
ATOM      7  S   UNL d   1      29.630 -13.280   0.025  0.00  0.00    -0.087 SA
BRANCH   7   8
ATOM      8  C   UNL d   1      30.351 -14.674  -0.898  0.00  0.00     0.092 C 
BRANCH   8   9
ATOM      9  C   UNL d   1      30.005 -16.038  -0.253  0.00  0.00     0.113 C 
BRANCH   9  10
ATOM     10  C   UNL d   1      28.608 -16.488  -0.682  0.00  0.00     0.222 C 
ATOM     11  O   UNL d   1      28.426 -16.996  -1.787  0.00  0.00    -0.273 OA
ATOM     12  N   UNL d   1      27.583 -16.259   0.238  0.00  0.00    -0.327 N 
ATOM     13  H   UNL d   1      27.746 -15.612   1.001  0.00  0.00     0.169 HD
BRANCH  12  14
ATOM     14  C   UNL d   1      26.245 -16.696   0.022  0.00  0.00     0.034 A 
ATOM     15  C   UNL d   1      25.308 -15.869  -0.617  0.00  0.00     0.031 A 
ATOM     16  C   UNL d   1      23.992 -16.320  -0.839  0.00  0.00     0.027 A 
ATOM     17  C   UNL d   1      23.613 -17.598  -0.410  0.00  0.00     0.079 A 
ATOM     18  C   UNL d   1      24.520 -18.407   0.266  0.00  0.00     0.027 A 
ATOM     19  C   UNL d   1      25.827 -17.957   0.469  0.00  0.00     0.031 A 
BRANCH  17  20
ATOM     20  S   UNL d   1      22.011 -18.242  -0.827  0.00  0.00     0.256 S 
ATOM     21  O   UNL d   1      21.130 -17.131  -1.055  0.00  0.00    -0.201 OA
ATOM     22  O   UNL d   1      22.181 -19.325  -1.781  0.00  0.00    -0.201 OA
BRANCH  20  23
ATOM     23  N   UNL d   1      21.561 -18.955   0.602  0.00  0.00    -0.324 N 
ATOM     24  H   UNL d   1      21.064 -18.381   1.274  0.00  0.00     0.169 HD
ATOM     25  H   UNL d   1      21.980 -19.847   0.837  0.00  0.00     0.169 HD
ENDBRANCH  20  23
ENDBRANCH  17  20
ENDBRANCH  12  14
ENDBRANCH   9  10
ENDBRANCH   8   9
ENDBRANCH   7   8
ENDBRANCH   3   7
BRANCH   1  26
ATOM     26  N   UNL d   1      29.181 -15.167   4.803  0.00  0.00    -0.106 N 
ATOM     27  H   UNL d   1      28.907 -16.144   4.735  0.00  0.00     0.208 HD
BRANCH  26  28
ATOM     28  N   UNL d   1      29.426 -14.616   6.039  0.00  0.00    -0.164 NA
ATOM     29  C   UNL d   1      28.726 -13.620   6.524  0.00  0.00     0.061 C 
ATOM     30  C   UNL d   1      27.577 -12.941   5.806  0.00  0.00     0.073 C 
BRANCH  29  31
ATOM     31  C   UNL d   1      29.102 -13.087   7.912  0.00  0.00    -0.009 C 
ATOM     32  C   UNL d   1      28.532 -13.740   9.007  0.00  0.00     0.014 C 
ATOM     33  C   UNL d   1      28.732 -13.250  10.298  0.00  0.00     0.013 C 
ATOM     34  C   UNL d   1      29.552 -12.141  10.544  0.00  0.00    -0.029 C 
ATOM     35  C   UNL d   1      29.863 -11.813  11.866  0.00  0.00    -0.005 C 
ATOM     36  C   UNL d   1      30.083 -11.369   9.495  0.00  0.00    -0.026 C 
ATOM     37  C   UNL d   1      30.826 -10.861  12.133  0.00  0.00     0.043 C 
ATOM     38  C   UNL d   1      30.771  -9.789  11.287  0.00  0.00    -0.016 C 
ATOM     39  C   UNL d   1      30.661 -10.102   9.923  0.00  0.00     0.009 C 
ATOM     40  C   UNL d   1      29.886 -11.917   8.158  0.00  0.00     0.025 C 
ENDBRANCH  29  31
ENDBRANCH  26  28
ENDBRANCH   1  26
TORSDOF 10
ENDMDL
MODEL 3
REMARK VINA RESULT:   -10.790      5.828     10.034
REMARK INTER + INTRA:         -15.549
REMARK INTER:                 -13.773
REMARK INTRA:                  -1.776
REMARK CONF_INDEPENDENT:        2.983
REMARK UNBOUND:                -1.776
REMARK  10 active torsions:
REMARK  status: ('A' for Active; 'I' for Inactive)
REMARK    1  A    between atoms: C_2  and  C_26 
REMARK    2  A    between atoms: N_3  and  N_4 
REMARK    3  A    between atoms: N_4  and  C_5 
REMARK    4  A    between atoms: C_7  and  S_8 
REMARK    5  A    between atoms: S_8  and  C_9 
REMARK    6  A    between atoms: C_9  and  C_10 
REMARK    7  A    between atoms: C_10  and  C_11 
REMARK       I    between atoms: C_11  and  N_13 
REMARK    8  A    between atoms: N_13  and  C_14 
REMARK    9  A    between atoms: C_17  and  S_18 
REMARK   10  A    between atoms: S_18  and  N_19 
ROOT
ATOM      1  C   UNL d   1      29.220 -16.319  -0.241  0.00  0.00     0.739 A 
ATOM      2  N   UNL d   1      28.324 -15.648  -0.941  0.00  0.00    -0.034 NA
ATOM      3  C   UNL d   1      27.917 -14.647  -0.098  0.00  0.00     0.226 A 
ATOM      4  N   UNL d   1      28.531 -14.639   1.092  0.00  0.00    -0.132 NA
ATOM      5  N   UNL d   1      29.348 -15.699   0.978  0.00  0.00    -0.103 N 
ATOM      6  H   UNL d   1      29.995 -15.906   1.729  0.00  0.00     0.208 HD
ENDROOT
BRANCH   3   7
ATOM      7  S   UNL d   1      26.703 -13.431  -0.466  0.00  0.00    -0.087 SA
BRANCH   7   8
ATOM      8  C   UNL d   1      27.016 -13.041  -2.217  0.00  0.00     0.092 C 
BRANCH   8   9
ATOM      9  C   UNL d   1      26.707 -14.243  -3.143  0.00  0.00     0.113 C 
BRANCH   9  10
ATOM     10  C   UNL d   1      25.358 -14.861  -2.775  0.00  0.00     0.222 C 
ATOM     11  O   UNL d   1      24.311 -14.387  -3.215  0.00  0.00    -0.273 OA
ATOM     12  N   UNL d   1      25.402 -15.954  -1.906  0.00  0.00    -0.327 N 
ATOM     13  H   UNL d   1      26.252 -16.127  -1.381  0.00  0.00     0.169 HD
BRANCH  12  14
ATOM     14  C   UNL d   1      24.240 -16.690  -1.538  0.00  0.00     0.034 A 
ATOM     15  C   UNL d   1      23.033 -16.037  -1.246  0.00  0.00     0.031 A 
ATOM     16  C   UNL d   1      21.886 -16.777  -0.898  0.00  0.00     0.027 A 
ATOM     17  C   UNL d   1      21.955 -18.174  -0.833  0.00  0.00     0.079 A 
ATOM     18  C   UNL d   1      23.158 -18.829  -1.073  0.00  0.00     0.027 A 
ATOM     19  C   UNL d   1      24.286 -18.086  -1.432  0.00  0.00     0.031 A 
BRANCH  17  20
ATOM     20  S   UNL d   1      20.482 -19.129  -0.557  0.00  0.00     0.256 S 
ATOM     21  O   UNL d   1      19.437 -18.230  -0.153  0.00  0.00    -0.201 OA
ATOM     22  O   UNL d   1      20.332 -20.075  -1.650  0.00  0.00    -0.201 OA
BRANCH  20  23
ATOM     23  N   UNL d   1      20.915 -20.025   0.770  0.00  0.00    -0.324 N 
ATOM     24  H   UNL d   1      21.464 -20.862   0.609  0.00  0.00     0.169 HD
ATOM     25  H   UNL d   1      20.443 -19.831   1.646  0.00  0.00     0.169 HD
ENDBRANCH  20  23
ENDBRANCH  17  20
ENDBRANCH  12  14
ENDBRANCH   9  10
ENDBRANCH   8   9
ENDBRANCH   7   8
ENDBRANCH   3   7
BRANCH   1  26
ATOM     26  N   UNL d   1      29.969 -17.420  -0.548  0.00  0.00    -0.106 N 
ATOM     27  H   UNL d   1      30.278 -17.993   0.234  0.00  0.00     0.208 HD
BRANCH  26  28
ATOM     28  N   UNL d   1      30.056 -17.917  -1.827  0.00  0.00    -0.164 NA
ATOM     29  C   UNL d   1      30.730 -17.317  -2.778  0.00  0.00     0.061 C 
ATOM     30  C   UNL d   1      31.486 -16.014  -2.612  0.00  0.00     0.073 C 
BRANCH  29  31
ATOM     31  C   UNL d   1      30.744 -17.966  -4.168  0.00  0.00    -0.009 C 
ATOM     32  C   UNL d   1      30.424 -19.324  -4.226  0.00  0.00     0.014 C 
ATOM     33  C   UNL d   1      30.522 -20.017  -5.433  0.00  0.00     0.013 C 
ATOM     34  C   UNL d   1      30.877 -19.371  -6.624  0.00  0.00    -0.029 C 
ATOM     35  C   UNL d   1      30.776 -20.073  -7.828  0.00  0.00    -0.005 C 
ATOM     36  C   UNL d   1      31.307 -18.031  -6.637  0.00  0.00    -0.026 C 
ATOM     37  C   UNL d   1      30.917 -19.409  -9.029  0.00  0.00     0.043 C 
ATOM     38  C   UNL d   1      31.909 -18.469  -9.009  0.00  0.00    -0.016 C 
ATOM     39  C   UNL d   1      31.908 -17.612  -7.896  0.00  0.00     0.009 C 
ATOM     40  C   UNL d   1      31.167 -17.321  -5.372  0.00  0.00     0.025 C 
ENDBRANCH  29  31
ENDBRANCH  26  28
ENDBRANCH   1  26
TORSDOF 10
ENDMDL
MODEL 4
REMARK VINA RESULT:   -10.245      5.099      9.670
REMARK INTER + INTRA:         -15.111
REMARK INTER:                 -13.228
REMARK INTRA:                  -1.883
REMARK CONF_INDEPENDENT:        2.983
REMARK UNBOUND:                -1.883
REMARK  10 active torsions:
REMARK  status: ('A' for Active; 'I' for Inactive)
REMARK    1  A    between atoms: C_2  and  C_26 
REMARK    2  A    between atoms: N_3  and  N_4 
REMARK    3  A    between atoms: N_4  and  C_5 
REMARK    4  A    between atoms: C_7  and  S_8 
REMARK    5  A    between atoms: S_8  and  C_9 
REMARK    6  A    between atoms: C_9  and  C_10 
REMARK    7  A    between atoms: C_10  and  C_11 
REMARK       I    between atoms: C_11  and  N_13 
REMARK    8  A    between atoms: N_13  and  C_14 
REMARK    9  A    between atoms: C_17  and  S_18 
REMARK   10  A    between atoms: S_18  and  N_19 
ROOT
ATOM      1  C   UNL d   1      25.385 -15.194  -2.379  0.00  0.00     0.739 A 
ATOM      2  N   UNL d   1      25.882 -14.031  -2.756  0.00  0.00    -0.034 NA
ATOM      3  C   UNL d   1      26.088 -14.173  -4.104  0.00  0.00     0.226 A 
ATOM      4  N   UNL d   1      25.721 -15.361  -4.600  0.00  0.00    -0.132 NA
ATOM      5  N   UNL d   1      25.279 -15.987  -3.495  0.00  0.00    -0.103 N 
ATOM      6  H   UNL d   1      24.875 -16.910  -3.581  0.00  0.00     0.208 HD
ENDROOT
BRANCH   3   7
ATOM      7  S   UNL d   1      26.765 -12.950  -5.169  0.00  0.00    -0.087 SA
BRANCH   7   8
ATOM      8  C   UNL d   1      28.282 -12.434  -4.304  0.00  0.00     0.092 C 
BRANCH   8   9
ATOM      9  C   UNL d   1      29.043 -13.639  -3.697  0.00  0.00     0.113 C 
BRANCH   9  10
ATOM     10  C   UNL d   1      29.181 -13.470  -2.184  0.00  0.00     0.222 C 
ATOM     11  O   UNL d   1      30.092 -12.793  -1.710  0.00  0.00    -0.273 OA
ATOM     12  N   UNL d   1      28.238 -14.145  -1.405  0.00  0.00    -0.327 N 
ATOM     13  H   UNL d   1      27.689 -14.881  -1.832  0.00  0.00     0.169 HD
BRANCH  12  14
ATOM     14  C   UNL d   1      28.182 -14.019   0.012  0.00  0.00     0.034 A 
ATOM     15  C   UNL d   1      27.093 -13.394   0.640  0.00  0.00     0.031 A 
ATOM     16  C   UNL d   1      27.041 -13.290   2.044  0.00  0.00     0.027 A 
ATOM     17  C   UNL d   1      28.088 -13.807   2.818  0.00  0.00     0.079 A 
ATOM     18  C   UNL d   1      29.193 -14.386   2.204  0.00  0.00     0.027 A 
ATOM     19  C   UNL d   1      29.229 -14.497   0.812  0.00  0.00     0.031 A 
BRANCH  17  20
ATOM     20  S   UNL d   1      27.961 -13.831   4.590  0.00  0.00     0.256 S 
ATOM     21  O   UNL d   1      28.720 -12.726   5.106  0.00  0.00    -0.201 OA
ATOM     22  O   UNL d   1      26.574 -14.075   4.951  0.00  0.00    -0.201 OA
BRANCH  20  23
ATOM     23  N   UNL d   1      28.784 -15.223   4.959  0.00  0.00    -0.324 N 
ATOM     24  H   UNL d   1      29.037 -15.371   5.930  0.00  0.00     0.169 HD
ATOM     25  H   UNL d   1      29.186 -15.751   4.194  0.00  0.00     0.169 HD
ENDBRANCH  20  23
ENDBRANCH  17  20
ENDBRANCH  12  14
ENDBRANCH   9  10
ENDBRANCH   8   9
ENDBRANCH   7   8
ENDBRANCH   3   7
BRANCH   1  26
ATOM     26  N   UNL d   1      24.985 -15.654  -1.155  0.00  0.00    -0.106 N 
ATOM     27  H   UNL d   1      25.411 -15.215  -0.343  0.00  0.00     0.208 HD
BRANCH  26  28
ATOM     28  N   UNL d   1      23.865 -16.435  -0.994  0.00  0.00    -0.164 NA
ATOM     29  C   UNL d   1      23.883 -17.580  -0.357  0.00  0.00     0.061 C 
ATOM     30  C   UNL d   1      25.114 -18.199   0.274  0.00  0.00     0.073 C 
BRANCH  29  31
ATOM     31  C   UNL d   1      22.569 -18.364  -0.252  0.00  0.00    -0.009 C 
ATOM     32  C   UNL d   1      21.952 -18.712  -1.455  0.00  0.00     0.014 C 
ATOM     33  C   UNL d   1      20.699 -19.327  -1.449  0.00  0.00     0.013 C 
ATOM     34  C   UNL d   1      20.055 -19.670  -0.253  0.00  0.00    -0.029 C 
ATOM     35  C   UNL d   1      18.896 -20.449  -0.311  0.00  0.00    -0.005 C 
ATOM     36  C   UNL d   1      20.560 -19.270   0.998  0.00  0.00    -0.026 C 
ATOM     37  C   UNL d   1      18.359 -20.973   0.847  0.00  0.00     0.043 C 
ATOM     38  C   UNL d   1      18.398 -20.104   1.900  0.00  0.00    -0.016 C 
ATOM     39  C   UNL d   1      19.627 -19.455   2.102  0.00  0.00     0.009 C 
ATOM     40  C   UNL d   1      21.882 -18.657   0.968  0.00  0.00     0.025 C 
ENDBRANCH  29  31
ENDBRANCH  26  28
ENDBRANCH   1  26
TORSDOF 10
ENDMDL
MODEL 5
REMARK VINA RESULT:   -10.192      2.017      2.304
REMARK INTER + INTRA:         -15.097
REMARK INTER:                 -13.175
REMARK INTRA:                  -1.922
REMARK CONF_INDEPENDENT:        2.983
REMARK UNBOUND:                -1.922
REMARK  10 active torsions:
REMARK  status: ('A' for Active; 'I' for Inactive)
REMARK    1  A    between atoms: C_2  and  C_26 
REMARK    2  A    between atoms: N_3  and  N_4 
REMARK    3  A    between atoms: N_4  and  C_5 
REMARK    4  A    between atoms: C_7  and  S_8 
REMARK    5  A    between atoms: S_8  and  C_9 
REMARK    6  A    between atoms: C_9  and  C_10 
REMARK    7  A    between atoms: C_10  and  C_11 
REMARK       I    between atoms: C_11  and  N_13 
REMARK    8  A    between atoms: N_13  and  C_14 
REMARK    9  A    between atoms: C_17  and  S_18 
REMARK   10  A    between atoms: S_18  and  N_19 
ROOT
ATOM      1  C   UNL d   1      28.026 -14.134   1.656  0.00  0.00     0.739 A 
ATOM      2  N   UNL d   1      28.263 -14.275   0.366  0.00  0.00    -0.034 NA
ATOM      3  C   UNL d   1      27.999 -13.039  -0.164  0.00  0.00     0.226 A 
ATOM      4  N   UNL d   1      27.629 -12.117   0.734  0.00  0.00    -0.132 NA
ATOM      5  N   UNL d   1      27.655 -12.829   1.874  0.00  0.00    -0.103 N 
ATOM      6  H   UNL d   1      27.470 -12.360   2.751  0.00  0.00     0.208 HD
ENDROOT
BRANCH   3   7
ATOM      7  S   UNL d   1      28.113 -12.609  -1.864  0.00  0.00    -0.087 SA
BRANCH   7   8
ATOM      8  C   UNL d   1      29.582 -13.525  -2.431  0.00  0.00     0.092 C 
BRANCH   8   9
ATOM      9  C   UNL d   1      29.207 -14.700  -3.367  0.00  0.00     0.113 C 
BRANCH   9  10
ATOM     10  C   UNL d   1      27.748 -15.103  -3.152  0.00  0.00     0.222 C 
ATOM     11  O   UNL d   1      26.891 -14.820  -3.988  0.00  0.00    -0.273 OA
ATOM     12  N   UNL d   1      27.467 -15.772  -1.959  0.00  0.00    -0.327 N 
ATOM     13  H   UNL d   1      28.149 -15.741  -1.209  0.00  0.00     0.169 HD
BRANCH  12  14
ATOM     14  C   UNL d   1      26.176 -16.287  -1.652  0.00  0.00     0.034 A 
ATOM     15  C   UNL d   1      25.014 -15.612  -2.057  0.00  0.00     0.031 A 
ATOM     16  C   UNL d   1      23.741 -16.140  -1.761  0.00  0.00     0.027 A 
ATOM     17  C   UNL d   1      23.636 -17.341  -1.048  0.00  0.00     0.079 A 
ATOM     18  C   UNL d   1      24.781 -17.993  -0.601  0.00  0.00     0.027 A 
ATOM     19  C   UNL d   1      26.038 -17.469  -0.913  0.00  0.00     0.031 A 
BRANCH  17  20
ATOM     20  S   UNL d   1      22.049 -18.102  -0.810  0.00  0.00     0.256 S 
ATOM     21  O   UNL d   1      21.046 -17.079  -0.902  0.00  0.00    -0.201 OA
ATOM     22  O   UNL d   1      22.002 -19.328  -1.590  0.00  0.00    -0.201 OA
BRANCH  20  23
ATOM     23  N   UNL d   1      22.145 -18.572   0.778  0.00  0.00    -0.324 N 
ATOM     24  H   UNL d   1      22.450 -19.521   0.967  0.00  0.00     0.169 HD
ATOM     25  H   UNL d   1      21.697 -17.985   1.472  0.00  0.00     0.169 HD
ENDBRANCH  20  23
ENDBRANCH  17  20
ENDBRANCH  12  14
ENDBRANCH   9  10
ENDBRANCH   8   9
ENDBRANCH   7   8
ENDBRANCH   3   7
BRANCH   1  26
ATOM     26  N   UNL d   1      28.111 -15.019   2.695  0.00  0.00    -0.106 N 
ATOM     27  H   UNL d   1      28.473 -15.943   2.477  0.00  0.00     0.208 HD
BRANCH  26  28
ATOM     28  N   UNL d   1      28.014 -14.621   4.008  0.00  0.00    -0.164 NA
ATOM     29  C   UNL d   1      28.976 -13.986   4.631  0.00  0.00     0.061 C 
ATOM     30  C   UNL d   1      30.309 -13.615   4.013  0.00  0.00     0.073 C 
BRANCH  29  31
ATOM     31  C   UNL d   1      28.751 -13.603   6.099  0.00  0.00    -0.009 C 
ATOM     32  C   UNL d   1      28.418 -12.271   6.353  0.00  0.00     0.014 C 
ATOM     33  C   UNL d   1      28.306 -11.814   7.667  0.00  0.00     0.013 C 
ATOM     34  C   UNL d   1      28.458 -12.676   8.760  0.00  0.00    -0.029 C 
ATOM     35  C   UNL d   1      28.150 -12.204  10.039  0.00  0.00    -0.005 C 
ATOM     36  C   UNL d   1      28.888 -14.006   8.597  0.00  0.00    -0.026 C 
ATOM     37  C   UNL d   1      28.091 -13.080  11.103  0.00  0.00     0.043 C 
ATOM     38  C   UNL d   1      29.078 -14.025  11.076  0.00  0.00    -0.016 C 
ATOM     39  C   UNL d   1      29.270 -14.663   9.840  0.00  0.00     0.009 C 
ATOM     40  C   UNL d   1      28.969 -14.468   7.217  0.00  0.00     0.025 C 
ENDBRANCH  29  31
ENDBRANCH  26  28
ENDBRANCH   1  26
TORSDOF 10
ENDMDL
MODEL 6
REMARK VINA RESULT:    -9.961      3.068      5.898
REMARK INTER + INTRA:         -14.750
REMARK INTER:                 -12.944
REMARK INTRA:                  -1.806
REMARK CONF_INDEPENDENT:        2.983
REMARK UNBOUND:                -1.806
REMARK  10 active torsions:
REMARK  status: ('A' for Active; 'I' for Inactive)
REMARK    1  A    between atoms: C_2  and  C_26 
REMARK    2  A    between atoms: N_3  and  N_4 
REMARK    3  A    between atoms: N_4  and  C_5 
REMARK    4  A    between atoms: C_7  and  S_8 
REMARK    5  A    between atoms: S_8  and  C_9 
REMARK    6  A    between atoms: C_9  and  C_10 
REMARK    7  A    between atoms: C_10  and  C_11 
REMARK       I    between atoms: C_11  and  N_13 
REMARK    8  A    between atoms: N_13  and  C_14 
REMARK    9  A    between atoms: C_17  and  S_18 
REMARK   10  A    between atoms: S_18  and  N_19 
ROOT
ATOM      1  C   UNL d   1      27.592 -16.404   0.539  0.00  0.00     0.739 A 
ATOM      2  N   UNL d   1      26.276 -16.489   0.532  0.00  0.00    -0.034 NA
ATOM      3  C   UNL d   1      26.023 -17.792   0.186  0.00  0.00     0.226 A 
ATOM      4  N   UNL d   1      27.118 -18.539  -0.001  0.00  0.00    -0.132 NA
ATOM      5  N   UNL d   1      28.094 -17.645   0.229  0.00  0.00    -0.103 N 
ATOM      6  H   UNL d   1      29.058 -17.954   0.215  0.00  0.00     0.208 HD
ENDROOT
BRANCH   3   7
ATOM      7  S   UNL d   1      24.430 -18.507  -0.012  0.00  0.00    -0.087 SA
BRANCH   7   8
ATOM      8  C   UNL d   1      23.651 -17.452  -1.276  0.00  0.00     0.092 C 
BRANCH   8   9
ATOM      9  C   UNL d   1      24.053 -15.965  -1.118  0.00  0.00     0.113 C 
BRANCH   9  10
ATOM     10  C   UNL d   1      24.911 -15.520  -2.303  0.00  0.00     0.222 C 
ATOM     11  O   UNL d   1      24.430 -14.825  -3.198  0.00  0.00    -0.273 OA
ATOM     12  N   UNL d   1      26.232 -15.972  -2.306  0.00  0.00    -0.327 N 
ATOM     13  H   UNL d   1      26.487 -16.740  -1.695  0.00  0.00     0.169 HD
BRANCH  12  14
ATOM     14  C   UNL d   1      27.178 -15.575  -3.293  0.00  0.00     0.034 A 
ATOM     15  C   UNL d   1      28.550 -15.529  -3.003  0.00  0.00     0.031 A 
ATOM     16  C   UNL d   1      29.478 -15.150  -3.993  0.00  0.00     0.027 A 
ATOM     17  C   UNL d   1      29.026 -14.808  -5.274  0.00  0.00     0.079 A 
ATOM     18  C   UNL d   1      27.664 -14.805  -5.559  0.00  0.00     0.027 A 
ATOM     19  C   UNL d   1      26.754 -15.197  -4.574  0.00  0.00     0.031 A 
BRANCH  17  20
ATOM     20  S   UNL d   1      30.191 -14.489  -6.576  0.00  0.00     0.256 S 
ATOM     21  O   UNL d   1      31.198 -13.602  -6.066  0.00  0.00    -0.201 OA
ATOM     22  O   UNL d   1      30.504 -15.745  -7.236  0.00  0.00    -0.201 OA
BRANCH  20  23
ATOM     23  N   UNL d   1      29.260 -13.628  -7.646  0.00  0.00    -0.324 N 
ATOM     24  H   UNL d   1      28.916 -12.723  -7.343  0.00  0.00     0.169 HD
ATOM     25  H   UNL d   1      28.895 -14.118  -8.455  0.00  0.00     0.169 HD
ENDBRANCH  20  23
ENDBRANCH  17  20
ENDBRANCH  12  14
ENDBRANCH   9  10
ENDBRANCH   8   9
ENDBRANCH   7   8
ENDBRANCH   3   7
BRANCH   1  26
ATOM     26  N   UNL d   1      28.431 -15.358   0.807  0.00  0.00    -0.106 N 
ATOM     27  H   UNL d   1      28.819 -14.870   0.004  0.00  0.00     0.208 HD
BRANCH  26  28
ATOM     28  N   UNL d   1      28.518 -14.787   2.055  0.00  0.00    -0.164 NA
ATOM     29  C   UNL d   1      27.691 -13.860   2.472  0.00  0.00     0.061 C 
ATOM     30  C   UNL d   1      26.550 -13.290   1.655  0.00  0.00     0.073 C 
BRANCH  29  31
ATOM     31  C   UNL d   1      27.898 -13.295   3.883  0.00  0.00    -0.009 C 
ATOM     32  C   UNL d   1      27.901 -11.904   4.004  0.00  0.00     0.014 C 
ATOM     33  C   UNL d   1      28.194 -11.308   5.231  0.00  0.00     0.013 C 
ATOM     34  C   UNL d   1      28.428 -12.071   6.382  0.00  0.00    -0.029 C 
ATOM     35  C   UNL d   1      28.529 -11.420   7.614  0.00  0.00    -0.005 C 
ATOM     36  C   UNL d   1      28.538 -13.473   6.328  0.00  0.00    -0.026 C 
ATOM     37  C   UNL d   1      28.550 -12.153   8.783  0.00  0.00     0.043 C 
ATOM     38  C   UNL d   1      29.298 -13.293   8.688  0.00  0.00    -0.016 C 
ATOM     39  C   UNL d   1      29.065 -14.075   7.545  0.00  0.00     0.009 C 
ATOM     40  C   UNL d   1      28.198 -14.074   5.044  0.00  0.00     0.025 C 
ENDBRANCH  29  31
ENDBRANCH  26  28
ENDBRANCH   1  26
TORSDOF 10
ENDMDL
MODEL 7
REMARK VINA RESULT:    -9.701      6.423      8.206
REMARK INTER + INTRA:         -15.183
REMARK INTER:                 -12.684
REMARK INTRA:                  -2.499
REMARK CONF_INDEPENDENT:        2.983
REMARK UNBOUND:                -2.499
REMARK  10 active torsions:
REMARK  status: ('A' for Active; 'I' for Inactive)
REMARK    1  A    between atoms: C_2  and  C_26 
REMARK    2  A    between atoms: N_3  and  N_4 
REMARK    3  A    between atoms: N_4  and  C_5 
REMARK    4  A    between atoms: C_7  and  S_8 
REMARK    5  A    between atoms: S_8  and  C_9 
REMARK    6  A    between atoms: C_9  and  C_10 
REMARK    7  A    between atoms: C_10  and  C_11 
REMARK       I    between atoms: C_11  and  N_13 
REMARK    8  A    between atoms: N_13  and  C_14 
REMARK    9  A    between atoms: C_17  and  S_18 
REMARK   10  A    between atoms: S_18  and  N_19 
ROOT
ATOM      1  C   UNL d   1      31.089 -18.409  -1.638  0.00  0.00     0.739 A 
ATOM      2  N   UNL d   1      31.269 -19.362  -2.534  0.00  0.00    -0.034 NA
ATOM      3  C   UNL d   1      32.171 -18.829  -3.417  0.00  0.00     0.226 A 
ATOM      4  N   UNL d   1      32.588 -17.594  -3.109  0.00  0.00    -0.132 NA
ATOM      5  N   UNL d   1      31.894 -17.352  -1.983  0.00  0.00    -0.103 N 
ATOM      6  H   UNL d   1      32.058 -16.488  -1.481  0.00  0.00     0.208 HD
ENDROOT
BRANCH   3   7
ATOM      7  S   UNL d   1      32.787 -19.627  -4.856  0.00  0.00    -0.087 SA
BRANCH   7   8
ATOM      8  C   UNL d   1      33.193 -18.240  -5.965  0.00  0.00     0.092 C 
BRANCH   8   9
ATOM      9  C   UNL d   1      32.088 -18.001  -7.023  0.00  0.00     0.113 C 
BRANCH   9  10
ATOM     10  C   UNL d   1      30.785 -17.581  -6.343  0.00  0.00     0.222 C 
ATOM     11  O   UNL d   1      30.030 -18.425  -5.862  0.00  0.00    -0.273 OA
ATOM     12  N   UNL d   1      30.513 -16.212  -6.334  0.00  0.00    -0.327 N 
ATOM     13  H   UNL d   1      31.028 -15.607  -6.964  0.00  0.00     0.169 HD
BRANCH  12  14
ATOM     14  C   UNL d   1      29.384 -15.657  -5.667  0.00  0.00     0.034 A 
ATOM     15  C   UNL d   1      28.480 -14.824  -6.345  0.00  0.00     0.031 A 
ATOM     16  C   UNL d   1      27.359 -14.294  -5.678  0.00  0.00     0.027 A 
ATOM     17  C   UNL d   1      27.150 -14.592  -4.325  0.00  0.00     0.079 A 
ATOM     18  C   UNL d   1      28.065 -15.377  -3.632  0.00  0.00     0.027 A 
ATOM     19  C   UNL d   1      29.166 -15.910  -4.306  0.00  0.00     0.031 A 
BRANCH  17  20
ATOM     20  S   UNL d   1      25.659 -14.067  -3.515  0.00  0.00     0.256 S 
ATOM     21  O   UNL d   1      24.783 -15.201  -3.416  0.00  0.00    -0.201 OA
ATOM     22  O   UNL d   1      26.018 -13.244  -2.373  0.00  0.00    -0.201 OA
BRANCH  20  23
ATOM     23  N   UNL d   1      25.018 -13.034  -4.643  0.00  0.00    -0.324 N 
ATOM     24  H   UNL d   1      25.096 -13.300  -5.618  0.00  0.00     0.169 HD
ATOM     25  H   UNL d   1      24.775 -12.097  -4.341  0.00  0.00     0.169 HD
ENDBRANCH  20  23
ENDBRANCH  17  20
ENDBRANCH  12  14
ENDBRANCH   9  10
ENDBRANCH   8   9
ENDBRANCH   7   8
ENDBRANCH   3   7
BRANCH   1  26
ATOM     26  N   UNL d   1      30.303 -18.354  -0.520  0.00  0.00    -0.106 N 
ATOM     27  H   UNL d   1      30.779 -18.191   0.363  0.00  0.00     0.208 HD
BRANCH  26  28
ATOM     28  N   UNL d   1      28.937 -18.215  -0.589  0.00  0.00    -0.164 NA
ATOM     29  C   UNL d   1      28.329 -17.068  -0.410  0.00  0.00     0.061 C 
ATOM     30  C   UNL d   1      29.027 -15.759  -0.099  0.00  0.00     0.073 C 
BRANCH  29  31
ATOM     31  C   UNL d   1      26.798 -17.044  -0.504  0.00  0.00    -0.009 C 
ATOM     32  C   UNL d   1      26.193 -15.785  -0.516  0.00  0.00     0.014 C 
ATOM     33  C   UNL d   1      24.802 -15.675  -0.486  0.00  0.00     0.013 C 
ATOM     34  C   UNL d   1      23.975 -16.805  -0.508  0.00  0.00    -0.029 C 
ATOM     35  C   UNL d   1      22.598 -16.630  -0.666  0.00  0.00    -0.005 C 
ATOM     36  C   UNL d   1      24.501 -18.106  -0.398  0.00  0.00    -0.026 C 
ATOM     37  C   UNL d   1      21.785 -17.721  -0.898  0.00  0.00     0.043 C 
ATOM     38  C   UNL d   1      22.130 -18.815  -0.155  0.00  0.00    -0.016 C 
ATOM     39  C   UNL d   1      23.498 -19.132  -0.146  0.00  0.00     0.009 C 
ATOM     40  C   UNL d   1      25.954 -18.197  -0.461  0.00  0.00     0.025 C 
ENDBRANCH  29  31
ENDBRANCH  26  28
ENDBRANCH   1  26
TORSDOF 10
ENDMDL
MODEL 8
REMARK VINA RESULT:    -9.690      6.562     10.936
REMARK INTER + INTRA:         -15.006
REMARK INTER:                 -12.673
REMARK INTRA:                  -2.333
REMARK CONF_INDEPENDENT:        2.983
REMARK UNBOUND:                -2.333
REMARK  10 active torsions:
REMARK  status: ('A' for Active; 'I' for Inactive)
REMARK    1  A    between atoms: C_2  and  C_26 
REMARK    2  A    between atoms: N_3  and  N_4 
REMARK    3  A    between atoms: N_4  and  C_5 
REMARK    4  A    between atoms: C_7  and  S_8 
REMARK    5  A    between atoms: S_8  and  C_9 
REMARK    6  A    between atoms: C_9  and  C_10 
REMARK    7  A    between atoms: C_10  and  C_11 
REMARK       I    between atoms: C_11  and  N_13 
REMARK    8  A    between atoms: N_13  and  C_14 
REMARK    9  A    between atoms: C_17  and  S_18 
REMARK   10  A    between atoms: S_18  and  N_19 
ROOT
ATOM      1  C   UNL d   1      28.354 -17.491  -0.149  0.00  0.00     0.739 A 
ATOM      2  N   UNL d   1      27.343 -18.338  -0.138  0.00  0.00    -0.034 NA
ATOM      3  C   UNL d   1      26.289 -17.603   0.340  0.00  0.00     0.226 A 
ATOM      4  N   UNL d   1      26.581 -16.324   0.609  0.00  0.00    -0.132 NA
ATOM      5  N   UNL d   1      27.887 -16.276   0.291  0.00  0.00    -0.103 N 
ATOM      6  H   UNL d   1      28.373 -15.390   0.341  0.00  0.00     0.208 HD
ENDROOT
BRANCH   3   7
ATOM      7  S   UNL d   1      24.659 -18.203   0.605  0.00  0.00    -0.087 SA
BRANCH   7   8
ATOM      8  C   UNL d   1      23.818 -17.841  -0.969  0.00  0.00     0.092 C 
BRANCH   8   9
ATOM      9  C   UNL d   1      23.768 -16.322  -1.265  0.00  0.00     0.113 C 
BRANCH   9  10
ATOM     10  C   UNL d   1      24.933 -15.921  -2.170  0.00  0.00     0.222 C 
ATOM     11  O   UNL d   1      25.966 -16.588  -2.193  0.00  0.00    -0.273 OA
ATOM     12  N   UNL d   1      24.750 -14.759  -2.924  0.00  0.00    -0.327 N 
ATOM     13  H   UNL d   1      24.003 -14.124  -2.668  0.00  0.00     0.169 HD
BRANCH  12  14
ATOM     14  C   UNL d   1      25.705 -14.302  -3.875  0.00  0.00     0.034 A 
ATOM     15  C   UNL d   1      25.911 -12.930  -4.090  0.00  0.00     0.031 A 
ATOM     16  C   UNL d   1      26.871 -12.490  -5.023  0.00  0.00     0.027 A 
ATOM     17  C   UNL d   1      27.617 -13.428  -5.747  0.00  0.00     0.079 A 
ATOM     18  C   UNL d   1      27.388 -14.789  -5.576  0.00  0.00     0.027 A 
ATOM     19  C   UNL d   1      26.444 -15.216  -4.638  0.00  0.00     0.031 A 
BRANCH  17  20
ATOM     20  S   UNL d   1      28.942 -12.893  -6.803  0.00  0.00     0.256 S 
ATOM     21  O   UNL d   1      28.579 -11.621  -7.364  0.00  0.00    -0.201 OA
ATOM     22  O   UNL d   1      30.202 -13.124  -6.119  0.00  0.00    -0.201 OA
BRANCH  20  23
ATOM     23  N   UNL d   1      28.867 -14.018  -8.020  0.00  0.00    -0.324 N 
ATOM     24  H   UNL d   1      29.403 -14.871  -7.901  0.00  0.00     0.169 HD
ATOM     25  H   UNL d   1      28.478 -13.727  -8.910  0.00  0.00     0.169 HD
ENDBRANCH  20  23
ENDBRANCH  17  20
ENDBRANCH  12  14
ENDBRANCH   9  10
ENDBRANCH   8   9
ENDBRANCH   7   8
ENDBRANCH   3   7
BRANCH   1  26
ATOM     26  N   UNL d   1      29.661 -17.644  -0.520  0.00  0.00    -0.106 N 
ATOM     27  H   UNL d   1      30.324 -17.848   0.223  0.00  0.00     0.208 HD
BRANCH  26  28
ATOM     28  N   UNL d   1      30.036 -17.822  -1.831  0.00  0.00    -0.164 NA
ATOM     29  C   UNL d   1      29.891 -16.893  -2.743  0.00  0.00     0.061 C 
ATOM     30  C   UNL d   1      29.296 -15.522  -2.495  0.00  0.00     0.073 C 
BRANCH  29  31
ATOM     31  C   UNL d   1      30.341 -17.216  -4.174  0.00  0.00    -0.009 C 
ATOM     32  C   UNL d   1      30.512 -16.130  -5.035  0.00  0.00     0.014 C 
ATOM     33  C   UNL d   1      30.810 -16.342  -6.382  0.00  0.00     0.013 C 
ATOM     34  C   UNL d   1      31.007 -17.630  -6.897  0.00  0.00    -0.029 C 
ATOM     35  C   UNL d   1      31.486 -17.768  -8.202  0.00  0.00    -0.005 C 
ATOM     36  C   UNL d   1      30.760 -18.779  -6.124  0.00  0.00    -0.026 C 
ATOM     37  C   UNL d   1      31.885 -19.005  -8.664  0.00  0.00     0.043 C 
ATOM     38  C   UNL d   1      31.066 -20.021  -8.256  0.00  0.00    -0.016 C 
ATOM     39  C   UNL d   1      30.733 -20.017  -6.891  0.00  0.00     0.009 C 
ATOM     40  C   UNL d   1      30.480 -18.532  -4.714  0.00  0.00     0.025 C 
ENDBRANCH  29  31
ENDBRANCH  26  28
ENDBRANCH   1  26
TORSDOF 10
ENDMDL
MODEL 9
REMARK VINA RESULT:    -8.735      6.612     11.156
REMARK INTER + INTRA:         -14.968
REMARK INTER:                 -11.718
REMARK INTRA:                  -3.250
REMARK CONF_INDEPENDENT:        2.983
REMARK UNBOUND:                -3.250
REMARK  10 active torsions:
REMARK  status: ('A' for Active; 'I' for Inactive)
REMARK    1  A    between atoms: C_2  and  C_26 
REMARK    2  A    between atoms: N_3  and  N_4 
REMARK    3  A    between atoms: N_4  and  C_5 
REMARK    4  A    between atoms: C_7  and  S_8 
REMARK    5  A    between atoms: S_8  and  C_9 
REMARK    6  A    between atoms: C_9  and  C_10 
REMARK    7  A    between atoms: C_10  and  C_11 
REMARK       I    between atoms: C_11  and  N_13 
REMARK    8  A    between atoms: N_13  and  C_14 
REMARK    9  A    between atoms: C_17  and  S_18 
REMARK   10  A    between atoms: S_18  and  N_19 
ROOT
ATOM      1  C   UNL d   1      28.455 -17.469  -0.152  0.00  0.00     0.739 A 
ATOM      2  N   UNL d   1      27.356 -18.090  -0.536  0.00  0.00    -0.034 NA
ATOM      3  C   UNL d   1      26.357 -17.484   0.181  0.00  0.00     0.226 A 
ATOM      4  N   UNL d   1      26.770 -16.493   0.981  0.00  0.00    -0.132 NA
ATOM      5  N   UNL d   1      28.095 -16.501   0.753  0.00  0.00    -0.103 N 
ATOM      6  H   UNL d   1      28.674 -15.797   1.192  0.00  0.00     0.208 HD
ENDROOT
BRANCH   3   7
ATOM      7  S   UNL d   1      24.652 -17.903   0.115  0.00  0.00    -0.087 SA
BRANCH   7   8
ATOM      8  C   UNL d   1      24.131 -17.291  -1.519  0.00  0.00     0.092 C 
BRANCH   8   9
ATOM      9  C   UNL d   1      24.281 -15.755  -1.638  0.00  0.00     0.113 C 
BRANCH   9  10
ATOM     10  C   UNL d   1      25.222 -15.402  -2.791  0.00  0.00     0.222 C 
ATOM     11  O   UNL d   1      24.813 -14.762  -3.759  0.00  0.00    -0.273 OA
ATOM     12  N   UNL d   1      26.532 -15.872  -2.677  0.00  0.00    -0.327 N 
ATOM     13  H   UNL d   1      26.733 -16.600  -2.002  0.00  0.00     0.169 HD
BRANCH  12  14
ATOM     14  C   UNL d   1      27.546 -15.555  -3.625  0.00  0.00     0.034 A 
ATOM     15  C   UNL d   1      28.896 -15.494  -3.245  0.00  0.00     0.031 A 
ATOM     16  C   UNL d   1      29.893 -15.195  -4.196  0.00  0.00     0.027 A 
ATOM     17  C   UNL d   1      29.532 -14.949  -5.526  0.00  0.00     0.079 A 
ATOM     18  C   UNL d   1      28.193 -14.960  -5.903  0.00  0.00     0.027 A 
ATOM     19  C   UNL d   1      27.214 -15.272  -4.956  0.00  0.00     0.031 A 
BRANCH  17  20
ATOM     20  S   UNL d   1      30.786 -14.733  -6.766  0.00  0.00     0.256 S 
ATOM     21  O   UNL d   1      31.975 -14.256  -6.119  0.00  0.00    -0.201 OA
ATOM     22  O   UNL d   1      30.774 -15.893  -7.643  0.00  0.00    -0.201 OA
BRANCH  20  23
ATOM     23  N   UNL d   1      30.159 -13.480  -7.654  0.00  0.00    -0.324 N 
ATOM     24  H   UNL d   1      29.507 -13.713  -8.395  0.00  0.00     0.169 HD
ATOM     25  H   UNL d   1      30.605 -12.574  -7.572  0.00  0.00     0.169 HD
ENDBRANCH  20  23
ENDBRANCH  17  20
ENDBRANCH  12  14
ENDBRANCH   9  10
ENDBRANCH   8   9
ENDBRANCH   7   8
ENDBRANCH   3   7
BRANCH   1  26
ATOM     26  N   UNL d   1      29.762 -17.635  -0.515  0.00  0.00    -0.106 N 
ATOM     27  H   UNL d   1      30.407 -17.912   0.220  0.00  0.00     0.208 HD
BRANCH  26  28
ATOM     28  N   UNL d   1      30.153 -17.728  -1.831  0.00  0.00    -0.164 NA
ATOM     29  C   UNL d   1      30.951 -18.671  -2.269  0.00  0.00     0.061 C 
ATOM     30  C   UNL d   1      31.552 -19.764  -1.410  0.00  0.00     0.073 C 
BRANCH  29  31
ATOM     31  C   UNL d   1      31.321 -18.663  -3.758  0.00  0.00    -0.009 C 
ATOM     32  C   UNL d   1      32.186 -17.652  -4.181  0.00  0.00     0.014 C 
ATOM     33  C   UNL d   1      32.484 -17.505  -5.537  0.00  0.00     0.013 C 
ATOM     34  C   UNL d   1      31.985 -18.392  -6.499  0.00  0.00    -0.029 C 
ATOM     35  C   UNL d   1      32.467 -18.308  -7.808  0.00  0.00    -0.005 C 
ATOM     36  C   UNL d   1      31.034 -19.376  -6.172  0.00  0.00    -0.026 C 
ATOM     37  C   UNL d   1      32.154 -19.292  -8.723  0.00  0.00     0.043 C 
ATOM     38  C   UNL d   1      30.860 -19.722  -8.628  0.00  0.00    -0.016 C 
ATOM     39  C   UNL d   1      30.414 -20.010  -7.328  0.00  0.00     0.009 C 
ATOM     40  C   UNL d   1      30.762 -19.530  -4.748  0.00  0.00     0.025 C 
ENDBRANCH  29  31
ENDBRANCH  26  28
ENDBRANCH   1  26
TORSDOF 10
ENDMDL
