MODEL 1
REMARK VINA RESULT:    -9.717      0.000      0.000
REMARK INTER + INTRA:         -13.549
REMARK INTER:                 -12.402
REMARK INTRA:                  -1.147
REMARK CONF_INDEPENDENT:        2.685
REMARK UNBOUND:                -1.147
REMARK  9 active torsions:
REMARK  status: ('A' for Active; 'I' for Inactive)
REMARK    1  A    between atoms: C_2  and  C_3 
REMARK       I    between atoms: C_2  and  N_21 
REMARK    2  A    between atoms: C_3  and  S_4 
REMARK    3  A    between atoms: S_4  and  C_5 
REMARK    4  A    between atoms: C_8  and  N_9 
REMARK    5  A    between atoms: N_9  and  N_10 
REMARK    6  A    between atoms: C_11  and  C_12 
REMARK    7  A    between atoms: N_21  and  C_22 
REMARK    8  A    between atoms: C_22  and  C_23 
REMARK    9  A    between atoms: C_23  and  C_24 
ROOT
ATOM      1  C   UNL d   1      29.457 -16.271  -2.359  0.00  0.00     0.226 A 
ATOM      2  N   UNL d   1      29.924 -17.459  -1.953  0.00  0.00    -0.132 NA
ATOM      3  N   UNL d   1      29.604 -17.429  -0.632  0.00  0.00    -0.103 N 
ATOM      4  C   UNL d   1      28.983 -16.256  -0.280  0.00  0.00     0.739 A 
ATOM      5  N   UNL d   1      28.895 -15.517  -1.364  0.00  0.00    -0.034 NA
ATOM      6  H   UNL d   1      29.813 -18.236  -0.057  0.00  0.00     0.208 HD
ENDROOT
BRANCH   1   7
ATOM      7  S   UNL d   1      29.250 -15.814  -4.030  0.00  0.00    -0.079 SA
BRANCH   7   8
ATOM      8  C   UNL d   1      27.961 -14.534  -4.066  0.00  0.00     0.185 C 
BRANCH   8   9
ATOM      9  C   UNL d   1      26.593 -15.162  -4.428  0.00  0.00     0.227 C 
ATOM     10  O   UNL d   1      26.282 -15.571  -5.552  0.00  0.00    -0.273 OA
ATOM     11  N   UNL d   1      25.637 -15.291  -3.447  0.00  0.00    -0.360 N 
ATOM     12  H   UNL d   1      24.780 -15.737  -3.756  0.00  0.00     0.162 HD
BRANCH  11  13
ATOM     13  C   UNL d   1      25.807 -14.937  -2.063  0.00  0.00     0.127 C 
BRANCH  13  14
ATOM     14  C   UNL d   1      26.005 -16.116  -1.101  0.00  0.00     0.058 C 
BRANCH  14  15
ATOM     15  C   UNL d   1      24.726 -16.902  -0.879  0.00  0.00    -0.057 A 
ATOM     16  C   UNL d   1      23.460 -16.336  -1.111  0.00  0.00     0.009 A 
ATOM     17  C   UNL d   1      22.291 -17.058  -0.895  0.00  0.00     0.024 A 
ATOM     18  C   UNL d   1      22.369 -18.363  -0.428  0.00  0.00     0.034 A 
ATOM     19 CL   UNL d   1      20.919 -19.242  -0.144  0.00  0.00    -0.084 Cl
ATOM     20  C   UNL d   1      23.610 -18.949  -0.185  0.00  0.00     0.024 A 
ATOM     21  C   UNL d   1      24.786 -18.222  -0.403  0.00  0.00     0.009 A 
ENDBRANCH  14  15
ENDBRANCH  13  14
ENDBRANCH  11  13
ENDBRANCH   8   9
ENDBRANCH   7   8
ENDBRANCH   1   7
BRANCH   4  22
ATOM     22  N   UNL d   1      28.539 -15.981   0.982  0.00  0.00    -0.106 N 
ATOM     23  H   UNL d   1      28.529 -16.697   1.707  0.00  0.00     0.208 HD
BRANCH  22  24
ATOM     24  N   UNL d   1      28.150 -14.700   1.303  0.00  0.00    -0.172 NA
ATOM     25  C   UNL d   1      28.066 -14.372   2.552  0.00  0.00     0.152 C 
BRANCH  25  26
ATOM     26  C   UNL d   1      27.746 -12.974   2.951  0.00  0.00     0.006 A 
ATOM     27  C   UNL d   1      26.997 -12.160   2.083  0.00  0.00     0.015 A 
ATOM     28  C   UNL d   1      26.751 -10.821   2.407  0.00  0.00     0.003 A 
ATOM     29  C   UNL d   1      27.246 -10.288   3.596  0.00  0.00     0.026 A 
ATOM     30  C   UNL d   1      27.970 -11.098   4.476  0.00  0.00     0.056 A 
ATOM     31 CL   UNL d   1      28.532 -10.363   5.940  0.00  0.00    -0.083 Cl
ATOM     32  C   UNL d   1      28.224 -12.446   4.162  0.00  0.00     0.067 A 
ATOM     33 CL   UNL d   1      29.164 -13.434   5.237  0.00  0.00    -0.082 Cl
ENDBRANCH  25  26
ENDBRANCH  22  24
ENDBRANCH   4  22
TORSDOF 9
ENDMDL
MODEL 2
REMARK VINA RESULT:    -9.469      1.462      2.080
REMARK INTER + INTRA:         -13.107
REMARK INTER:                 -12.154
REMARK INTRA:                  -0.954
REMARK CONF_INDEPENDENT:        2.685
REMARK UNBOUND:                -0.954
REMARK  9 active torsions:
REMARK  status: ('A' for Active; 'I' for Inactive)
REMARK    1  A    between atoms: C_2  and  C_3 
REMARK       I    between atoms: C_2  and  N_21 
REMARK    2  A    between atoms: C_3  and  S_4 
REMARK    3  A    between atoms: S_4  and  C_5 
REMARK    4  A    between atoms: C_8  and  N_9 
REMARK    5  A    between atoms: N_9  and  N_10 
REMARK    6  A    between atoms: C_11  and  C_12 
REMARK    7  A    between atoms: N_21  and  C_22 
REMARK    8  A    between atoms: C_22  and  C_23 
REMARK    9  A    between atoms: C_23  and  C_24 
ROOT
ATOM      1  C   UNL d   1      29.350 -15.661  -1.383  0.00  0.00     0.226 A 
ATOM      2  N   UNL d   1      30.160 -16.437  -0.652  0.00  0.00    -0.132 NA
ATOM      3  N   UNL d   1      29.606 -16.307   0.582  0.00  0.00    -0.103 N 
ATOM      4  C   UNL d   1      28.517 -15.470   0.571  0.00  0.00     0.739 A 
ATOM      5  N   UNL d   1      28.354 -15.053  -0.665  0.00  0.00    -0.034 NA
ATOM      6  H   UNL d   1      30.002 -16.826   1.356  0.00  0.00     0.208 HD
ENDROOT
BRANCH   1   7
ATOM      7  S   UNL d   1      29.305 -15.651  -3.127  0.00  0.00    -0.079 SA
BRANCH   7   8
ATOM      8  C   UNL d   1      28.052 -14.428  -3.611  0.00  0.00     0.185 C 
BRANCH   8   9
ATOM      9  C   UNL d   1      26.839 -15.134  -4.266  0.00  0.00     0.227 C 
ATOM     10  O   UNL d   1      26.806 -15.535  -5.434  0.00  0.00    -0.273 OA
ATOM     11  N   UNL d   1      25.706 -15.347  -3.516  0.00  0.00    -0.360 N 
ATOM     12  H   UNL d   1      24.968 -15.839  -4.007  0.00  0.00     0.162 HD
BRANCH  11  13
ATOM     13  C   UNL d   1      25.549 -15.015  -2.125  0.00  0.00     0.127 C 
BRANCH  13  14
ATOM     14  C   UNL d   1      25.697 -16.188  -1.147  0.00  0.00     0.058 C 
BRANCH  14  15
ATOM     15  C   UNL d   1      24.408 -16.975  -0.989  0.00  0.00    -0.057 A 
ATOM     16  C   UNL d   1      23.154 -16.339  -0.947  0.00  0.00     0.009 A 
ATOM     17  C   UNL d   1      21.977 -17.064  -0.792  0.00  0.00     0.024 A 
ATOM     18  C   UNL d   1      22.036 -18.445  -0.661  0.00  0.00     0.034 A 
ATOM     19 CL   UNL d   1      20.580 -19.332  -0.448  0.00  0.00    -0.084 Cl
ATOM     20  C   UNL d   1      23.265 -19.102  -0.694  0.00  0.00     0.024 A 
ATOM     21  C   UNL d   1      24.449 -18.371  -0.852  0.00  0.00     0.009 A 
ENDBRANCH  14  15
ENDBRANCH  13  14
ENDBRANCH  11  13
ENDBRANCH   8   9
ENDBRANCH   7   8
ENDBRANCH   1   7
BRANCH   4  22
ATOM     22  N   UNL d   1      27.766 -15.186   1.676  0.00  0.00    -0.106 N 
ATOM     23  H   UNL d   1      26.799 -15.499   1.754  0.00  0.00     0.208 HD
BRANCH  22  24
ATOM     24  N   UNL d   1      28.336 -14.513   2.732  0.00  0.00    -0.172 NA
ATOM     25  C   UNL d   1      27.706 -14.485   3.863  0.00  0.00     0.152 C 
BRANCH  25  26
ATOM     26  C   UNL d   1      28.325 -13.856   5.062  0.00  0.00     0.006 A 
ATOM     27  C   UNL d   1      28.819 -14.670   6.095  0.00  0.00     0.015 A 
ATOM     28  C   UNL d   1      29.335 -14.094   7.263  0.00  0.00     0.003 A 
ATOM     29  C   UNL d   1      29.364 -12.708   7.404  0.00  0.00     0.026 A 
ATOM     30  C   UNL d   1      28.897 -11.891   6.369  0.00  0.00     0.056 A 
ATOM     31 CL   UNL d   1      28.987 -10.180   6.617  0.00  0.00    -0.083 Cl
ATOM     32  C   UNL d   1      28.376 -12.458   5.191  0.00  0.00     0.067 A 
ATOM     33 CL   UNL d   1      27.756 -11.439   3.929  0.00  0.00    -0.082 Cl
ENDBRANCH  25  26
ENDBRANCH  22  24
ENDBRANCH   4  22
TORSDOF 9
ENDMDL
MODEL 3
REMARK VINA RESULT:    -9.327      4.386      5.620
REMARK INTER + INTRA:         -12.900
REMARK INTER:                 -12.011
REMARK INTRA:                  -0.889
REMARK CONF_INDEPENDENT:        2.685
REMARK UNBOUND:                -0.889
REMARK  9 active torsions:
REMARK  status: ('A' for Active; 'I' for Inactive)
REMARK    1  A    between atoms: C_2  and  C_3 
REMARK       I    between atoms: C_2  and  N_21 
REMARK    2  A    between atoms: C_3  and  S_4 
REMARK    3  A    between atoms: S_4  and  C_5 
REMARK    4  A    between atoms: C_8  and  N_9 
REMARK    5  A    between atoms: N_9  and  N_10 
REMARK    6  A    between atoms: C_11  and  C_12 
REMARK    7  A    between atoms: N_21  and  C_22 
REMARK    8  A    between atoms: C_22  and  C_23 
REMARK    9  A    between atoms: C_23  and  C_24 
ROOT
ATOM      1  C   UNL d   1      28.055 -13.331   2.992  0.00  0.00     0.226 A 
ATOM      2  N   UNL d   1      27.794 -14.638   3.123  0.00  0.00    -0.132 NA
ATOM      3  N   UNL d   1      28.680 -14.988   4.092  0.00  0.00    -0.103 N 
ATOM      4  C   UNL d   1      29.441 -13.921   4.502  0.00  0.00     0.739 A 
ATOM      5  N   UNL d   1      29.058 -12.873   3.805  0.00  0.00    -0.034 NA
ATOM      6  H   UNL d   1      28.687 -15.942   4.431  0.00  0.00     0.208 HD
ENDROOT
BRANCH   1   7
ATOM      7  S   UNL d   1      27.034 -12.202   2.140  0.00  0.00    -0.079 SA
BRANCH   7   8
ATOM      8  C   UNL d   1      26.513 -13.024   0.606  0.00  0.00     0.185 C 
BRANCH   8   9
ATOM      9  C   UNL d   1      27.746 -13.583  -0.148  0.00  0.00     0.227 C 
ATOM     10  O   UNL d   1      28.755 -12.927  -0.429  0.00  0.00    -0.273 OA
ATOM     11  N   UNL d   1      27.747 -14.901  -0.540  0.00  0.00    -0.360 N 
ATOM     12  H   UNL d   1      28.600 -15.198  -1.001  0.00  0.00     0.162 HD
BRANCH  11  13
ATOM     13  C   UNL d   1      26.707 -15.856  -0.266  0.00  0.00     0.127 C 
BRANCH  13  14
ATOM     14  C   UNL d   1      25.805 -16.208  -1.456  0.00  0.00     0.058 C 
BRANCH  14  15
ATOM     15  C   UNL d   1      24.572 -16.988  -1.036  0.00  0.00    -0.057 A 
ATOM     16  C   UNL d   1      24.663 -18.296  -0.527  0.00  0.00     0.009 A 
ATOM     17  C   UNL d   1      23.529 -19.011  -0.153  0.00  0.00     0.024 A 
ATOM     18  C   UNL d   1      22.276 -18.430  -0.296  0.00  0.00     0.034 A 
ATOM     19 CL   UNL d   1      20.879 -19.326   0.148  0.00  0.00    -0.084 Cl
ATOM     20  C   UNL d   1      22.155 -17.137  -0.802  0.00  0.00     0.024 A 
ATOM     21  C   UNL d   1      23.297 -16.418  -1.176  0.00  0.00     0.009 A 
ENDBRANCH  14  15
ENDBRANCH  13  14
ENDBRANCH  11  13
ENDBRANCH   8   9
ENDBRANCH   7   8
ENDBRANCH   1   7
BRANCH   4  22
ATOM     22  N   UNL d   1      30.392 -13.997   5.480  0.00  0.00    -0.106 N 
ATOM     23  H   UNL d   1      31.365 -13.762   5.291  0.00  0.00     0.208 HD
BRANCH  22  24
ATOM     24  N   UNL d   1      30.026 -14.345   6.760  0.00  0.00    -0.172 NA
ATOM     25  C   UNL d   1      30.899 -14.225   7.708  0.00  0.00     0.152 C 
BRANCH  25  26
ATOM     26  C   UNL d   1      30.523 -14.494   9.125  0.00  0.00     0.006 A 
ATOM     27  C   UNL d   1      31.205 -15.489   9.845  0.00  0.00     0.015 A 
ATOM     28  C   UNL d   1      30.815 -15.807  11.152  0.00  0.00     0.003 A 
ATOM     29  C   UNL d   1      29.749 -15.133  11.746  0.00  0.00     0.026 A 
ATOM     30  C   UNL d   1      29.082 -14.124  11.043  0.00  0.00     0.056 A 
ATOM     31 CL   UNL d   1      27.783 -13.325  11.861  0.00  0.00    -0.083 Cl
ATOM     32  C   UNL d   1      29.465 -13.796   9.729  0.00  0.00     0.067 A 
ATOM     33 CL   UNL d   1      28.603 -12.575   8.847  0.00  0.00    -0.082 Cl
ENDBRANCH  25  26
ENDBRANCH  22  24
ENDBRANCH   4  22
TORSDOF 9
ENDMDL
MODEL 4
REMARK VINA RESULT:    -9.209      1.729      2.171
REMARK INTER + INTRA:         -13.074
REMARK INTER:                 -11.894
REMARK INTRA:                  -1.180
REMARK CONF_INDEPENDENT:        2.685
REMARK UNBOUND:                -1.180
REMARK  9 active torsions:
REMARK  status: ('A' for Active; 'I' for Inactive)
REMARK    1  A    between atoms: C_2  and  C_3 
REMARK       I    between atoms: C_2  and  N_21 
REMARK    2  A    between atoms: C_3  and  S_4 
REMARK    3  A    between atoms: S_4  and  C_5 
REMARK    4  A    between atoms: C_8  and  N_9 
REMARK    5  A    between atoms: N_9  and  N_10 
REMARK    6  A    between atoms: C_11  and  C_12 
REMARK    7  A    between atoms: N_21  and  C_22 
REMARK    8  A    between atoms: C_22  and  C_23 
REMARK    9  A    between atoms: C_23  and  C_24 
ROOT
ATOM      1  C   UNL d   1      28.652 -13.674  -1.790  0.00  0.00     0.226 A 
ATOM      2  N   UNL d   1      29.867 -14.200  -1.984  0.00  0.00    -0.132 NA
ATOM      3  N   UNL d   1      30.092 -14.792  -0.781  0.00  0.00    -0.103 N 
ATOM      4  C   UNL d   1      29.045 -14.604   0.088  0.00  0.00     0.739 A 
ATOM      5  N   UNL d   1      28.136 -13.891  -0.541  0.00  0.00    -0.034 NA
ATOM      6  H   UNL d   1      30.949 -15.314  -0.642  0.00  0.00     0.208 HD
ENDROOT
BRANCH   1   7
ATOM      7  S   UNL d   1      27.631 -13.056  -3.064  0.00  0.00    -0.079 SA
BRANCH   7   8
ATOM      8  C   UNL d   1      25.918 -13.413  -2.581  0.00  0.00     0.185 C 
BRANCH   8   9
ATOM      9  C   UNL d   1      25.354 -14.581  -3.429  0.00  0.00     0.227 C 
ATOM     10  O   UNL d   1      24.640 -14.443  -4.428  0.00  0.00    -0.273 OA
ATOM     11  N   UNL d   1      25.658 -15.873  -3.070  0.00  0.00    -0.360 N 
ATOM     12  H   UNL d   1      25.275 -16.579  -3.691  0.00  0.00     0.162 HD
BRANCH  11  13
ATOM     13  C   UNL d   1      26.516 -16.259  -1.982  0.00  0.00     0.127 C 
BRANCH  13  14
ATOM     14  C   UNL d   1      25.850 -16.305  -0.601  0.00  0.00     0.058 C 
BRANCH  14  15
ATOM     15  C   UNL d   1      24.536 -17.066  -0.618  0.00  0.00    -0.057 A 
ATOM     16  C   UNL d   1      24.484 -18.457  -0.416  0.00  0.00     0.009 A 
ATOM     17  C   UNL d   1      23.279 -19.151  -0.443  0.00  0.00     0.024 A 
ATOM     18  C   UNL d   1      22.099 -18.462  -0.687  0.00  0.00     0.034 A 
ATOM     19 CL   UNL d   1      20.616 -19.329  -0.741  0.00  0.00    -0.084 Cl
ATOM     20  C   UNL d   1      22.119 -17.084  -0.896  0.00  0.00     0.024 A 
ATOM     21  C   UNL d   1      23.333 -16.387  -0.867  0.00  0.00     0.009 A 
ENDBRANCH  14  15
ENDBRANCH  13  14
ENDBRANCH  11  13
ENDBRANCH   8   9
ENDBRANCH   7   8
ENDBRANCH   1   7
BRANCH   4  22
ATOM     22  N   UNL d   1      29.009 -15.113   1.355  0.00  0.00    -0.106 N 
ATOM     23  H   UNL d   1      28.972 -16.118   1.520  0.00  0.00     0.208 HD
BRANCH  22  24
ATOM     24  N   UNL d   1      29.078 -14.262   2.433  0.00  0.00    -0.172 NA
ATOM     25  C   UNL d   1      27.976 -13.789   2.922  0.00  0.00     0.152 C 
BRANCH  25  26
ATOM     26  C   UNL d   1      27.990 -12.943   4.148  0.00  0.00     0.006 A 
ATOM     27  C   UNL d   1      27.739 -11.565   4.042  0.00  0.00     0.015 A 
ATOM     28  C   UNL d   1      27.823 -10.743   5.172  0.00  0.00     0.003 A 
ATOM     29  C   UNL d   1      28.153 -11.290   6.410  0.00  0.00     0.026 A 
ATOM     30  C   UNL d   1      28.379 -12.665   6.528  0.00  0.00     0.056 A 
ATOM     31 CL   UNL d   1      28.764 -13.266   8.106  0.00  0.00    -0.083 Cl
ATOM     32  C   UNL d   1      28.298 -13.502   5.399  0.00  0.00     0.067 A 
ATOM     33 CL   UNL d   1      28.626 -15.201   5.544  0.00  0.00    -0.082 Cl
ENDBRANCH  25  26
ENDBRANCH  22  24
ENDBRANCH   4  22
TORSDOF 9
ENDMDL
MODEL 5
REMARK VINA RESULT:    -9.173      5.031      8.314
REMARK INTER + INTRA:         -12.905
REMARK INTER:                 -11.858
REMARK INTRA:                  -1.047
REMARK CONF_INDEPENDENT:        2.685
REMARK UNBOUND:                -1.047
REMARK  9 active torsions:
REMARK  status: ('A' for Active; 'I' for Inactive)
REMARK    1  A    between atoms: C_2  and  C_3 
REMARK       I    between atoms: C_2  and  N_21 
REMARK    2  A    between atoms: C_3  and  S_4 
REMARK    3  A    between atoms: S_4  and  C_5 
REMARK    4  A    between atoms: C_8  and  N_9 
REMARK    5  A    between atoms: N_9  and  N_10 
REMARK    6  A    between atoms: C_11  and  C_12 
REMARK    7  A    between atoms: N_21  and  C_22 
REMARK    8  A    between atoms: C_22  and  C_23 
REMARK    9  A    between atoms: C_23  and  C_24 
ROOT
ATOM      1  C   UNL d   1      28.747 -12.989  -5.965  0.00  0.00     0.226 A 
ATOM      2  N   UNL d   1      28.209 -12.869  -7.185  0.00  0.00    -0.132 NA
ATOM      3  N   UNL d   1      29.040 -13.657  -7.917  0.00  0.00    -0.103 N 
ATOM      4  C   UNL d   1      30.037 -14.206  -7.148  0.00  0.00     0.739 A 
ATOM      5  N   UNL d   1      29.862 -13.781  -5.916  0.00  0.00    -0.034 NA
ATOM      6  H   UNL d   1      28.852 -13.788  -8.904  0.00  0.00     0.208 HD
ENDROOT
BRANCH   1   7
ATOM      7  S   UNL d   1      27.961 -12.489  -4.489  0.00  0.00    -0.079 SA
BRANCH   7   8
ATOM      8  C   UNL d   1      26.268 -13.145  -4.551  0.00  0.00     0.185 C 
BRANCH   8   9
ATOM      9  C   UNL d   1      26.296 -14.682  -4.737  0.00  0.00     0.227 C 
ATOM     10  O   UNL d   1      26.700 -15.260  -5.751  0.00  0.00    -0.273 OA
ATOM     11  N   UNL d   1      25.847 -15.486  -3.716  0.00  0.00    -0.360 N 
ATOM     12  H   UNL d   1      25.923 -16.480  -3.903  0.00  0.00     0.162 HD
BRANCH  11  13
ATOM     13  C   UNL d   1      25.389 -15.028  -2.431  0.00  0.00     0.127 C 
BRANCH  13  14
ATOM     14  C   UNL d   1      25.714 -15.951  -1.249  0.00  0.00     0.058 C 
BRANCH  14  15
ATOM     15  C   UNL d   1      24.544 -16.844  -0.874  0.00  0.00    -0.057 A 
ATOM     16  C   UNL d   1      24.722 -18.204  -0.565  0.00  0.00     0.009 A 
ATOM     17  C   UNL d   1      23.645 -19.020  -0.232  0.00  0.00     0.024 A 
ATOM     18  C   UNL d   1      22.363 -18.488  -0.216  0.00  0.00     0.034 A 
ATOM     19 CL   UNL d   1      21.035 -19.507   0.175  0.00  0.00    -0.084 Cl
ATOM     20  C   UNL d   1      22.156 -17.144  -0.522  0.00  0.00     0.024 A 
ATOM     21  C   UNL d   1      23.241 -16.324  -0.855  0.00  0.00     0.009 A 
ENDBRANCH  14  15
ENDBRANCH  13  14
ENDBRANCH  11  13
ENDBRANCH   8   9
ENDBRANCH   7   8
ENDBRANCH   1   7
BRANCH   4  22
ATOM     22  N   UNL d   1      30.993 -15.053  -7.635  0.00  0.00    -0.106 N 
ATOM     23  H   UNL d   1      31.522 -14.827  -8.476  0.00  0.00     0.208 HD
BRANCH  22  24
ATOM     24  N   UNL d   1      31.289 -16.209  -6.951  0.00  0.00    -0.172 NA
ATOM     25  C   UNL d   1      30.406 -17.155  -6.918  0.00  0.00     0.152 C 
BRANCH  25  26
ATOM     26  C   UNL d   1      30.715 -18.463  -6.276  0.00  0.00     0.006 A 
ATOM     27  C   UNL d   1      30.689 -18.570  -4.876  0.00  0.00     0.015 A 
ATOM     28  C   UNL d   1      31.051 -19.771  -4.253  0.00  0.00     0.003 A 
ATOM     29  C   UNL d   1      31.437 -20.867  -5.021  0.00  0.00     0.026 A 
ATOM     30  C   UNL d   1      31.442 -20.775  -6.417  0.00  0.00     0.056 A 
ATOM     31 CL   UNL d   1      31.915 -22.189  -7.296  0.00  0.00    -0.083 Cl
ATOM     32  C   UNL d   1      31.080 -19.574  -7.054  0.00  0.00     0.067 A 
ATOM     33 CL   UNL d   1      31.133 -19.452  -8.785  0.00  0.00    -0.082 Cl
ENDBRANCH  25  26
ENDBRANCH  22  24
ENDBRANCH   4  22
TORSDOF 9
ENDMDL
MODEL 6
REMARK VINA RESULT:    -9.080      3.444      4.720
REMARK INTER + INTRA:         -13.146
REMARK INTER:                 -11.765
REMARK INTRA:                  -1.381
REMARK CONF_INDEPENDENT:        2.685
REMARK UNBOUND:                -1.381
REMARK  9 active torsions:
REMARK  status: ('A' for Active; 'I' for Inactive)
REMARK    1  A    between atoms: C_2  and  C_3 
REMARK       I    between atoms: C_2  and  N_21 
REMARK    2  A    between atoms: C_3  and  S_4 
REMARK    3  A    between atoms: S_4  and  C_5 
REMARK    4  A    between atoms: C_8  and  N_9 
REMARK    5  A    between atoms: N_9  and  N_10 
REMARK    6  A    between atoms: C_11  and  C_12 
REMARK    7  A    between atoms: N_21  and  C_22 
REMARK    8  A    between atoms: C_22  and  C_23 
REMARK    9  A    between atoms: C_23  and  C_24 
ROOT
ATOM      1  C   UNL d   1      30.455 -13.625   1.537  0.00  0.00     0.226 A 
ATOM      2  N   UNL d   1      31.532 -13.580   2.331  0.00  0.00    -0.132 NA
ATOM      3  N   UNL d   1      31.035 -14.116   3.477  0.00  0.00    -0.103 N 
ATOM      4  C   UNL d   1      29.709 -14.449   3.356  0.00  0.00     0.739 A 
ATOM      5  N   UNL d   1      29.334 -14.135   2.135  0.00  0.00    -0.034 NA
ATOM      6  H   UNL d   1      31.654 -14.242   4.270  0.00  0.00     0.208 HD
ENDROOT
BRANCH   1   7
ATOM      7  S   UNL d   1      30.496 -13.392  -0.192  0.00  0.00    -0.079 SA
BRANCH   7   8
ATOM      8  C   UNL d   1      31.161 -14.923  -0.911  0.00  0.00     0.185 C 
BRANCH   8   9
ATOM      9  C   UNL d   1      31.099 -16.072   0.126  0.00  0.00     0.227 C 
ATOM     10  O   UNL d   1      31.944 -16.272   1.004  0.00  0.00    -0.273 OA
ATOM     11  N   UNL d   1      30.036 -16.943   0.093  0.00  0.00    -0.360 N 
ATOM     12  H   UNL d   1      30.053 -17.650   0.821  0.00  0.00     0.162 HD
BRANCH  11  13
ATOM     13  C   UNL d   1      28.914 -16.861  -0.804  0.00  0.00     0.127 C 
BRANCH  13  14
ATOM     14  C   UNL d   1      27.790 -15.912  -0.367  0.00  0.00     0.058 C 
BRANCH  14  15
ATOM     15  C   UNL d   1      26.423 -16.571  -0.425  0.00  0.00    -0.057 A 
ATOM     16  C   UNL d   1      26.159 -17.784   0.236  0.00  0.00     0.009 A 
ATOM     17  C   UNL d   1      24.907 -18.389   0.171  0.00  0.00     0.024 A 
ATOM     18  C   UNL d   1      23.897 -17.793  -0.571  0.00  0.00     0.034 A 
ATOM     19 CL   UNL d   1      22.360 -18.557  -0.664  0.00  0.00    -0.084 Cl
ATOM     20  C   UNL d   1      24.131 -16.593  -1.241  0.00  0.00     0.024 A 
ATOM     21  C   UNL d   1      25.391 -15.985  -1.174  0.00  0.00     0.009 A 
ENDBRANCH  14  15
ENDBRANCH  13  14
ENDBRANCH  11  13
ENDBRANCH   8   9
ENDBRANCH   7   8
ENDBRANCH   1   7
BRANCH   4  22
ATOM     22  N   UNL d   1      28.976 -15.025   4.355  0.00  0.00    -0.106 N 
ATOM     23  H   UNL d   1      28.652 -15.988   4.286  0.00  0.00     0.208 HD
BRANCH  22  24
ATOM     24  N   UNL d   1      28.714 -14.314   5.503  0.00  0.00    -0.172 NA
ATOM     25  C   UNL d   1      29.585 -14.338   6.460  0.00  0.00     0.152 C 
BRANCH  25  26
ATOM     26  C   UNL d   1      29.395 -13.508   7.682  0.00  0.00     0.006 A 
ATOM     27  C   UNL d   1      28.907 -14.105   8.857  0.00  0.00     0.015 A 
ATOM     28  C   UNL d   1      28.651 -13.326   9.991  0.00  0.00     0.003 A 
ATOM     29  C   UNL d   1      28.883 -11.952   9.961  0.00  0.00     0.026 A 
ATOM     30  C   UNL d   1      29.393 -11.355   8.804  0.00  0.00     0.056 A 
ATOM     31 CL   UNL d   1      29.672  -9.647   8.858  0.00  0.00    -0.083 Cl
ATOM     32  C   UNL d   1      29.654 -12.128   7.657  0.00  0.00     0.067 A 
ATOM     33 CL   UNL d   1      30.244 -11.373   6.209  0.00  0.00    -0.082 Cl
ENDBRANCH  25  26
ENDBRANCH  22  24
ENDBRANCH   4  22
TORSDOF 9
ENDMDL
MODEL 7
REMARK VINA RESULT:    -8.267      1.700      2.151
REMARK INTER + INTRA:         -12.930
REMARK INTER:                 -10.952
REMARK INTRA:                  -1.978
REMARK CONF_INDEPENDENT:        2.685
REMARK UNBOUND:                -1.978
REMARK  9 active torsions:
REMARK  status: ('A' for Active; 'I' for Inactive)
REMARK    1  A    between atoms: C_2  and  C_3 
REMARK       I    between atoms: C_2  and  N_21 
REMARK    2  A    between atoms: C_3  and  S_4 
REMARK    3  A    between atoms: S_4  and  C_5 
REMARK    4  A    between atoms: C_8  and  N_9 
REMARK    5  A    between atoms: N_9  and  N_10 
REMARK    6  A    between atoms: C_11  and  C_12 
REMARK    7  A    between atoms: N_21  and  C_22 
REMARK    8  A    between atoms: C_22  and  C_23 
REMARK    9  A    between atoms: C_23  and  C_24 
ROOT
ATOM      1  C   UNL d   1      30.135 -16.748  -2.325  0.00  0.00     0.226 A 
ATOM      2  N   UNL d   1      30.024 -17.998  -1.856  0.00  0.00    -0.132 NA
ATOM      3  N   UNL d   1      30.253 -17.803  -0.531  0.00  0.00    -0.103 N 
ATOM      4  C   UNL d   1      30.502 -16.484  -0.241  0.00  0.00     0.739 A 
ATOM      5  N   UNL d   1      30.437 -15.814  -1.371  0.00  0.00    -0.034 NA
ATOM      6  H   UNL d   1      30.199 -18.594   0.099  0.00  0.00     0.208 HD
ENDROOT
BRANCH   1   7
ATOM      7  S   UNL d   1      29.625 -16.244  -3.916  0.00  0.00    -0.079 SA
BRANCH   7   8
ATOM      8  C   UNL d   1      28.307 -15.017  -3.677  0.00  0.00     0.185 C 
BRANCH   8   9
ATOM      9  C   UNL d   1      27.419 -14.932  -4.944  0.00  0.00     0.227 C 
ATOM     10  O   UNL d   1      27.703 -15.433  -6.036  0.00  0.00    -0.273 OA
ATOM     11  N   UNL d   1      26.221 -14.260  -4.873  0.00  0.00    -0.360 N 
ATOM     12  H   UNL d   1      25.685 -14.273  -5.735  0.00  0.00     0.162 HD
BRANCH  11  13
ATOM     13  C   UNL d   1      25.669 -13.654  -3.691  0.00  0.00     0.127 C 
BRANCH  13  14
ATOM     14  C   UNL d   1      24.550 -14.449  -3.004  0.00  0.00     0.058 C 
BRANCH  14  15
ATOM     15  C   UNL d   1      25.087 -15.469  -2.018  0.00  0.00    -0.057 A 
ATOM     16  C   UNL d   1      24.396 -16.661  -1.737  0.00  0.00     0.009 A 
ATOM     17  C   UNL d   1      24.888 -17.588  -0.823  0.00  0.00     0.024 A 
ATOM     18  C   UNL d   1      26.081 -17.331  -0.162  0.00  0.00     0.034 A 
ATOM     19 CL   UNL d   1      26.671 -18.471   0.980  0.00  0.00    -0.084 Cl
ATOM     20  C   UNL d   1      26.786 -16.156  -0.417  0.00  0.00     0.024 A 
ATOM     21  C   UNL d   1      26.290 -15.224  -1.337  0.00  0.00     0.009 A 
ENDBRANCH  14  15
ENDBRANCH  13  14
ENDBRANCH  11  13
ENDBRANCH   8   9
ENDBRANCH   7   8
ENDBRANCH   1   7
BRANCH   4  22
ATOM     22  N   UNL d   1      30.742 -16.015   1.019  0.00  0.00    -0.106 N 
ATOM     23  H   UNL d   1      31.362 -16.510   1.659  0.00  0.00     0.208 HD
BRANCH  22  24
ATOM     24  N   UNL d   1      30.184 -14.824   1.421  0.00  0.00    -0.172 NA
ATOM     25  C   UNL d   1      28.926 -14.800   1.726  0.00  0.00     0.152 C 
BRANCH  25  26
ATOM     26  C   UNL d   1      28.296 -13.560   2.259  0.00  0.00     0.006 A 
ATOM     27  C   UNL d   1      27.717 -12.639   1.371  0.00  0.00     0.015 A 
ATOM     28  C   UNL d   1      27.188 -11.434   1.847  0.00  0.00     0.003 A 
ATOM     29  C   UNL d   1      27.232 -11.143   3.210  0.00  0.00     0.026 A 
ATOM     30  C   UNL d   1      27.784 -12.066   4.103  0.00  0.00     0.056 A 
ATOM     31 CL   UNL d   1      27.781 -11.636   5.781  0.00  0.00    -0.083 Cl
ATOM     32  C   UNL d   1      28.319 -13.281   3.636  0.00  0.00     0.067 A 
ATOM     33 CL   UNL d   1      29.045 -14.402   4.745  0.00  0.00    -0.082 Cl
ENDBRANCH  25  26
ENDBRANCH  22  24
ENDBRANCH   4  22
TORSDOF 9
ENDMDL
MODEL 8
REMARK VINA RESULT:    -8.141      2.265      2.752
REMARK INTER + INTRA:         -12.998
REMARK INTER:                 -10.825
REMARK INTRA:                  -2.173
REMARK CONF_INDEPENDENT:        2.685
REMARK UNBOUND:                -2.173
REMARK  9 active torsions:
REMARK  status: ('A' for Active; 'I' for Inactive)
REMARK    1  A    between atoms: C_2  and  C_3 
REMARK       I    between atoms: C_2  and  N_21 
REMARK    2  A    between atoms: C_3  and  S_4 
REMARK    3  A    between atoms: S_4  and  C_5 
REMARK    4  A    between atoms: C_8  and  N_9 
REMARK    5  A    between atoms: N_9  and  N_10 
REMARK    6  A    between atoms: C_11  and  C_12 
REMARK    7  A    between atoms: N_21  and  C_22 
REMARK    8  A    between atoms: C_22  and  C_23 
REMARK    9  A    between atoms: C_23  and  C_24 
ROOT
ATOM      1  C   UNL d   1      29.667 -16.423  -2.020  0.00  0.00     0.226 A 
ATOM      2  N   UNL d   1      29.988 -17.574  -1.416  0.00  0.00    -0.132 NA
ATOM      3  N   UNL d   1      30.045 -17.182  -0.116  0.00  0.00    -0.103 N 
ATOM      4  C   UNL d   1      29.779 -15.842   0.028  0.00  0.00     0.739 A 
ATOM      5  N   UNL d   1      29.547 -15.356  -1.171  0.00  0.00    -0.034 NA
ATOM      6  H   UNL d   1      30.241 -17.873   0.598  0.00  0.00     0.208 HD
ENDROOT
BRANCH   1   7
ATOM      7  S   UNL d   1      29.112 -16.298  -3.670  0.00  0.00    -0.079 SA
BRANCH   7   8
ATOM      8  C   UNL d   1      28.265 -14.698  -3.816  0.00  0.00     0.185 C 
BRANCH   8   9
ATOM      9  C   UNL d   1      27.272 -14.724  -5.005  0.00  0.00     0.227 C 
ATOM     10  O   UNL d   1      27.518 -15.204  -6.116  0.00  0.00    -0.273 OA
ATOM     11  N   UNL d   1      26.018 -14.184  -4.838  0.00  0.00    -0.360 N 
ATOM     12  H   UNL d   1      25.418 -14.265  -5.652  0.00  0.00     0.162 HD
BRANCH  11  13
ATOM     13  C   UNL d   1      25.502 -13.628  -3.616  0.00  0.00     0.127 C 
BRANCH  13  14
ATOM     14  C   UNL d   1      24.403 -14.451  -2.929  0.00  0.00     0.058 C 
BRANCH  14  15
ATOM     15  C   UNL d   1      24.966 -15.448  -1.932  0.00  0.00    -0.057 A 
ATOM     16  C   UNL d   1      26.183 -15.222  -1.266  0.00  0.00     0.009 A 
ATOM     17  C   UNL d   1      26.699 -16.144  -0.362  0.00  0.00     0.024 A 
ATOM     18  C   UNL d   1      26.008 -17.323  -0.117  0.00  0.00     0.034 A 
ATOM     19 CL   UNL d   1      26.662 -18.468   0.986  0.00  0.00    -0.084 Cl
ATOM     20  C   UNL d   1      24.801 -17.577  -0.766  0.00  0.00     0.024 A 
ATOM     21  C   UNL d   1      24.282 -16.647  -1.675  0.00  0.00     0.009 A 
ENDBRANCH  14  15
ENDBRANCH  13  14
ENDBRANCH  11  13
ENDBRANCH   8   9
ENDBRANCH   7   8
ENDBRANCH   1   7
BRANCH   4  22
ATOM     22  N   UNL d   1      29.751 -15.199   1.233  0.00  0.00    -0.106 N 
ATOM     23  H   UNL d   1      30.079 -15.654   2.084  0.00  0.00     0.208 HD
BRANCH  22  24
ATOM     24  N   UNL d   1      29.324 -13.893   1.298  0.00  0.00    -0.172 NA
ATOM     25  C   UNL d   1      28.236 -13.627   1.947  0.00  0.00     0.152 C 
BRANCH  25  26
ATOM     26  C   UNL d   1      27.784 -12.220   2.130  0.00  0.00     0.006 A 
ATOM     27  C   UNL d   1      27.536 -11.735   3.425  0.00  0.00     0.015 A 
ATOM     28  C   UNL d   1      27.039 -10.440   3.612  0.00  0.00     0.003 A 
ATOM     29  C   UNL d   1      26.791  -9.622   2.510  0.00  0.00     0.026 A 
ATOM     30  C   UNL d   1      27.059 -10.089   1.220  0.00  0.00     0.056 A 
ATOM     31 CL   UNL d   1      26.741  -9.003  -0.091  0.00  0.00    -0.083 Cl
ATOM     32  C   UNL d   1      27.558 -11.390   1.020  0.00  0.00     0.067 A 
ATOM     33 CL   UNL d   1      27.846 -11.979  -0.588  0.00  0.00    -0.082 Cl
ENDBRANCH  25  26
ENDBRANCH  22  24
ENDBRANCH   4  22
TORSDOF 9
ENDMDL
MODEL 9
REMARK VINA RESULT:    -8.127      3.691      7.672
REMARK INTER + INTRA:         -12.830
REMARK INTER:                 -10.811
REMARK INTRA:                  -2.018
REMARK CONF_INDEPENDENT:        2.685
REMARK UNBOUND:                -2.018
REMARK  9 active torsions:
REMARK  status: ('A' for Active; 'I' for Inactive)
REMARK    1  A    between atoms: C_2  and  C_3 
REMARK       I    between atoms: C_2  and  N_21 
REMARK    2  A    between atoms: C_3  and  S_4 
REMARK    3  A    between atoms: S_4  and  C_5 
REMARK    4  A    between atoms: C_8  and  N_9 
REMARK    5  A    between atoms: N_9  and  N_10 
REMARK    6  A    between atoms: C_11  and  C_12 
REMARK    7  A    between atoms: N_21  and  C_22 
REMARK    8  A    between atoms: C_22  and  C_23 
REMARK    9  A    between atoms: C_23  and  C_24 
ROOT
ATOM      1  C   UNL d   1      30.480 -11.697   3.424  0.00  0.00     0.226 A 
ATOM      2  N   UNL d   1      31.469 -12.351   4.047  0.00  0.00    -0.132 NA
ATOM      3  N   UNL d   1      31.330 -13.598   3.522  0.00  0.00    -0.103 N 
ATOM      4  C   UNL d   1      30.285 -13.668   2.634  0.00  0.00     0.739 A 
ATOM      5  N   UNL d   1      29.740 -12.473   2.573  0.00  0.00    -0.034 NA
ATOM      6  H   UNL d   1      31.985 -14.321   3.794  0.00  0.00     0.208 HD
ENDROOT
BRANCH   1   7
ATOM      7  S   UNL d   1      30.313  -9.960   3.397  0.00  0.00    -0.079 SA
BRANCH   7   8
ATOM      8  C   UNL d   1      28.974  -9.582   2.229  0.00  0.00     0.185 C 
BRANCH   8   9
ATOM      9  C   UNL d   1      27.614  -9.542   2.968  0.00  0.00     0.227 C 
ATOM     10  O   UNL d   1      27.193  -8.577   3.614  0.00  0.00    -0.273 OA
ATOM     11  N   UNL d   1      26.794 -10.645   2.915  0.00  0.00    -0.360 N 
ATOM     12  H   UNL d   1      25.910 -10.531   3.399  0.00  0.00     0.162 HD
BRANCH  11  13
ATOM     13  C   UNL d   1      27.059 -11.850   2.175  0.00  0.00     0.127 C 
BRANCH  13  14
ATOM     14  C   UNL d   1      26.655 -13.155   2.874  0.00  0.00     0.058 C 
BRANCH  14  15
ATOM     15  C   UNL d   1      27.421 -13.381   4.165  0.00  0.00    -0.057 A 
ATOM     16  C   UNL d   1      27.773 -12.315   5.012  0.00  0.00     0.009 A 
ATOM     17  C   UNL d   1      28.484 -12.526   6.188  0.00  0.00     0.024 A 
ATOM     18  C   UNL d   1      28.870 -13.815   6.533  0.00  0.00     0.034 A 
ATOM     19 CL   UNL d   1      29.767 -14.066   7.977  0.00  0.00    -0.084 Cl
ATOM     20  C   UNL d   1      28.539 -14.890   5.710  0.00  0.00     0.024 A 
ATOM     21  C   UNL d   1      27.822 -14.676   4.527  0.00  0.00     0.009 A 
ENDBRANCH  14  15
ENDBRANCH  13  14
ENDBRANCH  11  13
ENDBRANCH   8   9
ENDBRANCH   7   8
ENDBRANCH   1   7
BRANCH   4  22
ATOM     22  N   UNL d   1      29.944 -14.800   1.950  0.00  0.00    -0.106 N 
ATOM     23  H   UNL d   1      30.455 -15.672   2.082  0.00  0.00     0.208 HD
BRANCH  22  24
ATOM     24  N   UNL d   1      28.857 -14.785   1.107  0.00  0.00    -0.172 NA
ATOM     25  C   UNL d   1      28.508 -15.888   0.525  0.00  0.00     0.152 C 
BRANCH  25  26
ATOM     26  C   UNL d   1      27.282 -15.947  -0.318  0.00  0.00     0.006 A 
ATOM     27  C   UNL d   1      27.024 -14.918  -1.239  0.00  0.00     0.015 A 
ATOM     28  C   UNL d   1      25.840 -14.919  -1.986  0.00  0.00     0.003 A 
ATOM     29  C   UNL d   1      24.910 -15.944  -1.820  0.00  0.00     0.026 A 
ATOM     30  C   UNL d   1      25.172 -16.985  -0.923  0.00  0.00     0.056 A 
ATOM     31 CL   UNL d   1      23.974 -18.229  -0.792  0.00  0.00    -0.083 Cl
ATOM     32  C   UNL d   1      26.359 -16.995  -0.167  0.00  0.00     0.067 A 
ATOM     33 CL   UNL d   1      26.656 -18.266   0.978  0.00  0.00    -0.082 Cl
ENDBRANCH  25  26
ENDBRANCH  22  24
ENDBRANCH   4  22
TORSDOF 9
ENDMDL
