MODEL 1
REMARK VINA RESULT:    -8.619      0.000      0.000
REMARK INTER + INTRA:         -11.840
REMARK INTER:                 -10.707
REMARK INTRA:                  -1.134
REMARK CONF_INDEPENDENT:        2.088
REMARK UNBOUND:                -1.134
REMARK  7 active torsions:
REMARK  status: ('A' for Active; 'I' for Inactive)
REMARK    1  A    between atoms: C_2  and  C_3 
REMARK       I    between atoms: C_3  and  N_5 
REMARK    2  A    between atoms: N_5  and  C_6 
REMARK    3  A    between atoms: C_9  and  N_10 
REMARK    4  A    between atoms: N_10  and  C_11 
REMARK    5  A    between atoms: C_11  and  C_13 
REMARK       I    between atoms: C_13  and  N_15 
REMARK    6  A    between atoms: N_15  and  C_16 
REMARK    7  A    between atoms: C_20  and  S_21 
ROOT
ATOM      1  N   UNL d   1      26.926 -16.040  -1.925  0.00  0.00    -0.377 N 
ATOM      2  H   UNL d   1      27.879 -16.317  -1.689  0.00  0.00     0.160 HD
ENDROOT
BRANCH   1   3
ATOM      3  C   UNL d   1      25.852 -16.739  -1.402  0.00  0.00     0.029 A 
ATOM      4  C   UNL d   1      26.019 -17.920  -0.672  0.00  0.00     0.031 A 
ATOM      5  C   UNL d   1      24.916 -18.570  -0.064  0.00  0.00     0.032 A 
ATOM      6  C   UNL d   1      23.621 -18.043  -0.178  0.00  0.00     0.040 A 
ATOM      7  C   UNL d   1      23.447 -16.836  -0.865  0.00  0.00    -0.033 A 
ATOM      8  C   UNL d   1      24.549 -16.252  -1.501  0.00  0.00     0.038 A 
ATOM      9  C   UNL d   1      22.156 -16.063  -0.892  0.00  0.00     0.050 C 
BRANCH   6  10
ATOM     10  N   UNL d   1      22.507 -18.714   0.396  0.00  0.00    -0.327 N 
ATOM     11  C   UNL d   1      21.521 -19.258  -0.417  0.00  0.00     0.221 C 
ATOM     12  O   UNL d   1      21.605 -19.324  -1.650  0.00  0.00    -0.273 OA
ATOM     13  H   UNL d   1      22.613 -19.095   1.327  0.00  0.00     0.169 HD
BRANCH  11  14
ATOM     14  C   UNL d   1      20.316 -19.846   0.290  0.00  0.00     0.098 C 
ATOM     15  C   UNL d   1      19.063 -19.617  -0.558  0.00  0.00     0.014 C 
ENDBRANCH  11  14
ENDBRANCH   6  10
ENDBRANCH   1   3
BRANCH   1  16
ATOM     16  C   UNL d   1      26.820 -14.968  -2.945  0.00  0.00     0.170 C 
ATOM     17  C   UNL d   1      27.440 -13.672  -2.415  0.00  0.00     0.042 C 
BRANCH  16  18
ATOM     18  C   UNL d   1      27.575 -15.393  -4.236  0.00  0.00     0.244 C 
ATOM     19  O   UNL d   1      27.063 -15.209  -5.344  0.00  0.00    -0.271 OA
ATOM     20  N   UNL d   1      28.820 -16.004  -4.046  0.00  0.00    -0.325 N 
ATOM     21  H   UNL d   1      29.114 -16.279  -3.116  0.00  0.00     0.169 HD
BRANCH  20  22
ATOM     22  C   UNL d   1      29.648 -16.411  -5.119  0.00  0.00     0.036 A 
ATOM     23  C   UNL d   1      29.909 -15.554  -6.189  0.00  0.00     0.029 A 
ATOM     24  C   UNL d   1      30.674 -16.007  -7.270  0.00  0.00     0.004 A 
ATOM     25  C   UNL d   1      31.190 -17.308  -7.271  0.00  0.00     0.018 A 
ATOM     26  C   UNL d   1      30.920 -18.183  -6.214  0.00  0.00     0.002 A 
ATOM     27  C   UNL d   1      30.156 -17.713  -5.145  0.00  0.00     0.048 A 
BRANCH  26  28
ATOM     28  S   UNL d   1      31.528 -19.863  -6.325  0.00  0.00    -0.134 SA
ATOM     29  C   UNL d   1      30.498 -20.758  -5.119  0.00  0.00     0.095 C 
ENDBRANCH  26  28
ENDBRANCH  20  22
ENDBRANCH  16  18
ENDBRANCH   1  16
TORSDOF 7
ENDMDL
MODEL 2
REMARK VINA RESULT:    -8.217      1.149      2.055
REMARK INTER + INTRA:         -11.492
REMARK INTER:                 -10.305
REMARK INTRA:                  -1.187
REMARK CONF_INDEPENDENT:        2.088
REMARK UNBOUND:                -1.187
REMARK  7 active torsions:
REMARK  status: ('A' for Active; 'I' for Inactive)
REMARK    1  A    between atoms: C_2  and  C_3 
REMARK       I    between atoms: C_3  and  N_5 
REMARK    2  A    between atoms: N_5  and  C_6 
REMARK    3  A    between atoms: C_9  and  N_10 
REMARK    4  A    between atoms: N_10  and  C_11 
REMARK    5  A    between atoms: C_11  and  C_13 
REMARK       I    between atoms: C_13  and  N_15 
REMARK    6  A    between atoms: N_15  and  C_16 
REMARK    7  A    between atoms: C_20  and  S_21 
ROOT
ATOM      1  N   UNL d   1      26.937 -15.830  -2.064  0.00  0.00    -0.377 N 
ATOM      2  H   UNL d   1      27.892 -15.972  -1.735  0.00  0.00     0.160 HD
ENDROOT
BRANCH   1   3
ATOM      3  C   UNL d   1      25.899 -16.559  -1.512  0.00  0.00     0.029 A 
ATOM      4  C   UNL d   1      26.120 -17.736  -0.788  0.00  0.00     0.031 A 
ATOM      5  C   UNL d   1      25.053 -18.417  -0.150  0.00  0.00     0.032 A 
ATOM      6  C   UNL d   1      23.741 -17.926  -0.228  0.00  0.00     0.040 A 
ATOM      7  C   UNL d   1      23.514 -16.724  -0.907  0.00  0.00    -0.033 A 
ATOM      8  C   UNL d   1      24.580 -16.109  -1.573  0.00  0.00     0.038 A 
ATOM      9  C   UNL d   1      22.201 -15.988  -0.897  0.00  0.00     0.050 C 
BRANCH   6  10
ATOM     10  N   UNL d   1      22.663 -18.629   0.377  0.00  0.00    -0.327 N 
ATOM     11  C   UNL d   1      21.659 -19.182  -0.407  0.00  0.00     0.221 C 
ATOM     12  O   UNL d   1      21.699 -19.229  -1.643  0.00  0.00    -0.273 OA
ATOM     13  H   UNL d   1      22.811 -19.020   1.298  0.00  0.00     0.169 HD
BRANCH  11  14
ATOM     14  C   UNL d   1      20.493 -19.806   0.334  0.00  0.00     0.098 C 
ATOM     15  C   UNL d   1      19.210 -19.615  -0.477  0.00  0.00     0.014 C 
ENDBRANCH  11  14
ENDBRANCH   6  10
ENDBRANCH   1   3
BRANCH   1  16
ATOM     16  C   UNL d   1      26.805 -14.921  -3.230  0.00  0.00     0.170 C 
ATOM     17  C   UNL d   1      27.300 -13.519  -2.865  0.00  0.00     0.042 C 
BRANCH  16  18
ATOM     18  C   UNL d   1      27.656 -15.460  -4.415  0.00  0.00     0.244 C 
ATOM     19  O   UNL d   1      27.273 -15.298  -5.578  0.00  0.00    -0.271 OA
ATOM     20  N   UNL d   1      28.828 -16.141  -4.070  0.00  0.00    -0.325 N 
ATOM     21  H   UNL d   1      29.006 -16.387  -3.104  0.00  0.00     0.169 HD
BRANCH  20  22
ATOM     22  C   UNL d   1      29.730 -16.655  -5.032  0.00  0.00     0.036 A 
ATOM     23  C   UNL d   1      30.030 -18.018  -5.078  0.00  0.00     0.029 A 
ATOM     24  C   UNL d   1      30.977 -18.489  -5.994  0.00  0.00     0.004 A 
ATOM     25  C   UNL d   1      31.610 -17.602  -6.872  0.00  0.00     0.018 A 
ATOM     26  C   UNL d   1      31.331 -16.232  -6.824  0.00  0.00     0.002 A 
ATOM     27  C   UNL d   1      30.384 -15.781  -5.905  0.00  0.00     0.048 A 
BRANCH  26  28
ATOM     28  S   UNL d   1      32.247 -15.140  -7.908  0.00  0.00    -0.134 SA
ATOM     29  C   UNL d   1      31.187 -13.662  -8.002  0.00  0.00     0.095 C 
ENDBRANCH  26  28
ENDBRANCH  20  22
ENDBRANCH  16  18
ENDBRANCH   1  16
TORSDOF 7
ENDMDL
MODEL 3
REMARK VINA RESULT:    -8.024      1.423      2.434
REMARK INTER + INTRA:         -11.248
REMARK INTER:                 -10.112
REMARK INTRA:                  -1.136
REMARK CONF_INDEPENDENT:        2.088
REMARK UNBOUND:                -1.136
REMARK  7 active torsions:
REMARK  status: ('A' for Active; 'I' for Inactive)
REMARK    1  A    between atoms: C_2  and  C_3 
REMARK       I    between atoms: C_3  and  N_5 
REMARK    2  A    between atoms: N_5  and  C_6 
REMARK    3  A    between atoms: C_9  and  N_10 
REMARK    4  A    between atoms: N_10  and  C_11 
REMARK    5  A    between atoms: C_11  and  C_13 
REMARK       I    between atoms: C_13  and  N_15 
REMARK    6  A    between atoms: N_15  and  C_16 
REMARK    7  A    between atoms: C_20  and  S_21 
ROOT
ATOM      1  N   UNL d   1      26.943 -15.044  -2.585  0.00  0.00    -0.377 N 
ATOM      2  H   UNL d   1      27.910 -15.033  -2.261  0.00  0.00     0.160 HD
ENDROOT
BRANCH   1   3
ATOM      3  C   UNL d   1      25.978 -15.720  -1.860  0.00  0.00     0.029 A 
ATOM      4  C   UNL d   1      24.612 -15.574  -2.124  0.00  0.00     0.031 A 
ATOM      5  C   UNL d   1      23.644 -16.347  -1.434  0.00  0.00     0.032 A 
ATOM      6  C   UNL d   1      24.032 -17.283  -0.464  0.00  0.00     0.040 A 
ATOM      7  C   UNL d   1      25.398 -17.474  -0.225  0.00  0.00    -0.033 A 
ATOM      8  C   UNL d   1      26.323 -16.653  -0.883  0.00  0.00     0.038 A 
ATOM      9  C   UNL d   1      25.955 -18.575   0.636  0.00  0.00     0.050 C 
BRANCH   6  10
ATOM     10  N   UNL d   1      23.062 -18.030   0.257  0.00  0.00    -0.327 N 
ATOM     11  C   UNL d   1      22.103 -18.773  -0.421  0.00  0.00     0.221 C 
ATOM     12  O   UNL d   1      22.110 -18.950  -1.645  0.00  0.00    -0.273 OA
ATOM     13  H   UNL d   1      23.282 -18.300   1.207  0.00  0.00     0.169 HD
BRANCH  11  14
ATOM     14  C   UNL d   1      21.040 -19.437   0.432  0.00  0.00     0.098 C 
ATOM     15  C   UNL d   1      19.823 -19.770  -0.434  0.00  0.00     0.014 C 
ENDBRANCH  11  14
ENDBRANCH   6  10
ENDBRANCH   1   3
BRANCH   1  16
ATOM     16  C   UNL d   1      26.721 -14.421  -3.913  0.00  0.00     0.170 C 
ATOM     17  C   UNL d   1      27.100 -12.938  -3.872  0.00  0.00     0.042 C 
BRANCH  16  18
ATOM     18  C   UNL d   1      27.599 -15.133  -4.981  0.00  0.00     0.244 C 
ATOM     19  O   UNL d   1      27.219 -15.200  -6.153  0.00  0.00    -0.271 OA
ATOM     20  N   UNL d   1      28.794 -15.694  -4.518  0.00  0.00    -0.325 N 
ATOM     21  H   UNL d   1      28.975 -15.754  -3.523  0.00  0.00     0.169 HD
BRANCH  20  22
ATOM     22  C   UNL d   1      29.721 -16.339  -5.370  0.00  0.00     0.036 A 
ATOM     23  C   UNL d   1      30.030 -17.691  -5.203  0.00  0.00     0.029 A 
ATOM     24  C   UNL d   1      31.001 -18.286  -6.016  0.00  0.00     0.004 A 
ATOM     25  C   UNL d   1      31.650 -17.535  -7.004  0.00  0.00     0.018 A 
ATOM     26  C   UNL d   1      31.363 -16.177  -7.169  0.00  0.00     0.002 A 
ATOM     27  C   UNL d   1      30.391 -15.601  -6.350  0.00  0.00     0.048 A 
BRANCH  26  28
ATOM     28  S   UNL d   1      32.297 -15.253  -8.384  0.00  0.00    -0.134 SA
ATOM     29  C   UNL d   1      33.361 -16.521  -9.144  0.00  0.00     0.095 C 
ENDBRANCH  26  28
ENDBRANCH  20  22
ENDBRANCH  16  18
ENDBRANCH   1  16
TORSDOF 7
ENDMDL
MODEL 4
REMARK VINA RESULT:    -7.981      4.975      7.274
REMARK INTER + INTRA:         -11.365
REMARK INTER:                 -10.069
REMARK INTRA:                  -1.296
REMARK CONF_INDEPENDENT:        2.088
REMARK UNBOUND:                -1.296
REMARK  7 active torsions:
REMARK  status: ('A' for Active; 'I' for Inactive)
REMARK    1  A    between atoms: C_2  and  C_3 
REMARK       I    between atoms: C_3  and  N_5 
REMARK    2  A    between atoms: N_5  and  C_6 
REMARK    3  A    between atoms: C_9  and  N_10 
REMARK    4  A    between atoms: N_10  and  C_11 
REMARK    5  A    between atoms: C_11  and  C_13 
REMARK       I    between atoms: C_13  and  N_15 
REMARK    6  A    between atoms: N_15  and  C_16 
REMARK    7  A    between atoms: C_20  and  S_21 
ROOT
ATOM      1  N   UNL d   1      28.370 -17.057  -0.201  0.00  0.00    -0.377 N 
ATOM      2  H   UNL d   1      28.998 -17.855  -0.292  0.00  0.00     0.160 HD
ENDROOT
BRANCH   1   3
ATOM      3  C   UNL d   1      27.000 -17.250  -0.207  0.00  0.00     0.029 A 
ATOM      4  C   UNL d   1      26.363 -18.089   0.713  0.00  0.00     0.031 A 
ATOM      5  C   UNL d   1      24.951 -18.201   0.751  0.00  0.00     0.032 A 
ATOM      6  C   UNL d   1      24.149 -17.469  -0.138  0.00  0.00     0.040 A 
ATOM      7  C   UNL d   1      24.771 -16.588  -1.031  0.00  0.00    -0.033 A 
ATOM      8  C   UNL d   1      26.170 -16.547  -1.080  0.00  0.00     0.038 A 
ATOM      9  C   UNL d   1      24.030 -15.604  -1.894  0.00  0.00     0.050 C 
BRANCH   6  10
ATOM     10  N   UNL d   1      22.735 -17.609  -0.129  0.00  0.00    -0.327 N 
ATOM     11  C   UNL d   1      22.121 -18.572  -0.920  0.00  0.00     0.221 C 
ATOM     12  O   UNL d   1      22.738 -19.437  -1.553  0.00  0.00    -0.273 OA
ATOM     13  H   UNL d   1      22.231 -17.274   0.682  0.00  0.00     0.169 HD
BRANCH  11  14
ATOM     14  C   UNL d   1      20.605 -18.564  -0.934  0.00  0.00     0.098 C 
ATOM     15  C   UNL d   1      20.081 -19.839  -0.269  0.00  0.00     0.014 C 
ENDBRANCH  11  14
ENDBRANCH   6  10
ENDBRANCH   1   3
BRANCH   1  16
ATOM     16  C   UNL d   1      29.037 -15.731  -0.210  0.00  0.00     0.170 C 
ATOM     17  C   UNL d   1      28.810 -15.036  -1.555  0.00  0.00     0.042 C 
BRANCH  16  18
ATOM     18  C   UNL d   1      28.448 -14.840   0.920  0.00  0.00     0.244 C 
ATOM     19  O   UNL d   1      27.424 -14.180   0.721  0.00  0.00    -0.271 OA
ATOM     20  N   UNL d   1      29.161 -14.824   2.124  0.00  0.00    -0.325 N 
ATOM     21  H   UNL d   1      30.078 -15.251   2.177  0.00  0.00     0.169 HD
BRANCH  20  22
ATOM     22  C   UNL d   1      28.735 -14.097   3.260  0.00  0.00     0.036 A 
ATOM     23  C   UNL d   1      28.492 -14.740   4.476  0.00  0.00     0.029 A 
ATOM     24  C   UNL d   1      28.006 -14.006   5.563  0.00  0.00     0.004 A 
ATOM     25  C   UNL d   1      27.777 -12.631   5.440  0.00  0.00     0.018 A 
ATOM     26  C   UNL d   1      27.998 -11.978   4.223  0.00  0.00     0.002 A 
ATOM     27  C   UNL d   1      28.485 -12.726   3.151  0.00  0.00     0.048 A 
BRANCH  26  28
ATOM     28  S   UNL d   1      27.594 -10.239   4.106  0.00  0.00    -0.134 SA
ATOM     29  C   UNL d   1      26.434 -10.174   2.703  0.00  0.00     0.095 C 
ENDBRANCH  26  28
ENDBRANCH  20  22
ENDBRANCH  16  18
ENDBRANCH   1  16
TORSDOF 7
ENDMDL
MODEL 5
REMARK VINA RESULT:    -7.966      4.469      6.571
REMARK INTER + INTRA:         -11.412
REMARK INTER:                 -10.054
REMARK INTRA:                  -1.358
REMARK CONF_INDEPENDENT:        2.088
REMARK UNBOUND:                -1.358
REMARK  7 active torsions:
REMARK  status: ('A' for Active; 'I' for Inactive)
REMARK    1  A    between atoms: C_2  and  C_3 
REMARK       I    between atoms: C_3  and  N_5 
REMARK    2  A    between atoms: N_5  and  C_6 
REMARK    3  A    between atoms: C_9  and  N_10 
REMARK    4  A    between atoms: N_10  and  C_11 
REMARK    5  A    between atoms: C_11  and  C_13 
REMARK       I    between atoms: C_13  and  N_15 
REMARK    6  A    between atoms: N_15  and  C_16 
REMARK    7  A    between atoms: C_20  and  S_21 
ROOT
ATOM      1  N   UNL d   1      28.711 -17.546  -0.411  0.00  0.00    -0.377 N 
ATOM      2  H   UNL d   1      29.272 -18.355  -0.145  0.00  0.00     0.160 HD
ENDROOT
BRANCH   1   3
ATOM      3  C   UNL d   1      27.330 -17.618  -0.366  0.00  0.00     0.029 A 
ATOM      4  C   UNL d   1      26.655 -18.363   0.606  0.00  0.00     0.031 A 
ATOM      5  C   UNL d   1      25.241 -18.348   0.694  0.00  0.00     0.032 A 
ATOM      6  C   UNL d   1      24.475 -17.581  -0.197  0.00  0.00     0.040 A 
ATOM      7  C   UNL d   1      25.139 -16.792  -1.143  0.00  0.00    -0.033 A 
ATOM      8  C   UNL d   1      26.533 -16.876  -1.238  0.00  0.00     0.038 A 
ATOM      9  C   UNL d   1      24.456 -15.778  -2.020  0.00  0.00     0.050 C 
BRANCH   6  10
ATOM     10  N   UNL d   1      23.055 -17.595  -0.137  0.00  0.00    -0.327 N 
ATOM     11  C   UNL d   1      22.328 -18.449  -0.956  0.00  0.00     0.221 C 
ATOM     12  O   UNL d   1      22.840 -19.325  -1.664  0.00  0.00    -0.273 OA
ATOM     13  H   UNL d   1      22.614 -17.268   0.713  0.00  0.00     0.169 HD
BRANCH  11  14
ATOM     14  C   UNL d   1      20.819 -18.306  -0.906  0.00  0.00     0.098 C 
ATOM     15  C   UNL d   1      20.226 -19.434  -0.059  0.00  0.00     0.014 C 
ENDBRANCH  11  14
ENDBRANCH   6  10
ENDBRANCH   1   3
BRANCH   1  16
ATOM     16  C   UNL d   1      29.480 -16.403  -0.962  0.00  0.00     0.170 C 
ATOM     17  C   UNL d   1      29.253 -16.293  -2.473  0.00  0.00     0.042 C 
BRANCH  16  18
ATOM     18  C   UNL d   1      29.013 -15.082  -0.287  0.00  0.00     0.244 C 
ATOM     19  O   UNL d   1      29.115 -14.008  -0.889  0.00  0.00    -0.271 OA
ATOM     20  N   UNL d   1      28.515 -15.200   1.015  0.00  0.00    -0.325 N 
ATOM     21  H   UNL d   1      28.610 -16.074   1.517  0.00  0.00     0.169 HD
BRANCH  20  22
ATOM     22  C   UNL d   1      28.014 -14.099   1.748  0.00  0.00     0.036 A 
ATOM     23  C   UNL d   1      27.451 -12.999   1.097  0.00  0.00     0.029 A 
ATOM     24  C   UNL d   1      27.026 -11.894   1.844  0.00  0.00     0.004 A 
ATOM     25  C   UNL d   1      27.149 -11.896   3.238  0.00  0.00     0.018 A 
ATOM     26  C   UNL d   1      27.728 -12.984   3.901  0.00  0.00     0.002 A 
ATOM     27  C   UNL d   1      28.144 -14.076   3.140  0.00  0.00     0.048 A 
BRANCH  26  28
ATOM     28  S   UNL d   1      27.944 -12.881   5.674  0.00  0.00    -0.134 SA
ATOM     29  C   UNL d   1      28.906 -14.378   6.064  0.00  0.00     0.095 C 
ENDBRANCH  26  28
ENDBRANCH  20  22
ENDBRANCH  16  18
ENDBRANCH   1  16
TORSDOF 7
ENDMDL
MODEL 6
REMARK VINA RESULT:    -7.811      4.354      7.502
REMARK INTER + INTRA:         -11.350
REMARK INTER:                  -9.899
REMARK INTRA:                  -1.451
REMARK CONF_INDEPENDENT:        2.088
REMARK UNBOUND:                -1.451
REMARK  7 active torsions:
REMARK  status: ('A' for Active; 'I' for Inactive)
REMARK    1  A    between atoms: C_2  and  C_3 
REMARK       I    between atoms: C_3  and  N_5 
REMARK    2  A    between atoms: N_5  and  C_6 
REMARK    3  A    between atoms: C_9  and  N_10 
REMARK    4  A    between atoms: N_10  and  C_11 
REMARK    5  A    between atoms: C_11  and  C_13 
REMARK       I    between atoms: C_13  and  N_15 
REMARK    6  A    between atoms: N_15  and  C_16 
REMARK    7  A    between atoms: C_20  and  S_21 
ROOT
ATOM      1  N   UNL d   1      27.380 -12.957  -2.707  0.00  0.00    -0.377 N 
ATOM      2  H   UNL d   1      28.088 -12.617  -3.357  0.00  0.00     0.160 HD
ENDROOT
BRANCH   1   3
ATOM      3  C   UNL d   1      27.741 -13.332  -1.425  0.00  0.00     0.029 A 
ATOM      4  C   UNL d   1      27.294 -12.641  -0.294  0.00  0.00     0.031 A 
ATOM      5  C   UNL d   1      27.597 -13.096   1.013  0.00  0.00     0.032 A 
ATOM      6  C   UNL d   1      28.358 -14.258   1.210  0.00  0.00     0.040 A 
ATOM      7  C   UNL d   1      28.771 -14.986   0.088  0.00  0.00    -0.033 A 
ATOM      8  C   UNL d   1      28.503 -14.477  -1.189  0.00  0.00     0.038 A 
ATOM      9  C   UNL d   1      29.416 -16.344   0.158  0.00  0.00     0.050 C 
BRANCH   6  10
ATOM     10  N   UNL d   1      28.698 -14.695   2.519  0.00  0.00    -0.327 N 
ATOM     11  C   UNL d   1      27.928 -14.308   3.608  0.00  0.00     0.221 C 
ATOM     12  O   UNL d   1      26.854 -13.701   3.511  0.00  0.00    -0.273 OA
ATOM     13  H   UNL d   1      29.251 -15.537   2.608  0.00  0.00     0.169 HD
BRANCH  11  14
ATOM     14  C   UNL d   1      28.438 -14.724   4.974  0.00  0.00     0.098 C 
ATOM     15  C   UNL d   1      28.156 -13.612   5.987  0.00  0.00     0.014 C 
ENDBRANCH  11  14
ENDBRANCH   6  10
ENDBRANCH   1   3
BRANCH   1  16
ATOM     16  C   UNL d   1      26.029 -13.139  -3.291  0.00  0.00     0.170 C 
ATOM     17  C   UNL d   1      26.092 -13.017  -4.817  0.00  0.00     0.042 C 
BRANCH  16  18
ATOM     18  C   UNL d   1      25.482 -14.548  -2.923  0.00  0.00     0.244 C 
ATOM     19  O   UNL d   1      25.155 -15.338  -3.814  0.00  0.00    -0.271 OA
ATOM     20  N   UNL d   1      25.369 -14.825  -1.557  0.00  0.00    -0.325 N 
ATOM     21  H   UNL d   1      25.493 -14.085  -0.877  0.00  0.00     0.169 HD
BRANCH  20  22
ATOM     22  C   UNL d   1      24.927 -16.074  -1.060  0.00  0.00     0.036 A 
ATOM     23  C   UNL d   1      25.834 -17.004  -0.547  0.00  0.00     0.029 A 
ATOM     24  C   UNL d   1      25.378 -18.258  -0.127  0.00  0.00     0.004 A 
ATOM     25  C   UNL d   1      24.017 -18.576  -0.204  0.00  0.00     0.018 A 
ATOM     26  C   UNL d   1      23.102 -17.661  -0.734  0.00  0.00     0.002 A 
ATOM     27  C   UNL d   1      23.574 -16.415  -1.146  0.00  0.00     0.048 A 
BRANCH  26  28
ATOM     28  S   UNL d   1      21.392 -18.166  -0.895  0.00  0.00    -0.134 SA
ATOM     29  C   UNL d   1      21.276 -19.604   0.218  0.00  0.00     0.095 C 
ENDBRANCH  26  28
ENDBRANCH  20  22
ENDBRANCH  16  18
ENDBRANCH   1  16
TORSDOF 7
ENDMDL
MODEL 7
REMARK VINA RESULT:    -7.363      6.393      8.567
REMARK INTER + INTRA:         -10.635
REMARK INTER:                  -9.451
REMARK INTRA:                  -1.184
REMARK CONF_INDEPENDENT:        2.088
REMARK UNBOUND:                -1.184
REMARK  7 active torsions:
REMARK  status: ('A' for Active; 'I' for Inactive)
REMARK    1  A    between atoms: C_2  and  C_3 
REMARK       I    between atoms: C_3  and  N_5 
REMARK    2  A    between atoms: N_5  and  C_6 
REMARK    3  A    between atoms: C_9  and  N_10 
REMARK    4  A    between atoms: N_10  and  C_11 
REMARK    5  A    between atoms: C_11  and  C_13 
REMARK       I    between atoms: C_13  and  N_15 
REMARK    6  A    between atoms: N_15  and  C_16 
REMARK    7  A    between atoms: C_20  and  S_21 
ROOT
ATOM      1  N   UNL d   1      28.393 -14.308   0.155  0.00  0.00    -0.377 N 
ATOM      2  H   UNL d   1      28.494 -13.366  -0.223  0.00  0.00     0.160 HD
ENDROOT
BRANCH   1   3
ATOM      3  C   UNL d   1      27.314 -15.091  -0.220  0.00  0.00     0.029 A 
ATOM      4  C   UNL d   1      26.483 -14.748  -1.291  0.00  0.00     0.031 A 
ATOM      5  C   UNL d   1      25.442 -15.609  -1.718  0.00  0.00     0.032 A 
ATOM      6  C   UNL d   1      25.216 -16.835  -1.075  0.00  0.00     0.040 A 
ATOM      7  C   UNL d   1      26.071 -17.213  -0.033  0.00  0.00    -0.033 A 
ATOM      8  C   UNL d   1      27.052 -16.312   0.400  0.00  0.00     0.038 A 
ATOM      9  C   UNL d   1      26.067 -18.575   0.606  0.00  0.00     0.050 C 
BRANCH   6  10
ATOM     10  N   UNL d   1      24.147 -17.683  -1.475  0.00  0.00    -0.327 N 
ATOM     11  C   UNL d   1      22.906 -17.584  -0.858  0.00  0.00     0.221 C 
ATOM     12  O   UNL d   1      22.607 -16.695  -0.052  0.00  0.00    -0.273 OA
ATOM     13  H   UNL d   1      24.181 -18.081  -2.404  0.00  0.00     0.169 HD
BRANCH  11  14
ATOM     14  C   UNL d   1      21.868 -18.609  -1.270  0.00  0.00     0.098 C 
ATOM     15  C   UNL d   1      21.314 -19.305  -0.024  0.00  0.00     0.014 C 
ENDBRANCH  11  14
ENDBRANCH   6  10
ENDBRANCH   1   3
BRANCH   1  16
ATOM     16  C   UNL d   1      29.381 -14.675   1.198  0.00  0.00     0.170 C 
ATOM     17  C   UNL d   1      30.804 -14.436   0.685  0.00  0.00     0.042 C 
BRANCH  16  18
ATOM     18  C   UNL d   1      29.154 -13.806   2.467  0.00  0.00     0.244 C 
ATOM     19  O   UNL d   1      29.096 -12.576   2.374  0.00  0.00    -0.271 OA
ATOM     20  N   UNL d   1      29.052 -14.500   3.677  0.00  0.00    -0.325 N 
ATOM     21  H   UNL d   1      29.271 -15.487   3.716  0.00  0.00     0.169 HD
BRANCH  20  22
ATOM     22  C   UNL d   1      28.804 -13.857   4.913  0.00  0.00     0.036 A 
ATOM     23  C   UNL d   1      27.954 -12.752   4.990  0.00  0.00     0.029 A 
ATOM     24  C   UNL d   1      27.781 -12.094   6.212  0.00  0.00     0.004 A 
ATOM     25  C   UNL d   1      28.445 -12.548   7.358  0.00  0.00     0.018 A 
ATOM     26  C   UNL d   1      29.313 -13.642   7.290  0.00  0.00     0.002 A 
ATOM     27  C   UNL d   1      29.472 -14.287   6.064  0.00  0.00     0.048 A 
BRANCH  26  28
ATOM     28  S   UNL d   1      30.205 -14.112   8.770  0.00  0.00    -0.134 SA
ATOM     29  C   UNL d   1      28.908 -14.833   9.826  0.00  0.00     0.095 C 
ENDBRANCH  26  28
ENDBRANCH  20  22
ENDBRANCH  16  18
ENDBRANCH   1  16
TORSDOF 7
ENDMDL
MODEL 8
REMARK VINA RESULT:    -7.286      4.345      6.504
REMARK INTER + INTRA:         -10.763
REMARK INTER:                  -9.374
REMARK INTRA:                  -1.389
REMARK CONF_INDEPENDENT:        2.088
REMARK UNBOUND:                -1.389
REMARK  7 active torsions:
REMARK  status: ('A' for Active; 'I' for Inactive)
REMARK    1  A    between atoms: C_2  and  C_3 
REMARK       I    between atoms: C_3  and  N_5 
REMARK    2  A    between atoms: N_5  and  C_6 
REMARK    3  A    between atoms: C_9  and  N_10 
REMARK    4  A    between atoms: N_10  and  C_11 
REMARK    5  A    between atoms: C_11  and  C_13 
REMARK       I    between atoms: C_13  and  N_15 
REMARK    6  A    between atoms: N_15  and  C_16 
REMARK    7  A    between atoms: C_20  and  S_21 
ROOT
ATOM      1  N   UNL d   1      27.236 -14.959  -2.479  0.00  0.00    -0.377 N 
ATOM      2  H   UNL d   1      27.845 -15.424  -3.152  0.00  0.00     0.160 HD
ENDROOT
BRANCH   1   3
ATOM      3  C   UNL d   1      26.255 -15.679  -1.820  0.00  0.00     0.029 A 
ATOM      4  C   UNL d   1      24.902 -15.573  -2.158  0.00  0.00     0.031 A 
ATOM      5  C   UNL d   1      23.923 -16.388  -1.536  0.00  0.00     0.032 A 
ATOM      6  C   UNL d   1      24.288 -17.327  -0.560  0.00  0.00     0.040 A 
ATOM      7  C   UNL d   1      25.644 -17.478  -0.248  0.00  0.00    -0.033 A 
ATOM      8  C   UNL d   1      26.576 -16.617  -0.839  0.00  0.00     0.038 A 
ATOM      9  C   UNL d   1      26.189 -18.575   0.626  0.00  0.00     0.050 C 
BRANCH   6  10
ATOM     10  N   UNL d   1      23.304 -18.118   0.095  0.00  0.00    -0.327 N 
ATOM     11  C   UNL d   1      22.374 -18.835  -0.648  0.00  0.00     0.221 C 
ATOM     12  O   UNL d   1      22.419 -18.951  -1.878  0.00  0.00    -0.273 OA
ATOM     13  H   UNL d   1      23.499 -18.432   1.036  0.00  0.00     0.169 HD
BRANCH  11  14
ATOM     14  C   UNL d   1      21.294 -19.550   0.139  0.00  0.00     0.098 C 
ATOM     15  C   UNL d   1      19.926 -19.250  -0.480  0.00  0.00     0.014 C 
ENDBRANCH  11  14
ENDBRANCH   6  10
ENDBRANCH   1   3
BRANCH   1  16
ATOM     16  C   UNL d   1      27.404 -13.487  -2.396  0.00  0.00     0.170 C 
ATOM     17  C   UNL d   1      26.084 -12.785  -2.730  0.00  0.00     0.042 C 
BRANCH  16  18
ATOM     18  C   UNL d   1      27.833 -13.087  -0.956  0.00  0.00     0.244 C 
ATOM     19  O   UNL d   1      28.955 -12.615  -0.751  0.00  0.00    -0.271 OA
ATOM     20  N   UNL d   1      26.892 -13.323   0.053  0.00  0.00    -0.325 N 
ATOM     21  H   UNL d   1      26.059 -13.862  -0.147  0.00  0.00     0.169 HD
BRANCH  20  22
ATOM     22  C   UNL d   1      27.115 -12.978   1.407  0.00  0.00     0.036 A 
ATOM     23  C   UNL d   1      27.117 -11.643   1.816  0.00  0.00     0.029 A 
ATOM     24  C   UNL d   1      27.408 -11.326   3.148  0.00  0.00     0.004 A 
ATOM     25  C   UNL d   1      27.681 -12.343   4.070  0.00  0.00     0.018 A 
ATOM     26  C   UNL d   1      27.700 -13.683   3.669  0.00  0.00     0.002 A 
ATOM     27  C   UNL d   1      27.406 -13.979   2.338  0.00  0.00     0.048 A 
BRANCH  26  28
ATOM     28  S   UNL d   1      28.151 -14.925   4.876  0.00  0.00    -0.134 SA
ATOM     29  C   UNL d   1      29.968 -14.822   4.921  0.00  0.00     0.095 C 
ENDBRANCH  26  28
ENDBRANCH  20  22
ENDBRANCH  16  18
ENDBRANCH   1  16
TORSDOF 7
ENDMDL
MODEL 9
REMARK VINA RESULT:    -7.280      3.047      8.374
REMARK INTER + INTRA:         -10.703
REMARK INTER:                  -9.368
REMARK INTRA:                  -1.335
REMARK CONF_INDEPENDENT:        2.088
REMARK UNBOUND:                -1.335
REMARK  7 active torsions:
REMARK  status: ('A' for Active; 'I' for Inactive)
REMARK    1  A    between atoms: C_2  and  C_3 
REMARK       I    between atoms: C_3  and  N_5 
REMARK    2  A    between atoms: N_5  and  C_6 
REMARK    3  A    between atoms: C_9  and  N_10 
REMARK    4  A    between atoms: N_10  and  C_11 
REMARK    5  A    between atoms: C_11  and  C_13 
REMARK       I    between atoms: C_13  and  N_15 
REMARK    6  A    between atoms: N_15  and  C_16 
REMARK    7  A    between atoms: C_20  and  S_21 
ROOT
ATOM      1  N   UNL d   1      27.669 -13.417  -3.281  0.00  0.00    -0.377 N 
ATOM      2  H   UNL d   1      28.233 -12.613  -3.005  0.00  0.00     0.160 HD
ENDROOT
BRANCH   1   3
ATOM      3  C   UNL d   1      28.256 -14.478  -3.947  0.00  0.00     0.029 A 
ATOM      4  C   UNL d   1      28.340 -14.526  -5.342  0.00  0.00     0.031 A 
ATOM      5  C   UNL d   1      29.029 -15.575  -6.001  0.00  0.00     0.032 A 
ATOM      6  C   UNL d   1      29.648 -16.598  -5.268  0.00  0.00     0.040 A 
ATOM      7  C   UNL d   1      29.614 -16.536  -3.870  0.00  0.00    -0.033 A 
ATOM      8  C   UNL d   1      28.876 -15.518  -3.254  0.00  0.00     0.038 A 
ATOM      9  C   UNL d   1      30.399 -17.450  -2.969  0.00  0.00     0.050 C 
BRANCH   6  10
ATOM     10  N   UNL d   1      30.305 -17.673  -5.927  0.00  0.00    -0.327 N 
ATOM     11  C   UNL d   1      31.055 -17.438  -7.073  0.00  0.00     0.221 C 
ATOM     12  O   UNL d   1      31.316 -16.309  -7.505  0.00  0.00    -0.273 OA
ATOM     13  H   UNL d   1      30.517 -18.501  -5.387  0.00  0.00     0.169 HD
BRANCH  11  14
ATOM     14  C   UNL d   1      31.617 -18.661  -7.771  0.00  0.00     0.098 C 
ATOM     15  C   UNL d   1      30.807 -19.896  -7.371  0.00  0.00     0.014 C 
ENDBRANCH  11  14
ENDBRANCH   6  10
ENDBRANCH   1   3
BRANCH   1  16
ATOM     16  C   UNL d   1      26.212 -13.272  -3.043  0.00  0.00     0.170 C 
ATOM     17  C   UNL d   1      25.530 -12.680  -4.280  0.00  0.00     0.042 C 
BRANCH  16  18
ATOM     18  C   UNL d   1      25.587 -14.664  -2.744  0.00  0.00     0.244 C 
ATOM     19  O   UNL d   1      25.164 -15.366  -3.667  0.00  0.00    -0.271 OA
ATOM     20  N   UNL d   1      25.520 -15.030  -1.395  0.00  0.00    -0.325 N 
ATOM     21  H   UNL d   1      25.727 -14.351  -0.674  0.00  0.00     0.169 HD
BRANCH  20  22
ATOM     22  C   UNL d   1      25.017 -16.280  -0.963  0.00  0.00     0.036 A 
ATOM     23  C   UNL d   1      25.876 -17.279  -0.501  0.00  0.00     0.029 A 
ATOM     24  C   UNL d   1      25.359 -18.529  -0.145  0.00  0.00     0.004 A 
ATOM     25  C   UNL d   1      23.983 -18.774  -0.235  0.00  0.00     0.018 A 
ATOM     26  C   UNL d   1      23.114 -17.789  -0.713  0.00  0.00     0.002 A 
ATOM     27  C   UNL d   1      23.649 -16.548  -1.062  0.00  0.00     0.048 A 
BRANCH  26  28
ATOM     28  S   UNL d   1      21.382 -18.199  -0.895  0.00  0.00    -0.134 SA
ATOM     29  C   UNL d   1      21.071 -19.325   0.503  0.00  0.00     0.095 C 
ENDBRANCH  26  28
ENDBRANCH  20  22
ENDBRANCH  16  18
ENDBRANCH   1  16
TORSDOF 7
ENDMDL
