MODEL 1
REMARK VINA RESULT:    -7.413      0.000      0.000
REMARK INTER + INTRA:         -12.055
REMARK INTER:                 -10.396
REMARK INTRA:                  -1.659
REMARK CONF_INDEPENDENT:        2.983
REMARK UNBOUND:                -1.659
REMARK  10 active torsions:
REMARK  status: ('A' for Active; 'I' for Inactive)
REMARK    1  A    between atoms: C_3  and  N_4 
REMARK       I    between atoms: N_4  and  C_5 
REMARK    2  A    between atoms: C_5  and  C_7 
REMARK    3  A    between atoms: C_7  and  C_8 
REMARK    4  A    between atoms: C_8  and  N_9 
REMARK       I    between atoms: N_9  and  C_10 
REMARK       I    between atoms: C_10  and  N_12 
REMARK    5  A    between atoms: N_12  and  N_13 
REMARK       I    between atoms: N_13  and  C_14 
REMARK    6  A    between atoms: C_16  and  C_14 
REMARK    7  A    between atoms: C_16  and  O_18 
REMARK    8  A    between atoms: O_18  and  C_19 
REMARK    9  A    between atoms: C_22  and  O_23 
REMARK   10  A    between atoms: O_23  and  C_24 
ROOT
ATOM      1  C   UNL d   1      17.914 -21.847   0.937  0.00  0.00     0.014 C 
ATOM      2  C   UNL d   1      18.534 -20.825   1.114  0.00  0.00    -0.098 C 
ATOM      3  C   UNL d   1      19.238 -19.556   1.350  0.00  0.00     0.216 C 
ENDROOT
BRANCH   3   4
ATOM      4  N   UNL d   1      20.652 -19.636   0.999  0.00  0.00    -0.351 N 
ATOM      5  C   UNL d   1      21.123 -19.064  -0.171  0.00  0.00     0.219 C 
ATOM      6  O   UNL d   1      20.368 -18.474  -0.940  0.00  0.00    -0.274 OA
ATOM      7  H   UNL d   1      21.269 -20.123   1.636  0.00  0.00     0.163 HD
BRANCH   5   8
ATOM      8  C   UNL d   1      22.633 -19.202  -0.453  0.00  0.00     0.122 C 
BRANCH   8   9
ATOM      9  C   UNL d   1      23.343 -17.824  -0.504  0.00  0.00     0.134 C 
BRANCH   9  10
ATOM     10  N   UNL d   1      23.999 -17.476  -1.790  0.00  0.00    -0.341 N 
ATOM     11  C   UNL d   1      24.757 -16.318  -1.931  0.00  0.00     0.334 C 
ATOM     12  O   UNL d   1      24.954 -15.529  -1.009  0.00  0.00    -0.246 OA
ATOM     13  N   UNL d   1      25.287 -16.102  -3.201  0.00  0.00    -0.249 N 
ATOM     14  H   UNL d   1      25.168 -16.729  -3.991  0.00  0.00     0.192 HD
ATOM     15  H   UNL d   1      23.862 -18.081  -2.585  0.00  0.00     0.164 HD
BRANCH  13  16
ATOM     16  N   UNL d   1      26.023 -14.883  -3.467  0.00  0.00    -0.264 N 
ATOM     17  C   UNL d   1      26.715 -14.737  -4.674  0.00  0.00     0.265 C 
ATOM     18  O   UNL d   1      26.617 -15.574  -5.576  0.00  0.00    -0.269 OA
ATOM     19  H   UNL d   1      26.163 -14.271  -2.663  0.00  0.00     0.190 HD
BRANCH  17  20
ATOM     20  C   UNL d   1      27.721 -13.533  -4.754  0.00  0.00     0.218 C 
ATOM     21  C   UNL d   1      26.918 -12.335  -5.291  0.00  0.00     0.050 C 
BRANCH  20  22
ATOM     22  O   UNL d   1      28.887 -13.641  -5.592  0.00  0.00    -0.337 OA
BRANCH  22  23
ATOM     23  C   UNL d   1      29.529 -14.848  -5.636  0.00  0.00     0.070 A 
ATOM     24  C   UNL d   1      29.875 -15.375  -6.881  0.00  0.00     0.039 A 
ATOM     25  C   UNL d   1      30.411 -16.677  -6.976  0.00  0.00     0.039 A 
ATOM     26  C   UNL d   1      30.697 -17.423  -5.827  0.00  0.00     0.068 A 
ATOM     27  C   UNL d   1      30.337 -16.899  -4.601  0.00  0.00     0.039 A 
ATOM     28  C   UNL d   1      29.746 -15.646  -4.521  0.00  0.00     0.039 A 
BRANCH  26  29
ATOM     29  O   UNL d   1      31.324 -18.629  -5.988  0.00  0.00    -0.352 OA
BRANCH  29  30
ATOM     30  C   UNL d   1      30.460 -19.758  -6.184  0.00  0.00     0.171 C 
ATOM     31  C   UNL d   1      31.163 -20.782  -7.051  0.00  0.00     0.034 C 
ENDBRANCH  29  30
ENDBRANCH  26  29
ENDBRANCH  22  23
ENDBRANCH  20  22
ENDBRANCH  17  20
ENDBRANCH  13  16
ENDBRANCH   9  10
ENDBRANCH   8   9
ENDBRANCH   5   8
ENDBRANCH   3   4
TORSDOF 10
ENDMDL
MODEL 2
REMARK VINA RESULT:    -7.297      1.154      1.583
REMARK INTER + INTRA:         -12.074
REMARK INTER:                 -10.280
REMARK INTRA:                  -1.794
REMARK CONF_INDEPENDENT:        2.983
REMARK UNBOUND:                -1.794
REMARK  10 active torsions:
REMARK  status: ('A' for Active; 'I' for Inactive)
REMARK    1  A    between atoms: C_3  and  N_4 
REMARK       I    between atoms: N_4  and  C_5 
REMARK    2  A    between atoms: C_5  and  C_7 
REMARK    3  A    between atoms: C_7  and  C_8 
REMARK    4  A    between atoms: C_8  and  N_9 
REMARK       I    between atoms: N_9  and  C_10 
REMARK       I    between atoms: C_10  and  N_12 
REMARK    5  A    between atoms: N_12  and  N_13 
REMARK       I    between atoms: N_13  and  C_14 
REMARK    6  A    between atoms: C_16  and  C_14 
REMARK    7  A    between atoms: C_16  and  O_18 
REMARK    8  A    between atoms: O_18  and  C_19 
REMARK    9  A    between atoms: C_22  and  O_23 
REMARK   10  A    between atoms: O_23  and  C_24 
ROOT
ATOM      1  C   UNL d   1      18.219 -21.365   1.307  0.00  0.00     0.014 C 
ATOM      2  C   UNL d   1      18.873 -20.541   0.712  0.00  0.00    -0.098 C 
ATOM      3  C   UNL d   1      19.618 -19.515  -0.031  0.00  0.00     0.216 C 
ENDROOT
BRANCH   3   4
ATOM      4  N   UNL d   1      21.062 -19.653   0.134  0.00  0.00    -0.351 N 
ATOM      5  C   UNL d   1      21.929 -18.735  -0.436  0.00  0.00     0.219 C 
ATOM      6  O   UNL d   1      21.510 -17.784  -1.090  0.00  0.00    -0.274 OA
ATOM      7  H   UNL d   1      21.401 -20.438   0.672  0.00  0.00     0.163 HD
BRANCH   5   8
ATOM      8  C   UNL d   1      23.436 -18.968  -0.205  0.00  0.00     0.122 C 
BRANCH   8   9
ATOM      9  C   UNL d   1      24.245 -17.646  -0.273  0.00  0.00     0.134 C 
BRANCH   9  10
ATOM     10  N   UNL d   1      24.566 -17.149  -1.634  0.00  0.00    -0.341 N 
ATOM     11  C   UNL d   1      25.693 -16.368  -1.877  0.00  0.00     0.334 C 
ATOM     12  O   UNL d   1      26.499 -16.064  -1.001  0.00  0.00    -0.246 OA
ATOM     13  N   UNL d   1      25.853 -15.945  -3.195  0.00  0.00    -0.249 N 
ATOM     14  H   UNL d   1      25.225 -16.181  -3.958  0.00  0.00     0.192 HD
ATOM     15  H   UNL d   1      23.933 -17.357  -2.391  0.00  0.00     0.164 HD
BRANCH  13  16
ATOM     16  N   UNL d   1      26.951 -15.061  -3.529  0.00  0.00    -0.264 N 
ATOM     17  C   UNL d   1      27.248 -14.797  -4.871  0.00  0.00     0.265 C 
ATOM     18  O   UNL d   1      26.519 -15.203  -5.782  0.00  0.00    -0.269 OA
ATOM     19  H   UNL d   1      27.583 -14.836  -2.761  0.00  0.00     0.190 HD
BRANCH  17  20
ATOM     20  C   UNL d   1      28.620 -14.085  -5.150  0.00  0.00     0.218 C 
ATOM     21  C   UNL d   1      28.706 -13.898  -6.675  0.00  0.00     0.050 C 
BRANCH  20  22
ATOM     22  O   UNL d   1      29.844 -14.732  -4.756  0.00  0.00    -0.337 OA
BRANCH  22  23
ATOM     23  C   UNL d   1      30.119 -15.957  -5.299  0.00  0.00     0.070 A 
ATOM     24  C   UNL d   1      29.788 -17.100  -4.571  0.00  0.00     0.039 A 
ATOM     25  C   UNL d   1      30.181 -18.374  -5.033  0.00  0.00     0.039 A 
ATOM     26  C   UNL d   1      30.818 -18.526  -6.269  0.00  0.00     0.068 A 
ATOM     27  C   UNL d   1      31.154 -17.388  -6.976  0.00  0.00     0.039 A 
ATOM     28  C   UNL d   1      30.826 -16.134  -6.481  0.00  0.00     0.039 A 
BRANCH  26  29
ATOM     29  O   UNL d   1      31.065 -19.799  -6.709  0.00  0.00    -0.352 OA
BRANCH  29  30
ATOM     30  C   UNL d   1      31.768 -19.900  -7.956  0.00  0.00     0.171 C 
ATOM     31  C   UNL d   1      30.784 -19.742  -9.098  0.00  0.00     0.034 C 
ENDBRANCH  29  30
ENDBRANCH  26  29
ENDBRANCH  22  23
ENDBRANCH  20  22
ENDBRANCH  17  20
ENDBRANCH  13  16
ENDBRANCH   9  10
ENDBRANCH   8   9
ENDBRANCH   5   8
ENDBRANCH   3   4
TORSDOF 10
ENDMDL
MODEL 3
REMARK VINA RESULT:    -6.897      1.954      2.541
REMARK INTER + INTRA:         -11.369
REMARK INTER:                  -9.880
REMARK INTRA:                  -1.490
REMARK CONF_INDEPENDENT:        2.983
REMARK UNBOUND:                -1.490
REMARK  10 active torsions:
REMARK  status: ('A' for Active; 'I' for Inactive)
REMARK    1  A    between atoms: C_3  and  N_4 
REMARK       I    between atoms: N_4  and  C_5 
REMARK    2  A    between atoms: C_5  and  C_7 
REMARK    3  A    between atoms: C_7  and  C_8 
REMARK    4  A    between atoms: C_8  and  N_9 
REMARK       I    between atoms: N_9  and  C_10 
REMARK       I    between atoms: C_10  and  N_12 
REMARK    5  A    between atoms: N_12  and  N_13 
REMARK       I    between atoms: N_13  and  C_14 
REMARK    6  A    between atoms: C_16  and  C_14 
REMARK    7  A    between atoms: C_16  and  O_18 
REMARK    8  A    between atoms: O_18  and  C_19 
REMARK    9  A    between atoms: C_22  and  O_23 
REMARK   10  A    between atoms: O_23  and  C_24 
ROOT
ATOM      1  C   UNL d   1      18.106 -21.298   0.810  0.00  0.00     0.014 C 
ATOM      2  C   UNL d   1      18.893 -20.584   0.235  0.00  0.00    -0.098 C 
ATOM      3  C   UNL d   1      19.808 -19.704  -0.506  0.00  0.00     0.216 C 
ENDROOT
BRANCH   3   4
ATOM      4  N   UNL d   1      21.118 -19.608   0.131  0.00  0.00    -0.351 N 
ATOM      5  C   UNL d   1      21.946 -18.525  -0.115  0.00  0.00     0.219 C 
ATOM      6  O   UNL d   1      21.602 -17.619  -0.872  0.00  0.00    -0.274 OA
ATOM      7  H   UNL d   1      21.396 -20.355   0.751  0.00  0.00     0.163 HD
BRANCH   5   8
ATOM      8  C   UNL d   1      23.309 -18.514   0.605  0.00  0.00     0.122 C 
BRANCH   8   9
ATOM      9  C   UNL d   1      24.477 -18.208  -0.368  0.00  0.00     0.134 C 
BRANCH   9  10
ATOM     10  N   UNL d   1      24.327 -16.991  -1.204  0.00  0.00    -0.341 N 
ATOM     11  C   UNL d   1      25.383 -16.493  -1.962  0.00  0.00     0.334 C 
ATOM     12  O   UNL d   1      26.486 -17.033  -2.011  0.00  0.00    -0.246 OA
ATOM     13  N   UNL d   1      25.110 -15.327  -2.673  0.00  0.00    -0.249 N 
ATOM     14  H   UNL d   1      24.213 -14.851  -2.680  0.00  0.00     0.192 HD
ATOM     15  H   UNL d   1      23.447 -16.499  -1.193  0.00  0.00     0.164 HD
BRANCH  13  16
ATOM     16  N   UNL d   1      26.170 -14.689  -3.427  0.00  0.00    -0.264 N 
ATOM     17  C   UNL d   1      26.331 -14.983  -4.786  0.00  0.00     0.265 C 
ATOM     18  O   UNL d   1      25.516 -15.684  -5.393  0.00  0.00    -0.269 OA
ATOM     19  H   UNL d   1      26.875 -14.206  -2.871  0.00  0.00     0.190 HD
BRANCH  17  20
ATOM     20  C   UNL d   1      27.669 -14.492  -5.446  0.00  0.00     0.218 C 
ATOM     21  C   UNL d   1      27.410 -13.053  -5.925  0.00  0.00     0.050 C 
BRANCH  20  22
ATOM     22  O   UNL d   1      28.200 -15.202  -6.580  0.00  0.00    -0.337 OA
BRANCH  22  23
ATOM     23  C   UNL d   1      29.560 -15.245  -6.725  0.00  0.00     0.070 A 
ATOM     24  C   UNL d   1      30.235 -14.065  -7.042  0.00  0.00     0.039 A 
ATOM     25  C   UNL d   1      31.615 -14.095  -7.335  0.00  0.00     0.039 A 
ATOM     26  C   UNL d   1      32.349 -15.281  -7.220  0.00  0.00     0.068 A 
ATOM     27  C   UNL d   1      31.669 -16.445  -6.920  0.00  0.00     0.039 A 
ATOM     28  C   UNL d   1      30.299 -16.419  -6.700  0.00  0.00     0.039 A 
BRANCH  26  29
ATOM     29  O   UNL d   1      33.704 -15.214  -7.405  0.00  0.00    -0.352 OA
BRANCH  29  30
ATOM     30  C   UNL d   1      34.170 -15.560  -8.717  0.00  0.00     0.171 C 
ATOM     31  C   UNL d   1      33.905 -14.406  -9.662  0.00  0.00     0.034 C 
ENDBRANCH  29  30
ENDBRANCH  26  29
ENDBRANCH  22  23
ENDBRANCH  20  22
ENDBRANCH  17  20
ENDBRANCH  13  16
ENDBRANCH   9  10
ENDBRANCH   8   9
ENDBRANCH   5   8
ENDBRANCH   3   4
TORSDOF 10
ENDMDL
MODEL 4
REMARK VINA RESULT:    -6.545      1.916      2.744
REMARK INTER + INTRA:         -11.115
REMARK INTER:                  -9.528
REMARK INTRA:                  -1.587
REMARK CONF_INDEPENDENT:        2.983
REMARK UNBOUND:                -1.587
REMARK  10 active torsions:
REMARK  status: ('A' for Active; 'I' for Inactive)
REMARK    1  A    between atoms: C_3  and  N_4 
REMARK       I    between atoms: N_4  and  C_5 
REMARK    2  A    between atoms: C_5  and  C_7 
REMARK    3  A    between atoms: C_7  and  C_8 
REMARK    4  A    between atoms: C_8  and  N_9 
REMARK       I    between atoms: N_9  and  C_10 
REMARK       I    between atoms: C_10  and  N_12 
REMARK    5  A    between atoms: N_12  and  N_13 
REMARK       I    between atoms: N_13  and  C_14 
REMARK    6  A    between atoms: C_16  and  C_14 
REMARK    7  A    between atoms: C_16  and  O_18 
REMARK    8  A    between atoms: O_18  and  C_19 
REMARK    9  A    between atoms: C_22  and  O_23 
REMARK   10  A    between atoms: O_23  and  C_24 
ROOT
ATOM      1  C   UNL d   1      19.159 -20.435   1.309  0.00  0.00     0.014 C 
ATOM      2  C   UNL d   1      19.513 -19.998   0.239  0.00  0.00    -0.098 C 
ATOM      3  C   UNL d   1      19.919 -19.515  -1.089  0.00  0.00     0.216 C 
ENDROOT
BRANCH   3   4
ATOM      4  N   UNL d   1      20.597 -18.224  -1.023  0.00  0.00    -0.351 N 
ATOM      5  C   UNL d   1      21.911 -18.137  -0.593  0.00  0.00     0.219 C 
ATOM      6  O   UNL d   1      22.539 -19.139  -0.258  0.00  0.00    -0.274 OA
ATOM      7  H   UNL d   1      20.075 -17.403  -1.298  0.00  0.00     0.163 HD
BRANCH   5   8
ATOM      8  C   UNL d   1      22.538 -16.729  -0.558  0.00  0.00     0.122 C 
BRANCH   8   9
ATOM      9  C   UNL d   1      24.081 -16.778  -0.706  0.00  0.00     0.134 C 
BRANCH   9  10
ATOM     10  N   UNL d   1      24.629 -16.271  -1.989  0.00  0.00    -0.341 N 
ATOM     11  C   UNL d   1      25.999 -16.237  -2.234  0.00  0.00     0.334 C 
ATOM     12  O   UNL d   1      26.834 -16.641  -1.428  0.00  0.00    -0.246 OA
ATOM     13  N   UNL d   1      26.372 -15.707  -3.467  0.00  0.00    -0.249 N 
ATOM     14  H   UNL d   1      25.723 -15.374  -4.173  0.00  0.00     0.192 HD
ATOM     15  H   UNL d   1      23.991 -15.914  -2.684  0.00  0.00     0.164 HD
BRANCH  13  16
ATOM     16  N   UNL d   1      27.779 -15.556  -3.779  0.00  0.00    -0.264 N 
ATOM     17  C   UNL d   1      28.180 -15.364  -5.106  0.00  0.00     0.265 C 
ATOM     18  O   UNL d   1      27.354 -15.199  -6.010  0.00  0.00    -0.269 OA
ATOM     19  H   UNL d   1      28.424 -15.801  -3.029  0.00  0.00     0.190 HD
BRANCH  17  20
ATOM     20  C   UNL d   1      29.717 -15.513  -5.393  0.00  0.00     0.218 C 
ATOM     21  C   UNL d   1      30.194 -14.143  -5.907  0.00  0.00     0.050 C 
BRANCH  20  22
ATOM     22  O   UNL d   1      30.166 -16.481  -6.358  0.00  0.00    -0.337 OA
BRANCH  22  23
ATOM     23  C   UNL d   1      30.408 -17.754  -5.918  0.00  0.00     0.070 A 
ATOM     24  C   UNL d   1      30.795 -17.939  -4.590  0.00  0.00     0.039 A 
ATOM     25  C   UNL d   1      31.187 -19.216  -4.138  0.00  0.00     0.039 A 
ATOM     26  C   UNL d   1      31.103 -20.333  -4.975  0.00  0.00     0.068 A 
ATOM     27  C   UNL d   1      30.732 -20.138  -6.292  0.00  0.00     0.039 A 
ATOM     28  C   UNL d   1      30.414 -18.866  -6.748  0.00  0.00     0.039 A 
BRANCH  26  29
ATOM     29  O   UNL d   1      31.387 -21.560  -4.437  0.00  0.00    -0.352 OA
BRANCH  29  30
ATOM     30  C   UNL d   1      30.269 -22.270  -3.884  0.00  0.00     0.171 C 
ATOM     31  C   UNL d   1      30.707 -23.667  -3.495  0.00  0.00     0.034 C 
ENDBRANCH  29  30
ENDBRANCH  26  29
ENDBRANCH  22  23
ENDBRANCH  20  22
ENDBRANCH  17  20
ENDBRANCH  13  16
ENDBRANCH   9  10
ENDBRANCH   8   9
ENDBRANCH   5   8
ENDBRANCH   3   4
TORSDOF 10
ENDMDL
MODEL 5
REMARK VINA RESULT:    -6.435      2.754      6.124
REMARK INTER + INTRA:         -11.822
REMARK INTER:                  -9.418
REMARK INTRA:                  -2.403
REMARK CONF_INDEPENDENT:        2.983
REMARK UNBOUND:                -2.403
REMARK  10 active torsions:
REMARK  status: ('A' for Active; 'I' for Inactive)
REMARK    1  A    between atoms: C_3  and  N_4 
REMARK       I    between atoms: N_4  and  C_5 
REMARK    2  A    between atoms: C_5  and  C_7 
REMARK    3  A    between atoms: C_7  and  C_8 
REMARK    4  A    between atoms: C_8  and  N_9 
REMARK       I    between atoms: N_9  and  C_10 
REMARK       I    between atoms: C_10  and  N_12 
REMARK    5  A    between atoms: N_12  and  N_13 
REMARK       I    between atoms: N_13  and  C_14 
REMARK    6  A    between atoms: C_16  and  C_14 
REMARK    7  A    between atoms: C_16  and  O_18 
REMARK    8  A    between atoms: O_18  and  C_19 
REMARK    9  A    between atoms: C_22  and  O_23 
REMARK   10  A    between atoms: O_23  and  C_24 
ROOT
ATOM      1  C   UNL d   1      18.722 -20.827   0.915  0.00  0.00     0.014 C 
ATOM      2  C   UNL d   1      19.533 -20.272   0.212  0.00  0.00    -0.098 C 
ATOM      3  C   UNL d   1      20.480 -19.599  -0.689  0.00  0.00     0.216 C 
ENDROOT
BRANCH   3   4
ATOM      4  N   UNL d   1      21.744 -19.288  -0.028  0.00  0.00    -0.351 N 
ATOM      5  C   UNL d   1      22.872 -18.979  -0.770  0.00  0.00     0.219 C 
ATOM      6  O   UNL d   1      22.840 -18.955  -1.998  0.00  0.00    -0.274 OA
ATOM      7  H   UNL d   1      21.765 -19.310   0.982  0.00  0.00     0.163 HD
BRANCH   5   8
ATOM      8  C   UNL d   1      24.159 -18.666   0.020  0.00  0.00     0.122 C 
BRANCH   8   9
ATOM      9  C   UNL d   1      24.719 -17.259  -0.317  0.00  0.00     0.134 C 
BRANCH   9  10
ATOM     10  N   UNL d   1      24.880 -16.950  -1.760  0.00  0.00    -0.341 N 
ATOM     11  C   UNL d   1      25.588 -15.831  -2.191  0.00  0.00     0.334 C 
ATOM     12  O   UNL d   1      26.141 -15.050  -1.420  0.00  0.00    -0.246 OA
ATOM     13  N   UNL d   1      25.631 -15.648  -3.571  0.00  0.00    -0.249 N 
ATOM     14  H   UNL d   1      25.205 -16.270  -4.250  0.00  0.00     0.192 HD
ATOM     15  H   UNL d   1      24.436 -17.550  -2.438  0.00  0.00     0.164 HD
BRANCH  13  16
ATOM     16  N   UNL d   1      26.275 -14.468  -4.111  0.00  0.00    -0.264 N 
ATOM     17  C   UNL d   1      26.835 -14.506  -5.393  0.00  0.00     0.265 C 
ATOM     18  O   UNL d   1      26.688 -15.487  -6.129  0.00  0.00    -0.269 OA
ATOM     19  H   UNL d   1      26.465 -13.725  -3.439  0.00  0.00     0.190 HD
BRANCH  17  20
ATOM     20  C   UNL d   1      27.768 -13.302  -5.778  0.00  0.00     0.218 C 
ATOM     21  C   UNL d   1      29.155 -13.906  -6.061  0.00  0.00     0.050 C 
BRANCH  20  22
ATOM     22  O   UNL d   1      27.979 -12.241  -4.829  0.00  0.00    -0.337 OA
BRANCH  22  23
ATOM     23  C   UNL d   1      27.258 -11.089  -4.992  0.00  0.00     0.070 A 
ATOM     24  C   UNL d   1      27.542 -10.001  -4.166  0.00  0.00     0.039 A 
ATOM     25  C   UNL d   1      26.731  -8.848  -4.208  0.00  0.00     0.039 A 
ATOM     26  C   UNL d   1      25.693  -8.732  -5.139  0.00  0.00     0.068 A 
ATOM     27  C   UNL d   1      25.410  -9.820  -5.942  0.00  0.00     0.039 A 
ATOM     28  C   UNL d   1      26.170 -10.977  -5.847  0.00  0.00     0.039 A 
BRANCH  26  29
ATOM     29  O   UNL d   1      25.022  -7.540  -5.203  0.00  0.00    -0.352 OA
BRANCH  29  30
ATOM     30  C   UNL d   1      23.600  -7.617  -5.021  0.00  0.00     0.171 C 
ATOM     31  C   UNL d   1      22.911  -7.326  -6.338  0.00  0.00     0.034 C 
ENDBRANCH  29  30
ENDBRANCH  26  29
ENDBRANCH  22  23
ENDBRANCH  20  22
ENDBRANCH  17  20
ENDBRANCH  13  16
ENDBRANCH   9  10
ENDBRANCH   8   9
ENDBRANCH   5   8
ENDBRANCH   3   4
TORSDOF 10
ENDMDL
MODEL 6
REMARK VINA RESULT:    -6.330      4.512      8.741
REMARK INTER + INTRA:         -11.850
REMARK INTER:                  -9.313
REMARK INTRA:                  -2.538
REMARK CONF_INDEPENDENT:        2.983
REMARK UNBOUND:                -2.538
REMARK  10 active torsions:
REMARK  status: ('A' for Active; 'I' for Inactive)
REMARK    1  A    between atoms: C_3  and  N_4 
REMARK       I    between atoms: N_4  and  C_5 
REMARK    2  A    between atoms: C_5  and  C_7 
REMARK    3  A    between atoms: C_7  and  C_8 
REMARK    4  A    between atoms: C_8  and  N_9 
REMARK       I    between atoms: N_9  and  C_10 
REMARK       I    between atoms: C_10  and  N_12 
REMARK    5  A    between atoms: N_12  and  N_13 
REMARK       I    between atoms: N_13  and  C_14 
REMARK    6  A    between atoms: C_16  and  C_14 
REMARK    7  A    between atoms: C_16  and  O_18 
REMARK    8  A    between atoms: O_18  and  C_19 
REMARK    9  A    between atoms: C_22  and  O_23 
REMARK   10  A    between atoms: O_23  and  C_24 
ROOT
ATOM      1  C   UNL d   1      27.413 -12.149  -0.236  0.00  0.00     0.014 C 
ATOM      2  C   UNL d   1      27.472 -10.999   0.134  0.00  0.00    -0.098 C 
ATOM      3  C   UNL d   1      27.571  -9.620   0.633  0.00  0.00     0.216 C 
ENDROOT
BRANCH   3   4
ATOM      4  N   UNL d   1      26.970  -8.657  -0.284  0.00  0.00    -0.351 N 
ATOM      5  C   UNL d   1      25.849  -7.933   0.087  0.00  0.00     0.219 C 
ATOM      6  O   UNL d   1      25.333  -8.079   1.193  0.00  0.00    -0.274 OA
ATOM      7  H   UNL d   1      27.397  -8.541  -1.193  0.00  0.00     0.163 HD
BRANCH   5   8
ATOM      8  C   UNL d   1      25.288  -6.941  -0.951  0.00  0.00     0.122 C 
BRANCH   8   9
ATOM      9  C   UNL d   1      25.648  -7.353  -2.402  0.00  0.00     0.134 C 
BRANCH   9  10
ATOM     10  N   UNL d   1      25.156  -8.682  -2.844  0.00  0.00    -0.341 N 
ATOM     11  C   UNL d   1      26.031  -9.722  -3.140  0.00  0.00     0.334 C 
ATOM     12  O   UNL d   1      27.251  -9.623  -3.032  0.00  0.00    -0.246 OA
ATOM     13  N   UNL d   1      25.431 -10.902  -3.573  0.00  0.00    -0.249 N 
ATOM     14  H   UNL d   1      24.429 -11.042  -3.664  0.00  0.00     0.192 HD
ATOM     15  H   UNL d   1      24.163  -8.818  -2.962  0.00  0.00     0.164 HD
BRANCH  13  16
ATOM     16  N   UNL d   1      26.264 -12.015  -3.981  0.00  0.00    -0.264 N 
ATOM     17  C   UNL d   1      25.690 -13.273  -4.193  0.00  0.00     0.265 C 
ATOM     18  O   UNL d   1      24.466 -13.435  -4.158  0.00  0.00    -0.269 OA
ATOM     19  H   UNL d   1      27.269 -11.866  -3.896  0.00  0.00     0.190 HD
BRANCH  17  20
ATOM     20  C   UNL d   1      26.690 -14.477  -4.334  0.00  0.00     0.218 C 
ATOM     21  C   UNL d   1      25.906 -15.611  -5.017  0.00  0.00     0.050 C 
BRANCH  20  22
ATOM     22  O   UNL d   1      27.275 -15.051  -3.151  0.00  0.00    -0.337 OA
BRANCH  22  23
ATOM     23  C   UNL d   1      26.461 -15.783  -2.329  0.00  0.00     0.070 A 
ATOM     24  C   UNL d   1      25.122 -15.409  -2.211  0.00  0.00     0.039 A 
ATOM     25  C   UNL d   1      24.288 -16.050  -1.271  0.00  0.00     0.039 A 
ATOM     26  C   UNL d   1      24.754 -17.130  -0.514  0.00  0.00     0.068 A 
ATOM     27  C   UNL d   1      26.084 -17.483  -0.628  0.00  0.00     0.039 A 
ATOM     28  C   UNL d   1      26.917 -16.803  -1.505  0.00  0.00     0.039 A 
BRANCH  26  29
ATOM     29  O   UNL d   1      23.858 -17.780   0.293  0.00  0.00    -0.352 OA
BRANCH  29  30
ATOM     30  C   UNL d   1      22.514 -17.856  -0.206  0.00  0.00     0.171 C 
ATOM     31  C   UNL d   1      22.431 -18.948  -1.253  0.00  0.00     0.034 C 
ENDBRANCH  29  30
ENDBRANCH  26  29
ENDBRANCH  22  23
ENDBRANCH  20  22
ENDBRANCH  17  20
ENDBRANCH  13  16
ENDBRANCH   9  10
ENDBRANCH   8   9
ENDBRANCH   5   8
ENDBRANCH   3   4
TORSDOF 10
ENDMDL
MODEL 7
REMARK VINA RESULT:    -6.149      2.670      4.619
REMARK INTER + INTRA:         -11.343
REMARK INTER:                  -9.132
REMARK INTRA:                  -2.211
REMARK CONF_INDEPENDENT:        2.983
REMARK UNBOUND:                -2.211
REMARK  10 active torsions:
REMARK  status: ('A' for Active; 'I' for Inactive)
REMARK    1  A    between atoms: C_3  and  N_4 
REMARK       I    between atoms: N_4  and  C_5 
REMARK    2  A    between atoms: C_5  and  C_7 
REMARK    3  A    between atoms: C_7  and  C_8 
REMARK    4  A    between atoms: C_8  and  N_9 
REMARK       I    between atoms: N_9  and  C_10 
REMARK       I    between atoms: C_10  and  N_12 
REMARK    5  A    between atoms: N_12  and  N_13 
REMARK       I    between atoms: N_13  and  C_14 
REMARK    6  A    between atoms: C_16  and  C_14 
REMARK    7  A    between atoms: C_16  and  O_18 
REMARK    8  A    between atoms: O_18  and  C_19 
REMARK    9  A    between atoms: C_22  and  O_23 
REMARK   10  A    between atoms: O_23  and  C_24 
ROOT
ATOM      1  C   UNL d   1      18.758 -20.436   2.125  0.00  0.00     0.014 C 
ATOM      2  C   UNL d   1      19.345 -20.200   1.095  0.00  0.00    -0.098 C 
ATOM      3  C   UNL d   1      20.009 -19.928  -0.188  0.00  0.00     0.216 C 
ENDROOT
BRANCH   3   4
ATOM      4  N   UNL d   1      21.394 -19.503  -0.013  0.00  0.00    -0.351 N 
ATOM      5  C   UNL d   1      21.828 -18.286  -0.511  0.00  0.00     0.219 C 
ATOM      6  O   UNL d   1      21.063 -17.533  -1.110  0.00  0.00    -0.274 OA
ATOM      7  H   UNL d   1      22.020 -20.126   0.480  0.00  0.00     0.163 HD
BRANCH   5   8
ATOM      8  C   UNL d   1      23.309 -17.927  -0.275  0.00  0.00     0.122 C 
BRANCH   8   9
ATOM      9  C   UNL d   1      23.675 -16.546  -0.880  0.00  0.00     0.134 C 
BRANCH   9  10
ATOM     10  N   UNL d   1      24.826 -16.529  -1.817  0.00  0.00    -0.341 N 
ATOM     11  C   UNL d   1      25.010 -15.493  -2.728  0.00  0.00     0.334 C 
ATOM     12  O   UNL d   1      24.258 -14.524  -2.800  0.00  0.00    -0.246 OA
ATOM     13  N   UNL d   1      26.114 -15.623  -3.566  0.00  0.00    -0.249 N 
ATOM     14  H   UNL d   1      26.774 -16.395  -3.537  0.00  0.00     0.192 HD
ATOM     15  H   UNL d   1      25.470 -17.306  -1.811  0.00  0.00     0.164 HD
BRANCH  13  16
ATOM     16  N   UNL d   1      26.342 -14.635  -4.601  0.00  0.00    -0.264 N 
ATOM     17  C   UNL d   1      27.440 -14.766  -5.458  0.00  0.00     0.265 C 
ATOM     18  O   UNL d   1      28.158 -15.770  -5.434  0.00  0.00    -0.269 OA
ATOM     19  H   UNL d   1      25.795 -13.779  -4.518  0.00  0.00     0.190 HD
BRANCH  17  20
ATOM     20  C   UNL d   1      27.783 -13.511  -6.339  0.00  0.00     0.218 C 
ATOM     21  C   UNL d   1      29.298 -13.574  -6.606  0.00  0.00     0.050 C 
BRANCH  20  22
ATOM     22  O   UNL d   1      27.522 -12.193  -5.825  0.00  0.00    -0.337 OA
BRANCH  22  23
ATOM     23  C   UNL d   1      27.466 -12.040  -4.466  0.00  0.00     0.070 A 
ATOM     24  C   UNL d   1      28.552 -12.466  -3.701  0.00  0.00     0.039 A 
ATOM     25  C   UNL d   1      28.475 -12.454  -2.292  0.00  0.00     0.039 A 
ATOM     26  C   UNL d   1      27.358 -11.925  -1.637  0.00  0.00     0.068 A 
ATOM     27  C   UNL d   1      26.282 -11.519  -2.403  0.00  0.00     0.039 A 
ATOM     28  C   UNL d   1      26.338 -11.599  -3.787  0.00  0.00     0.039 A 
BRANCH  26  29
ATOM     29  O   UNL d   1      27.399 -11.836  -0.272  0.00  0.00    -0.352 OA
BRANCH  29  30
ATOM     30  C   UNL d   1      26.675 -12.851   0.440  0.00  0.00     0.171 C 
ATOM     31  C   UNL d   1      27.522 -14.105   0.521  0.00  0.00     0.034 C 
ENDBRANCH  29  30
ENDBRANCH  26  29
ENDBRANCH  22  23
ENDBRANCH  20  22
ENDBRANCH  17  20
ENDBRANCH  13  16
ENDBRANCH   9  10
ENDBRANCH   8   9
ENDBRANCH   5   8
ENDBRANCH   3   4
TORSDOF 10
ENDMDL
MODEL 8
REMARK VINA RESULT:    -6.007      7.327      9.887
REMARK INTER + INTRA:         -11.125
REMARK INTER:                  -8.990
REMARK INTRA:                  -2.135
REMARK CONF_INDEPENDENT:        2.983
REMARK UNBOUND:                -2.135
REMARK  10 active torsions:
REMARK  status: ('A' for Active; 'I' for Inactive)
REMARK    1  A    between atoms: C_3  and  N_4 
REMARK       I    between atoms: N_4  and  C_5 
REMARK    2  A    between atoms: C_5  and  C_7 
REMARK    3  A    between atoms: C_7  and  C_8 
REMARK    4  A    between atoms: C_8  and  N_9 
REMARK       I    between atoms: N_9  and  C_10 
REMARK       I    between atoms: C_10  and  N_12 
REMARK    5  A    between atoms: N_12  and  N_13 
REMARK       I    between atoms: N_13  and  C_14 
REMARK    6  A    between atoms: C_16  and  C_14 
REMARK    7  A    between atoms: C_16  and  O_18 
REMARK    8  A    between atoms: O_18  and  C_19 
REMARK    9  A    between atoms: C_22  and  O_23 
REMARK   10  A    between atoms: O_23  and  C_24 
ROOT
ATOM      1  C   UNL d   1      27.783 -14.697   4.745  0.00  0.00     0.014 C 
ATOM      2  C   UNL d   1      27.806 -13.734   5.475  0.00  0.00    -0.098 C 
ATOM      3  C   UNL d   1      27.781 -12.581   6.387  0.00  0.00     0.216 C 
ENDROOT
BRANCH   3   4
ATOM      4  N   UNL d   1      28.952 -11.725   6.226  0.00  0.00    -0.351 N 
ATOM      5  C   UNL d   1      29.800 -11.479   7.293  0.00  0.00     0.219 C 
ATOM      6  O   UNL d   1      29.593 -11.975   8.398  0.00  0.00    -0.274 OA
ATOM      7  H   UNL d   1      29.117 -11.319   5.314  0.00  0.00     0.163 HD
BRANCH   5   8
ATOM      8  C   UNL d   1      31.010 -10.562   7.022  0.00  0.00     0.122 C 
BRANCH   8   9
ATOM      9  C   UNL d   1      31.480 -10.642   5.547  0.00  0.00     0.134 C 
BRANCH   9  10
ATOM     10  N   UNL d   1      31.652 -12.007   4.990  0.00  0.00    -0.341 N 
ATOM     11  C   UNL d   1      30.793 -12.512   4.019  0.00  0.00     0.334 C 
ATOM     12  O   UNL d   1      29.863 -11.864   3.544  0.00  0.00    -0.246 OA
ATOM     13  N   UNL d   1      31.054 -13.819   3.612  0.00  0.00    -0.249 N 
ATOM     14  H   UNL d   1      31.817 -14.391   3.960  0.00  0.00     0.192 HD
ATOM     15  H   UNL d   1      32.392 -12.590   5.352  0.00  0.00     0.164 HD
BRANCH  13  16
ATOM     16  N   UNL d   1      30.165 -14.459   2.664  0.00  0.00    -0.264 N 
ATOM     17  C   UNL d   1      29.874 -13.830   1.448  0.00  0.00     0.265 C 
ATOM     18  O   UNL d   1      30.452 -12.794   1.106  0.00  0.00    -0.269 OA
ATOM     19  H   UNL d   1      29.634 -15.251   3.026  0.00  0.00     0.190 HD
BRANCH  17  20
ATOM     20  C   UNL d   1      28.682 -14.435   0.623  0.00  0.00     0.218 C 
ATOM     21  C   UNL d   1      27.403 -14.114   1.416  0.00  0.00     0.050 C 
BRANCH  20  22
ATOM     22  O   UNL d   1      28.648 -15.850   0.364  0.00  0.00    -0.337 OA
BRANCH  22  23
ATOM     23  C   UNL d   1      27.453 -16.400  -0.013  0.00  0.00     0.070 A 
ATOM     24  C   UNL d   1      26.976 -17.507   0.689  0.00  0.00     0.039 A 
ATOM     25  C   UNL d   1      25.821 -18.185   0.244  0.00  0.00     0.039 A 
ATOM     26  C   UNL d   1      25.080 -17.708  -0.842  0.00  0.00     0.068 A 
ATOM     27  C   UNL d   1      25.569 -16.620  -1.539  0.00  0.00     0.039 A 
ATOM     28  C   UNL d   1      26.743 -16.000  -1.137  0.00  0.00     0.039 A 
BRANCH  26  29
ATOM     29  O   UNL d   1      23.908 -18.346  -1.146  0.00  0.00    -0.352 OA
BRANCH  29  30
ATOM     30  C   UNL d   1      22.839 -18.163  -0.206  0.00  0.00     0.171 C 
ATOM     31  C   UNL d   1      21.630 -18.952  -0.665  0.00  0.00     0.034 C 
ENDBRANCH  29  30
ENDBRANCH  26  29
ENDBRANCH  22  23
ENDBRANCH  20  22
ENDBRANCH  17  20
ENDBRANCH  13  16
ENDBRANCH   9  10
ENDBRANCH   8   9
ENDBRANCH   5   8
ENDBRANCH   3   4
TORSDOF 10
ENDMDL
MODEL 9
REMARK VINA RESULT:    -5.976      2.902      9.293
REMARK INTER + INTRA:         -11.116
REMARK INTER:                  -8.959
REMARK INTRA:                  -2.157
REMARK CONF_INDEPENDENT:        2.983
REMARK UNBOUND:                -2.157
REMARK  10 active torsions:
REMARK  status: ('A' for Active; 'I' for Inactive)
REMARK    1  A    between atoms: C_3  and  N_4 
REMARK       I    between atoms: N_4  and  C_5 
REMARK    2  A    between atoms: C_5  and  C_7 
REMARK    3  A    between atoms: C_7  and  C_8 
REMARK    4  A    between atoms: C_8  and  N_9 
REMARK       I    between atoms: N_9  and  C_10 
REMARK       I    between atoms: C_10  and  N_12 
REMARK    5  A    between atoms: N_12  and  N_13 
REMARK       I    between atoms: N_13  and  C_14 
REMARK    6  A    between atoms: C_16  and  C_14 
REMARK    7  A    between atoms: C_16  and  O_18 
REMARK    8  A    between atoms: O_18  and  C_19 
REMARK    9  A    between atoms: C_22  and  O_23 
REMARK   10  A    between atoms: O_23  and  C_24 
ROOT
ATOM      1  C   UNL d   1      31.909 -21.235  -4.340  0.00  0.00     0.014 C 
ATOM      2  C   UNL d   1      31.165 -20.598  -5.048  0.00  0.00    -0.098 C 
ATOM      3  C   UNL d   1      30.215 -19.863  -5.896  0.00  0.00     0.216 C 
ENDROOT
BRANCH   3   4
ATOM      4  N   UNL d   1      30.825 -18.695  -6.521  0.00  0.00    -0.351 N 
ATOM      5  C   UNL d   1      31.286 -18.751  -7.827  0.00  0.00     0.219 C 
ATOM      6  O   UNL d   1      31.192 -19.780  -8.491  0.00  0.00    -0.274 OA
ATOM      7  H   UNL d   1      30.901 -17.851  -5.970  0.00  0.00     0.163 HD
BRANCH   5   8
ATOM      8  C   UNL d   1      31.914 -17.464  -8.398  0.00  0.00     0.122 C 
BRANCH   8   9
ATOM      9  C   UNL d   1      31.867 -16.294  -7.381  0.00  0.00     0.134 C 
BRANCH   9  10
ATOM     10  N   UNL d   1      30.578 -15.564  -7.286  0.00  0.00    -0.341 N 
ATOM     11  C   UNL d   1      29.655 -15.842  -6.282  0.00  0.00     0.334 C 
ATOM     12  O   UNL d   1      29.851 -16.679  -5.404  0.00  0.00    -0.246 OA
ATOM     13  N   UNL d   1      28.475 -15.102  -6.334  0.00  0.00    -0.249 N 
ATOM     14  H   UNL d   1      28.270 -14.390  -7.028  0.00  0.00     0.192 HD
ATOM     15  H   UNL d   1      30.357 -14.874  -7.988  0.00  0.00     0.164 HD
BRANCH  13  16
ATOM     16  N   UNL d   1      27.421 -15.378  -5.380  0.00  0.00    -0.264 N 
ATOM     17  C   UNL d   1      26.557 -14.351  -4.982  0.00  0.00     0.265 C 
ATOM     18  O   UNL d   1      26.593 -13.238  -5.516  0.00  0.00    -0.269 OA
ATOM     19  H   UNL d   1      27.493 -16.270  -4.891  0.00  0.00     0.190 HD
BRANCH  17  20
ATOM     20  C   UNL d   1      25.650 -14.653  -3.735  0.00  0.00     0.218 C 
ATOM     21  C   UNL d   1      25.164 -13.289  -3.216  0.00  0.00     0.050 C 
BRANCH  20  22
ATOM     22  O   UNL d   1      26.214 -15.335  -2.600  0.00  0.00    -0.337 OA
BRANCH  22  23
ATOM     23  C   UNL d   1      25.402 -16.188  -1.902  0.00  0.00     0.070 A 
ATOM     24  C   UNL d   1      24.066 -15.831  -1.711  0.00  0.00     0.039 A 
ATOM     25  C   UNL d   1      23.235 -16.613  -0.881  0.00  0.00     0.039 A 
ATOM     26  C   UNL d   1      23.700 -17.806  -0.317  0.00  0.00     0.068 A 
ATOM     27  C   UNL d   1      25.027 -18.143  -0.500  0.00  0.00     0.039 A 
ATOM     28  C   UNL d   1      25.857 -17.332  -1.261  0.00  0.00     0.039 A 
BRANCH  26  29
ATOM     29  O   UNL d   1      22.807 -18.574   0.380  0.00  0.00    -0.352 OA
BRANCH  29  30
ATOM     30  C   UNL d   1      21.731 -19.130  -0.390  0.00  0.00     0.171 C 
ATOM     31  C   UNL d   1      20.539 -19.368   0.514  0.00  0.00     0.034 C 
ENDBRANCH  29  30
ENDBRANCH  26  29
ENDBRANCH  22  23
ENDBRANCH  20  22
ENDBRANCH  17  20
ENDBRANCH  13  16
ENDBRANCH   9  10
ENDBRANCH   8   9
ENDBRANCH   5   8
ENDBRANCH   3   4
TORSDOF 10
ENDMDL
