MODEL 1
REMARK VINA RESULT:    -7.863      0.000      0.000
REMARK INTER + INTRA:         -10.175
REMARK INTER:                  -9.056
REMARK INTRA:                  -1.119
REMARK CONF_INDEPENDENT:        1.193
REMARK UNBOUND:                -1.119
REMARK  4 active torsions:
REMARK  status: ('A' for Active; 'I' for Inactive)
REMARK    1  A    between atoms: O_2  and  C_3 
REMARK       I    between atoms: C_3  and  N_5 
REMARK    2  A    between atoms: N_5  and  N_6 
REMARK       I    between atoms: N_6  and  C_7 
REMARK       I    between atoms: C_7  and  N_9 
REMARK    3  A    between atoms: N_9  and  C_10 
REMARK    4  A    between atoms: C_10  and  C_12 
ROOT
ATOM      1  N   UNL d   1      21.895 -18.437  -0.818  0.00  0.00    -0.247 N 
ATOM      2  C   UNL d   1      23.130 -17.932  -0.430  0.00  0.00     0.335 C 
ATOM      3  O   UNL d   1      23.713 -18.360   0.564  0.00  0.00    -0.246 OA
ATOM      4  N   UNL d   1      23.659 -16.954  -1.261  0.00  0.00    -0.334 N 
ATOM      5  H   UNL d   1      21.356 -18.087  -1.603  0.00  0.00     0.192 HD
ATOM      6  H   UNL d   1      23.107 -16.579  -2.018  0.00  0.00     0.165 HD
ENDROOT
BRANCH   4   7
ATOM      7  C   UNL d   1      24.982 -16.332  -1.018  0.00  0.00     0.115 C 
ATOM      8  C   UNL d   1      26.020 -17.380  -0.587  0.00  0.00     0.037 C 
BRANCH   7   9
ATOM      9  C   UNL d   1      25.504 -15.542  -2.232  0.00  0.00    -0.035 A 
ATOM     10  C   UNL d   1      24.803 -14.450  -2.773  0.00  0.00     0.010 A 
ATOM     11  C   UNL d   1      25.282 -13.738  -3.880  0.00  0.00     0.008 A 
ATOM     12  C   UNL d   1      26.503 -14.077  -4.472  0.00  0.00    -0.052 A 
ATOM     13  C   UNL d   1      27.203 -15.191  -3.981  0.00  0.00    -0.051 A 
ATOM     14  C   UNL d   1      27.030 -13.257  -5.628  0.00  0.00     0.039 C 
ATOM     15  C   UNL d   1      26.700 -15.910  -2.872  0.00  0.00     0.017 A 
ATOM     16  C   UNL d   1      28.551 -15.575  -4.545  0.00  0.00     0.039 C 
ATOM     17  C   UNL d   1      28.864 -14.949  -5.900  0.00  0.00     0.005 C 
ATOM     18  C   UNL d   1      28.527 -13.464  -5.870  0.00  0.00     0.005 C 
ENDBRANCH   7   9
ENDBRANCH   4   7
BRANCH   1  19
ATOM     19  N   UNL d   1      21.284 -19.497  -0.054  0.00  0.00    -0.241 N 
ATOM     20  C   UNL d   1      20.079 -20.060  -0.440  0.00  0.00     0.379 C 
ATOM     21  O   UNL d   1      19.450 -19.700  -1.436  0.00  0.00    -0.237 OA
ATOM     22  H   UNL d   1      21.784 -19.819   0.773  0.00  0.00     0.192 HD
BRANCH  20  23
ATOM     23  O   UNL d   1      19.666 -21.055   0.403  0.00  0.00    -0.308 OA
ATOM     24  C   UNL d   1      18.351 -20.883   0.981  0.00  0.00     0.215 C 
ENDBRANCH  20  23
ENDBRANCH   1  19
TORSDOF 4
ENDMDL
MODEL 2
REMARK VINA RESULT:    -7.769      0.906      1.851
REMARK INTER + INTRA:         -10.140
REMARK INTER:                  -8.963
REMARK INTRA:                  -1.177
REMARK CONF_INDEPENDENT:        1.193
REMARK UNBOUND:                -1.177
REMARK  4 active torsions:
REMARK  status: ('A' for Active; 'I' for Inactive)
REMARK    1  A    between atoms: O_2  and  C_3 
REMARK       I    between atoms: C_3  and  N_5 
REMARK    2  A    between atoms: N_5  and  N_6 
REMARK       I    between atoms: N_6  and  C_7 
REMARK       I    between atoms: C_7  and  N_9 
REMARK    3  A    between atoms: N_9  and  C_10 
REMARK    4  A    between atoms: C_10  and  C_12 
ROOT
ATOM      1  N   UNL d   1      22.120 -18.779  -0.773  0.00  0.00    -0.247 N 
ATOM      2  C   UNL d   1      23.294 -18.315  -0.193  0.00  0.00     0.335 C 
ATOM      3  O   UNL d   1      23.570 -18.561   0.980  0.00  0.00    -0.246 OA
ATOM      4  N   UNL d   1      24.132 -17.601  -1.039  0.00  0.00    -0.334 N 
ATOM      5  H   UNL d   1      21.829 -18.566  -1.721  0.00  0.00     0.192 HD
ATOM      6  H   UNL d   1      23.826 -17.356  -1.968  0.00  0.00     0.165 HD
ENDROOT
BRANCH   4   7
ATOM      7  C   UNL d   1      25.441 -17.064  -0.597  0.00  0.00     0.115 C 
ATOM      8  C   UNL d   1      26.382 -18.191  -0.144  0.00  0.00     0.037 C 
BRANCH   7   9
ATOM      9  C   UNL d   1      26.129 -16.204  -1.672  0.00  0.00    -0.035 A 
ATOM     10  C   UNL d   1      27.500 -16.325  -1.964  0.00  0.00     0.010 A 
ATOM     11  C   UNL d   1      28.120 -15.536  -2.942  0.00  0.00     0.008 A 
ATOM     12  C   UNL d   1      27.382 -14.611  -3.687  0.00  0.00    -0.052 A 
ATOM     13  C   UNL d   1      26.021 -14.437  -3.385  0.00  0.00    -0.051 A 
ATOM     14  C   UNL d   1      28.060 -13.813  -4.777  0.00  0.00     0.039 C 
ATOM     15  C   UNL d   1      25.411 -15.230  -2.386  0.00  0.00     0.017 A 
ATOM     16  C   UNL d   1      25.159 -13.492  -4.189  0.00  0.00     0.039 C 
ATOM     17  C   UNL d   1      25.945 -12.483  -5.022  0.00  0.00     0.005 C 
ATOM     18  C   UNL d   1      27.067 -13.194  -5.765  0.00  0.00     0.005 C 
ENDBRANCH   7   9
ENDBRANCH   4   7
BRANCH   1  19
ATOM     19  N   UNL d   1      21.207 -19.581   0.004  0.00  0.00    -0.241 N 
ATOM     20  C   UNL d   1      19.989 -19.990  -0.514  0.00  0.00     0.379 C 
ATOM     21  O   UNL d   1      19.601 -19.700  -1.646  0.00  0.00    -0.237 OA
ATOM     22  H   UNL d   1      21.503 -19.841   0.943  0.00  0.00     0.192 HD
BRANCH  20  23
ATOM     23  O   UNL d   1      19.268 -20.748   0.368  0.00  0.00    -0.308 OA
ATOM     24  C   UNL d   1      19.162 -20.221   1.710  0.00  0.00     0.215 C 
ENDBRANCH  20  23
ENDBRANCH   1  19
TORSDOF 4
ENDMDL
MODEL 3
REMARK VINA RESULT:    -7.454      1.235      1.916
REMARK INTER + INTRA:          -9.826
REMARK INTER:                  -8.648
REMARK INTRA:                  -1.179
REMARK CONF_INDEPENDENT:        1.193
REMARK UNBOUND:                -1.179
REMARK  4 active torsions:
REMARK  status: ('A' for Active; 'I' for Inactive)
REMARK    1  A    between atoms: O_2  and  C_3 
REMARK       I    between atoms: C_3  and  N_5 
REMARK    2  A    between atoms: N_5  and  N_6 
REMARK       I    between atoms: N_6  and  C_7 
REMARK       I    between atoms: C_7  and  N_9 
REMARK    3  A    between atoms: N_9  and  C_10 
REMARK    4  A    between atoms: C_10  and  C_12 
ROOT
ATOM      1  N   UNL d   1      22.063 -18.405  -0.773  0.00  0.00    -0.247 N 
ATOM      2  C   UNL d   1      23.280 -17.856  -0.391  0.00  0.00     0.335 C 
ATOM      3  O   UNL d   1      23.843 -18.205   0.645  0.00  0.00    -0.246 OA
ATOM      4  N   UNL d   1      23.817 -16.930  -1.275  0.00  0.00    -0.334 N 
ATOM      5  H   UNL d   1      21.540 -18.118  -1.594  0.00  0.00     0.192 HD
ATOM      6  H   UNL d   1      23.280 -16.616  -2.070  0.00  0.00     0.165 HD
ENDROOT
BRANCH   4   7
ATOM      7  C   UNL d   1      25.125 -16.273  -1.044  0.00  0.00     0.115 C 
ATOM      8  C   UNL d   1      26.239 -17.308  -0.824  0.00  0.00     0.037 C 
BRANCH   7   9
ATOM      9  C   UNL d   1      25.519 -15.308  -2.177  0.00  0.00    -0.035 A 
ATOM     10  C   UNL d   1      25.544 -15.707  -3.526  0.00  0.00     0.010 A 
ATOM     11  C   UNL d   1      25.908 -14.824  -4.551  0.00  0.00     0.008 A 
ATOM     12  C   UNL d   1      26.234 -13.495  -4.266  0.00  0.00    -0.052 A 
ATOM     13  C   UNL d   1      26.261 -13.081  -2.925  0.00  0.00    -0.051 A 
ATOM     14  C   UNL d   1      26.565 -12.544  -5.395  0.00  0.00     0.039 C 
ATOM     15  C   UNL d   1      25.906 -13.986  -1.898  0.00  0.00     0.017 A 
ATOM     16  C   UNL d   1      26.555 -11.646  -2.557  0.00  0.00     0.039 C 
ATOM     17  C   UNL d   1      27.207 -10.835  -3.673  0.00  0.00     0.005 C 
ATOM     18  C   UNL d   1      26.466 -11.074  -4.981  0.00  0.00     0.005 C 
ENDBRANCH   7   9
ENDBRANCH   4   7
BRANCH   1  19
ATOM     19  N   UNL d   1      21.447 -19.419   0.047  0.00  0.00    -0.241 N 
ATOM     20  C   UNL d   1      20.243 -20.003  -0.312  0.00  0.00     0.379 C 
ATOM     21  O   UNL d   1      19.619 -19.700  -1.329  0.00  0.00    -0.237 OA
ATOM     22  H   UNL d   1      21.943 -19.694   0.894  0.00  0.00     0.192 HD
BRANCH  20  23
ATOM     23  O   UNL d   1      19.825 -20.947   0.585  0.00  0.00    -0.308 OA
ATOM     24  C   UNL d   1      18.394 -21.134   0.679  0.00  0.00     0.215 C 
ENDBRANCH  20  23
ENDBRANCH   1  19
TORSDOF 4
ENDMDL
MODEL 4
REMARK VINA RESULT:    -7.419      2.331      3.660
REMARK INTER + INTRA:          -9.651
REMARK INTER:                  -8.612
REMARK INTRA:                  -1.039
REMARK CONF_INDEPENDENT:        1.193
REMARK UNBOUND:                -1.039
REMARK  4 active torsions:
REMARK  status: ('A' for Active; 'I' for Inactive)
REMARK    1  A    between atoms: O_2  and  C_3 
REMARK       I    between atoms: C_3  and  N_5 
REMARK    2  A    between atoms: N_5  and  N_6 
REMARK       I    between atoms: N_6  and  C_7 
REMARK       I    between atoms: C_7  and  N_9 
REMARK    3  A    between atoms: N_9  and  C_10 
REMARK    4  A    between atoms: C_10  and  C_12 
ROOT
ATOM      1  N   UNL d   1      20.829 -19.709   0.717  0.00  0.00    -0.247 N 
ATOM      2  C   UNL d   1      21.287 -18.838  -0.263  0.00  0.00     0.335 C 
ATOM      3  O   UNL d   1      20.558 -18.467  -1.181  0.00  0.00    -0.246 OA
ATOM      4  N   UNL d   1      22.593 -18.396  -0.102  0.00  0.00    -0.334 N 
ATOM      5  H   UNL d   1      21.404 -20.077   1.467  0.00  0.00     0.192 HD
ATOM      6  H   UNL d   1      23.177 -18.792   0.620  0.00  0.00     0.165 HD
ENDROOT
BRANCH   4   7
ATOM      7  C   UNL d   1      23.231 -17.436  -1.034  0.00  0.00     0.115 C 
ATOM      8  C   UNL d   1      22.619 -16.033  -0.893  0.00  0.00     0.037 C 
BRANCH   7   9
ATOM      9  C   UNL d   1      24.759 -17.363  -0.865  0.00  0.00    -0.035 A 
ATOM     10  C   UNL d   1      25.435 -18.059   0.153  0.00  0.00     0.010 A 
ATOM     11  C   UNL d   1      26.826 -17.985   0.302  0.00  0.00     0.008 A 
ATOM     12  C   UNL d   1      27.599 -17.230  -0.585  0.00  0.00    -0.052 A 
ATOM     13  C   UNL d   1      26.947 -16.488  -1.583  0.00  0.00    -0.051 A 
ATOM     14  C   UNL d   1      29.105 -17.212  -0.441  0.00  0.00     0.039 C 
ATOM     15  C   UNL d   1      25.541 -16.561  -1.713  0.00  0.00     0.017 A 
ATOM     16  C   UNL d   1      27.731 -15.696  -2.603  0.00  0.00     0.039 C 
ATOM     17  C   UNL d   1      29.183 -15.435  -2.212  0.00  0.00     0.005 C 
ATOM     18  C   UNL d   1      29.816 -16.723  -1.705  0.00  0.00     0.005 C 
ENDBRANCH   7   9
ENDBRANCH   4   7
BRANCH   1  19
ATOM     19  N   UNL d   1      19.467 -20.182   0.674  0.00  0.00    -0.241 N 
ATOM     20  C   UNL d   1      18.828 -20.639   1.815  0.00  0.00     0.379 C 
ATOM     21  O   UNL d   1      19.365 -20.684   2.922  0.00  0.00    -0.237 OA
ATOM     22  H   UNL d   1      18.995 -20.153  -0.228  0.00  0.00     0.192 HD
BRANCH  20  23
ATOM     23  O   UNL d   1      17.540 -21.035   1.576  0.00  0.00    -0.308 OA
ATOM     24  C   UNL d   1      17.283 -21.575   0.259  0.00  0.00     0.215 C 
ENDBRANCH  20  23
ENDBRANCH   1  19
TORSDOF 4
ENDMDL
MODEL 5
REMARK VINA RESULT:    -7.387      2.936      4.345
REMARK INTER + INTRA:          -9.205
REMARK INTER:                  -8.580
REMARK INTRA:                  -0.625
REMARK CONF_INDEPENDENT:        1.193
REMARK UNBOUND:                -0.625
REMARK  4 active torsions:
REMARK  status: ('A' for Active; 'I' for Inactive)
REMARK    1  A    between atoms: O_2  and  C_3 
REMARK       I    between atoms: C_3  and  N_5 
REMARK    2  A    between atoms: N_5  and  N_6 
REMARK       I    between atoms: N_6  and  C_7 
REMARK       I    between atoms: C_7  and  N_9 
REMARK    3  A    between atoms: N_9  and  C_10 
REMARK    4  A    between atoms: C_10  and  C_12 
ROOT
ATOM      1  N   UNL d   1      22.567 -18.713   0.383  0.00  0.00    -0.247 N 
ATOM      2  C   UNL d   1      23.398 -18.365  -0.674  0.00  0.00     0.335 C 
ATOM      3  O   UNL d   1      23.185 -18.768  -1.816  0.00  0.00    -0.246 OA
ATOM      4  N   UNL d   1      24.443 -17.510  -0.352  0.00  0.00    -0.334 N 
ATOM      5  H   UNL d   1      22.727 -18.441   1.348  0.00  0.00     0.192 HD
ATOM      6  H   UNL d   1      24.625 -17.272   0.612  0.00  0.00     0.165 HD
ENDROOT
BRANCH   4   7
ATOM      7  C   UNL d   1      25.404 -17.008  -1.362  0.00  0.00     0.115 C 
ATOM      8  C   UNL d   1      24.781 -15.896  -2.220  0.00  0.00     0.037 C 
BRANCH   7   9
ATOM      9  C   UNL d   1      26.724 -16.517  -0.742  0.00  0.00    -0.035 A 
ATOM     10  C   UNL d   1      27.978 -16.879  -1.265  0.00  0.00     0.010 A 
ATOM     11  C   UNL d   1      29.176 -16.431  -0.692  0.00  0.00     0.008 A 
ATOM     12  C   UNL d   1      29.162 -15.576   0.414  0.00  0.00    -0.052 A 
ATOM     13  C   UNL d   1      27.925 -15.234   0.985  0.00  0.00    -0.051 A 
ATOM     14  C   UNL d   1      30.465 -15.057   0.978  0.00  0.00     0.039 C 
ATOM     15  C   UNL d   1      26.725 -15.705   0.405  0.00  0.00     0.017 A 
ATOM     16  C   UNL d   1      27.842 -14.273   2.148  0.00  0.00     0.039 C 
ATOM     17  C   UNL d   1      29.164 -14.061   2.880  0.00  0.00     0.005 C 
ATOM     18  C   UNL d   1      30.278 -13.826   1.870  0.00  0.00     0.005 C 
ENDBRANCH   7   9
ENDBRANCH   4   7
BRANCH   1  19
ATOM     19  N   UNL d   1      21.418 -19.551   0.144  0.00  0.00    -0.241 N 
ATOM     20  C   UNL d   1      20.390 -19.142  -0.689  0.00  0.00     0.379 C 
ATOM     21  O   UNL d   1      20.376 -18.055  -1.267  0.00  0.00    -0.237 OA
ATOM     22  H   UNL d   1      21.404 -20.459   0.605  0.00  0.00     0.192 HD
BRANCH  20  23
ATOM     23  O   UNL d   1      19.395 -20.075  -0.798  0.00  0.00    -0.308 OA
ATOM     24  C   UNL d   1      18.896 -20.610   0.450  0.00  0.00     0.215 C 
ENDBRANCH  20  23
ENDBRANCH   1  19
TORSDOF 4
ENDMDL
MODEL 6
REMARK VINA RESULT:    -7.320      5.372      8.504
REMARK INTER + INTRA:          -9.748
REMARK INTER:                  -8.514
REMARK INTRA:                  -1.234
REMARK CONF_INDEPENDENT:        1.193
REMARK UNBOUND:                -1.234
REMARK  4 active torsions:
REMARK  status: ('A' for Active; 'I' for Inactive)
REMARK    1  A    between atoms: O_2  and  C_3 
REMARK       I    between atoms: C_3  and  N_5 
REMARK    2  A    between atoms: N_5  and  N_6 
REMARK       I    between atoms: N_6  and  C_7 
REMARK       I    between atoms: C_7  and  N_9 
REMARK    3  A    between atoms: N_9  and  C_10 
REMARK    4  A    between atoms: C_10  and  C_12 
ROOT
ATOM      1  N   UNL d   1      28.597 -14.453   3.639  0.00  0.00    -0.247 N 
ATOM      2  C   UNL d   1      27.877 -14.358   2.455  0.00  0.00     0.335 C 
ATOM      3  O   UNL d   1      26.956 -13.554   2.328  0.00  0.00    -0.246 OA
ATOM      4  N   UNL d   1      28.301 -15.198   1.434  0.00  0.00    -0.334 N 
ATOM      5  H   UNL d   1      29.335 -15.129   3.806  0.00  0.00     0.192 HD
ATOM      6  H   UNL d   1      29.007 -15.897   1.612  0.00  0.00     0.165 HD
ENDROOT
BRANCH   4   7
ATOM      7  C   UNL d   1      27.671 -15.203   0.093  0.00  0.00     0.115 C 
ATOM      8  C   UNL d   1      28.720 -15.383  -1.015  0.00  0.00     0.037 C 
BRANCH   7   9
ATOM      9  C   UNL d   1      26.569 -16.269  -0.048  0.00  0.00    -0.035 A 
ATOM     10  C   UNL d   1      26.850 -17.647  -0.013  0.00  0.00     0.010 A 
ATOM     11  C   UNL d   1      25.842 -18.611  -0.145  0.00  0.00     0.008 A 
ATOM     12  C   UNL d   1      24.504 -18.230  -0.289  0.00  0.00    -0.052 A 
ATOM     13  C   UNL d   1      24.200 -16.861  -0.373  0.00  0.00    -0.051 A 
ATOM     14  C   UNL d   1      23.427 -19.287  -0.370  0.00  0.00     0.039 C 
ATOM     15  C   UNL d   1      25.229 -15.899  -0.252  0.00  0.00     0.017 A 
ATOM     16  C   UNL d   1      22.770 -16.386  -0.476  0.00  0.00     0.039 C 
ATOM     17  C   UNL d   1      21.779 -17.468  -0.895  0.00  0.00     0.005 C 
ATOM     18  C   UNL d   1      22.028 -18.734  -0.086  0.00  0.00     0.005 C 
ENDBRANCH   7   9
ENDBRANCH   4   7
BRANCH   1  19
ATOM     19  N   UNL d   1      28.275 -13.582   4.744  0.00  0.00    -0.241 N 
ATOM     20  C   UNL d   1      28.791 -13.805   6.010  0.00  0.00     0.379 C 
ATOM     21  O   UNL d   1      29.537 -14.745   6.283  0.00  0.00    -0.237 OA
ATOM     22  H   UNL d   1      27.662 -12.792   4.547  0.00  0.00     0.192 HD
BRANCH  20  23
ATOM     23  O   UNL d   1      28.379 -12.870   6.920  0.00  0.00    -0.308 OA
ATOM     24  C   UNL d   1      28.618 -13.197   8.308  0.00  0.00     0.215 C 
ENDBRANCH  20  23
ENDBRANCH   1  19
TORSDOF 4
ENDMDL
MODEL 7
REMARK VINA RESULT:    -7.292      1.980      3.292
REMARK INTER + INTRA:          -9.216
REMARK INTER:                  -8.486
REMARK INTRA:                  -0.730
REMARK CONF_INDEPENDENT:        1.193
REMARK UNBOUND:                -0.730
REMARK  4 active torsions:
REMARK  status: ('A' for Active; 'I' for Inactive)
REMARK    1  A    between atoms: O_2  and  C_3 
REMARK       I    between atoms: C_3  and  N_5 
REMARK    2  A    between atoms: N_5  and  N_6 
REMARK       I    between atoms: N_6  and  C_7 
REMARK       I    between atoms: C_7  and  N_9 
REMARK    3  A    between atoms: N_9  and  C_10 
REMARK    4  A    between atoms: C_10  and  C_12 
ROOT
ATOM      1  N   UNL d   1      22.163 -18.081   0.157  0.00  0.00    -0.247 N 
ATOM      2  C   UNL d   1      23.051 -17.906  -0.897  0.00  0.00     0.335 C 
ATOM      3  O   UNL d   1      23.188 -18.763  -1.768  0.00  0.00    -0.246 OA
ATOM      4  N   UNL d   1      23.728 -16.694  -0.908  0.00  0.00    -0.334 N 
ATOM      5  H   UNL d   1      22.048 -17.424   0.921  0.00  0.00     0.192 HD
ATOM      6  H   UNL d   1      23.643 -16.059  -0.129  0.00  0.00     0.165 HD
ENDROOT
BRANCH   4   7
ATOM      7  C   UNL d   1      24.686 -16.326  -1.977  0.00  0.00     0.115 C 
ATOM      8  C   UNL d   1      24.512 -14.858  -2.399  0.00  0.00     0.037 C 
BRANCH   7   9
ATOM      9  C   UNL d   1      26.151 -16.591  -1.586  0.00  0.00    -0.035 A 
ATOM     10  C   UNL d   1      26.500 -17.292  -0.418  0.00  0.00     0.010 A 
ATOM     11  C   UNL d   1      27.835 -17.527  -0.067  0.00  0.00     0.008 A 
ATOM     12  C   UNL d   1      28.877 -17.092  -0.892  0.00  0.00    -0.052 A 
ATOM     13  C   UNL d   1      28.560 -16.350  -2.042  0.00  0.00    -0.051 A 
ATOM     14  C   UNL d   1      30.309 -17.409  -0.524  0.00  0.00     0.039 C 
ATOM     15  C   UNL d   1      27.207 -16.108  -2.376  0.00  0.00     0.017 A 
ATOM     16  C   UNL d   1      29.637 -15.898  -3.000  0.00  0.00     0.039 C 
ATOM     17  C   UNL d   1      31.048 -15.937  -2.419  0.00  0.00     0.005 C 
ATOM     18  C   UNL d   1      31.272 -17.263  -1.705  0.00  0.00     0.005 C 
ENDBRANCH   7   9
ENDBRANCH   4   7
BRANCH   1  19
ATOM     19  N   UNL d   1      21.367 -19.282   0.230  0.00  0.00    -0.241 N 
ATOM     20  C   UNL d   1      20.097 -19.339  -0.320  0.00  0.00     0.379 C 
ATOM     21  O   UNL d   1      19.562 -18.388  -0.891  0.00  0.00    -0.237 OA
ATOM     22  H   UNL d   1      21.786 -20.087   0.692  0.00  0.00     0.192 HD
BRANCH  20  23
ATOM     23  O   UNL d   1      19.506 -20.562  -0.159  0.00  0.00    -0.308 OA
ATOM     24  C   UNL d   1      18.785 -20.752   1.081  0.00  0.00     0.215 C 
ENDBRANCH  20  23
ENDBRANCH   1  19
TORSDOF 4
ENDMDL
MODEL 8
REMARK VINA RESULT:    -7.256      5.044      8.291
REMARK INTER + INTRA:          -9.313
REMARK INTER:                  -8.449
REMARK INTRA:                  -0.863
REMARK CONF_INDEPENDENT:        1.193
REMARK UNBOUND:                -0.863
REMARK  4 active torsions:
REMARK  status: ('A' for Active; 'I' for Inactive)
REMARK    1  A    between atoms: O_2  and  C_3 
REMARK       I    between atoms: C_3  and  N_5 
REMARK    2  A    between atoms: N_5  and  N_6 
REMARK       I    between atoms: N_6  and  C_7 
REMARK       I    between atoms: C_7  and  N_9 
REMARK    3  A    between atoms: N_9  and  C_10 
REMARK    4  A    between atoms: C_10  and  C_12 
ROOT
ATOM      1  N   UNL d   1      29.049 -14.430  -6.016  0.00  0.00    -0.247 N 
ATOM      2  C   UNL d   1      27.819 -14.556  -5.383  0.00  0.00     0.335 C 
ATOM      3  O   UNL d   1      27.103 -15.539  -5.564  0.00  0.00    -0.246 OA
ATOM      4  N   UNL d   1      27.490 -13.523  -4.516  0.00  0.00    -0.334 N 
ATOM      5  H   UNL d   1      29.654 -13.620  -5.933  0.00  0.00     0.192 HD
ATOM      6  H   UNL d   1      28.071 -12.700  -4.463  0.00  0.00     0.165 HD
ENDROOT
BRANCH   4   7
ATOM      7  C   UNL d   1      26.233 -13.512  -3.730  0.00  0.00     0.115 C 
ATOM      8  C   UNL d   1      25.004 -13.404  -4.645  0.00  0.00     0.037 C 
BRANCH   7   9
ATOM      9  C   UNL d   1      26.095 -14.733  -2.804  0.00  0.00    -0.035 A 
ATOM     10  C   UNL d   1      27.210 -15.460  -2.350  0.00  0.00     0.010 A 
ATOM     11  C   UNL d   1      27.076 -16.574  -1.510  0.00  0.00     0.008 A 
ATOM     12  C   UNL d   1      25.816 -16.985  -1.067  0.00  0.00    -0.052 A 
ATOM     13  C   UNL d   1      24.681 -16.306  -1.540  0.00  0.00    -0.051 A 
ATOM     14  C   UNL d   1      25.699 -18.153  -0.114  0.00  0.00     0.039 C 
ATOM     15  C   UNL d   1      24.830 -15.193  -2.399  0.00  0.00     0.017 A 
ATOM     16  C   UNL d   1      23.297 -16.671  -1.058  0.00  0.00     0.039 C 
ATOM     17  C   UNL d   1      23.207 -18.040  -0.389  0.00  0.00     0.005 C 
ATOM     18  C   UNL d   1      24.349 -18.201   0.605  0.00  0.00     0.005 C 
ENDBRANCH   7   9
ENDBRANCH   4   7
BRANCH   1  19
ATOM     19  N   UNL d   1      29.511 -15.478  -6.894  0.00  0.00    -0.241 N 
ATOM     20  C   UNL d   1      30.139 -16.608  -6.398  0.00  0.00     0.379 C 
ATOM     21  O   UNL d   1      30.354 -16.794  -5.200  0.00  0.00    -0.237 OA
ATOM     22  H   UNL d   1      29.344 -15.353  -7.891  0.00  0.00     0.192 HD
BRANCH  20  23
ATOM     23  O   UNL d   1      30.496 -17.489  -7.381  0.00  0.00    -0.308 OA
ATOM     24  C   UNL d   1      30.781 -18.838  -6.944  0.00  0.00     0.215 C 
ENDBRANCH  20  23
ENDBRANCH   1  19
TORSDOF 4
ENDMDL
MODEL 9
REMARK VINA RESULT:    -6.750      3.821      5.278
REMARK INTER + INTRA:          -9.176
REMARK INTER:                  -7.944
REMARK INTRA:                  -1.233
REMARK CONF_INDEPENDENT:        1.193
REMARK UNBOUND:                -1.233
REMARK  4 active torsions:
REMARK  status: ('A' for Active; 'I' for Inactive)
REMARK    1  A    between atoms: O_2  and  C_3 
REMARK       I    between atoms: C_3  and  N_5 
REMARK    2  A    between atoms: N_5  and  N_6 
REMARK       I    between atoms: N_6  and  C_7 
REMARK       I    between atoms: C_7  and  N_9 
REMARK    3  A    between atoms: N_9  and  C_10 
REMARK    4  A    between atoms: C_10  and  C_12 
ROOT
ATOM      1  N   UNL d   1      23.424 -17.873  -0.771  0.00  0.00    -0.247 N 
ATOM      2  C   UNL d   1      24.722 -17.764  -0.288  0.00  0.00     0.335 C 
ATOM      3  O   UNL d   1      25.163 -18.553   0.547  0.00  0.00    -0.246 OA
ATOM      4  N   UNL d   1      25.477 -16.740  -0.841  0.00  0.00    -0.334 N 
ATOM      5  H   UNL d   1      23.002 -17.223  -1.425  0.00  0.00     0.192 HD
ATOM      6  H   UNL d   1      25.047 -16.070  -1.461  0.00  0.00     0.165 HD
ENDROOT
BRANCH   4   7
ATOM      7  C   UNL d   1      26.891 -16.501  -0.468  0.00  0.00     0.115 C 
ATOM      8  C   UNL d   1      27.767 -16.283  -1.713  0.00  0.00     0.037 C 
BRANCH   7   9
ATOM      9  C   UNL d   1      27.063 -15.324   0.509  0.00  0.00    -0.035 A 
ATOM     10  C   UNL d   1      26.586 -14.033   0.218  0.00  0.00     0.010 A 
ATOM     11  C   UNL d   1      26.750 -12.966   1.111  0.00  0.00     0.008 A 
ATOM     12  C   UNL d   1      27.374 -13.159   2.347  0.00  0.00    -0.052 A 
ATOM     13  C   UNL d   1      27.901 -14.426   2.645  0.00  0.00    -0.051 A 
ATOM     14  C   UNL d   1      27.487 -12.006   3.320  0.00  0.00     0.039 C 
ATOM     15  C   UNL d   1      27.741 -15.491   1.728  0.00  0.00     0.017 A 
ATOM     16  C   UNL d   1      28.540 -14.710   3.983  0.00  0.00     0.039 C 
ATOM     17  C   UNL d   1      28.931 -13.461   4.768  0.00  0.00     0.005 C 
ATOM     18  C   UNL d   1      27.781 -12.463   4.751  0.00  0.00     0.005 C 
ENDBRANCH   7   9
ENDBRANCH   4   7
BRANCH   1  19
ATOM     19  N   UNL d   1      22.574 -18.941  -0.303  0.00  0.00    -0.241 N 
ATOM     20  C   UNL d   1      21.221 -18.966  -0.600  0.00  0.00     0.379 C 
ATOM     21  O   UNL d   1      20.655 -18.096  -1.262  0.00  0.00    -0.237 OA
ATOM     22  H   UNL d   1      23.016 -19.678   0.244  0.00  0.00     0.192 HD
BRANCH  20  23
ATOM     23  O   UNL d   1      20.586 -20.060  -0.077  0.00  0.00    -0.308 OA
ATOM     24  C   UNL d   1      19.146 -20.075  -0.215  0.00  0.00     0.215 C 
ENDBRANCH  20  23
ENDBRANCH   1  19
TORSDOF 4
ENDMDL
