MODEL 1
REMARK VINA RESULT:    -8.307      0.000      0.000
REMARK INTER + INTRA:         -15.357
REMARK INTER:                 -12.484
REMARK INTRA:                  -2.874
REMARK CONF_INDEPENDENT:        4.176
REMARK UNBOUND:                -2.874
REMARK  14 active torsions:
REMARK  status: ('A' for Active; 'I' for Inactive)
REMARK    1  A    between atoms: C_2  and  N_3 
REMARK    2  A    between atoms: N_3  and  C_4 
REMARK    3  A    between atoms: N_3  and  C_6 
REMARK    4  A    between atoms: C_6  and  C_7 
REMARK    5  A    between atoms: C_7  and  N_8 
REMARK       I    between atoms: N_8  and  C_9 
REMARK    6  A    between atoms: C_9  and  C_11 
REMARK    7  A    between atoms: C_14  and  N_15 
REMARK    8  A    between atoms: N_15  and  C_16 
REMARK    9  A    between atoms: C_16  and  N_18 
REMARK       I    between atoms: N_18  and  C_19 
REMARK   10  A    between atoms: C_19  and  C_21 
REMARK   11  A    between atoms: C_21  and  C_22 
REMARK   12  A    between atoms: C_22  and  C_23 
REMARK   13  A    between atoms: C_23  and  O_24 
REMARK   14  A    between atoms: O_24  and  C_25 
ROOT
ATOM      1  N   UNL d   1      28.567 -14.647   2.560  0.00  0.00    -0.333 N 
ATOM      2  H   UNL d   1      29.044 -15.525   2.376  0.00  0.00     0.168 HD
ENDROOT
BRANCH   1   3
ATOM      3  C   UNL d   1      28.473 -14.299   3.986  0.00  0.00     0.034 A 
ATOM      4  C   UNL d   1      27.519 -13.416   4.515  0.00  0.00     0.030 A 
ATOM      5  C   UNL d   1      27.564 -13.031   5.896  0.00  0.00     0.019 A 
ATOM      6  C   UNL d   1      28.535 -13.551   6.766  0.00  0.00     0.032 A 
ATOM      7  C   UNL d   1      29.438 -14.450   6.272  0.00  0.00     0.019 A 
ATOM      8  C   UNL d   1      29.345 -14.823   4.945  0.00  0.00     0.030 A 
BRANCH   6   9
ATOM      9  C   UNL d   1      28.543 -13.336   8.234  0.00  0.00     0.251 C 
ATOM     10  N   UNL d   1      28.531 -14.490   9.018  0.00  0.00    -0.355 N 
ATOM     11  H   UNL d   1      28.645 -15.394   8.573  0.00  0.00     0.162 HD
ATOM     12  O   UNL d   1      28.516 -12.218   8.701  0.00  0.00    -0.268 OA
BRANCH  10  13
ATOM     13  C   UNL d   1      28.545 -14.349  10.456  0.00  0.00     0.150 C 
BRANCH  13  14
ATOM     14  C   UNL d   1      29.948 -14.393  11.077  0.00  0.00     0.254 C 
BRANCH  14  15
ATOM     15  N   UNL d   1      30.854 -15.478  10.454  0.00  0.00    -0.070 N 
ATOM     16  H   UNL d   1      30.337 -15.872   9.654  0.00  0.00     0.279 HD
BRANCH  15  17
ATOM     17  C   UNL d   1      32.109 -14.795   9.915  0.00  0.00     0.230 C 
ATOM     18  C   UNL d   1      31.850 -13.892   8.725  0.00  0.00     0.034 C 
ENDBRANCH  15  17
BRANCH  15  19
ATOM     19  C   UNL d   1      31.110 -16.587  11.465  0.00  0.00     0.230 C 
ATOM     20  C   UNL d   1      32.407 -16.456  12.230  0.00  0.00     0.034 C 
ENDBRANCH  15  19
ENDBRANCH  14  15
ENDBRANCH  13  14
ENDBRANCH  10  13
ENDBRANCH   6   9
ENDBRANCH   1   3
BRANCH   1  21
ATOM     21  C   UNL d   1      27.942 -13.948   1.476  0.00  0.00     0.178 C 
ATOM     22  S   UNL d   1      26.741 -12.763   1.655  0.00  0.00    -0.040 SA
BRANCH  21  23
ATOM     23  N   UNL d   1      28.361 -14.301   0.166  0.00  0.00    -0.304 N 
ATOM     24  C   UNL d   1      29.634 -14.856  -0.082  0.00  0.00     0.223 C 
ATOM     25  O   UNL d   1      30.459 -15.130   0.792  0.00  0.00    -0.273 OA
ATOM     26  H   UNL d   1      27.761 -14.121  -0.627  0.00  0.00     0.171 HD
BRANCH  24  27
ATOM     27  C   UNL d   1      30.085 -15.184  -1.479  0.00  0.00     0.105 C 
BRANCH  27  28
ATOM     28  C   UNL d   1      29.720 -16.686  -1.723  0.00  0.00     0.036 C 
BRANCH  28  29
ATOM     29  C   UNL d   1      28.456 -17.079  -1.001  0.00  0.00     0.176 C 
BRANCH  29  30
ATOM     30  O   UNL d   1      27.404 -16.164  -1.302  0.00  0.00    -0.349 OA
BRANCH  30  31
ATOM     31  C   UNL d   1      26.126 -16.600  -1.042  0.00  0.00     0.090 A 
ATOM     32  C   UNL d   1      26.062 -17.724  -0.195  0.00  0.00     0.040 A 
ATOM     33  C   UNL d   1      24.843 -18.367   0.058  0.00  0.00     0.026 A 
ATOM     34  C   UNL d   1      23.670 -17.848  -0.476  0.00  0.00     0.035 A 
ATOM     35 CL   UNL d   1      22.149 -18.548  -0.090  0.00  0.00    -0.084 Cl
ATOM     36  C   UNL d   1      23.714 -16.740  -1.310  0.00  0.00     0.050 A 
ATOM     37  C   UNL d   1      24.931 -16.123  -1.610  0.00  0.00     0.069 A 
ATOM     38 CL   UNL d   1      24.780 -14.827  -2.746  0.00  0.00    -0.081 Cl
ENDBRANCH  30  31
ENDBRANCH  29  30
ENDBRANCH  28  29
ENDBRANCH  27  28
ENDBRANCH  24  27
ENDBRANCH  21  23
ENDBRANCH   1  21
TORSDOF 14
ENDMDL
MODEL 2
REMARK VINA RESULT:    -8.139      1.412      2.003
REMARK INTER + INTRA:         -16.110
REMARK INTER:                 -12.315
REMARK INTRA:                  -3.795
REMARK CONF_INDEPENDENT:        4.176
REMARK UNBOUND:                -3.795
REMARK  14 active torsions:
REMARK  status: ('A' for Active; 'I' for Inactive)
REMARK    1  A    between atoms: C_2  and  N_3 
REMARK    2  A    between atoms: N_3  and  C_4 
REMARK    3  A    between atoms: N_3  and  C_6 
REMARK    4  A    between atoms: C_6  and  C_7 
REMARK    5  A    between atoms: C_7  and  N_8 
REMARK       I    between atoms: N_8  and  C_9 
REMARK    6  A    between atoms: C_9  and  C_11 
REMARK    7  A    between atoms: C_14  and  N_15 
REMARK    8  A    between atoms: N_15  and  C_16 
REMARK    9  A    between atoms: C_16  and  N_18 
REMARK       I    between atoms: N_18  and  C_19 
REMARK   10  A    between atoms: C_19  and  C_21 
REMARK   11  A    between atoms: C_21  and  C_22 
REMARK   12  A    between atoms: C_22  and  C_23 
REMARK   13  A    between atoms: C_23  and  O_24 
REMARK   14  A    between atoms: O_24  and  C_25 
ROOT
ATOM      1  N   UNL d   1      28.666 -14.539   2.427  0.00  0.00    -0.333 N 
ATOM      2  H   UNL d   1      29.363 -15.225   2.150  0.00  0.00     0.168 HD
ENDROOT
BRANCH   1   3
ATOM      3  C   UNL d   1      28.620 -14.276   3.873  0.00  0.00     0.034 A 
ATOM      4  C   UNL d   1      27.573 -13.593   4.511  0.00  0.00     0.030 A 
ATOM      5  C   UNL d   1      27.653 -13.268   5.906  0.00  0.00     0.019 A 
ATOM      6  C   UNL d   1      28.759 -13.653   6.681  0.00  0.00     0.032 A 
ATOM      7  C   UNL d   1      29.761 -14.362   6.080  0.00  0.00     0.019 A 
ATOM      8  C   UNL d   1      29.635 -14.686   4.742  0.00  0.00     0.030 A 
BRANCH   6   9
ATOM      9  C   UNL d   1      28.838 -13.505   8.155  0.00  0.00     0.251 C 
ATOM     10  N   UNL d   1      28.880 -14.693   8.884  0.00  0.00    -0.355 N 
ATOM     11  H   UNL d   1      28.982 -15.575   8.393  0.00  0.00     0.162 HD
ATOM     12  O   UNL d   1      28.820 -12.410   8.674  0.00  0.00    -0.268 OA
BRANCH  10  13
ATOM     13  C   UNL d   1      28.964 -14.618  10.325  0.00  0.00     0.150 C 
BRANCH  13  14
ATOM     14  C   UNL d   1      30.398 -14.523  10.865  0.00  0.00     0.254 C 
BRANCH  14  15
ATOM     15  N   UNL d   1      31.307 -13.605  10.018  0.00  0.00    -0.070 N 
ATOM     16  H   UNL d   1      30.718 -13.218   9.265  0.00  0.00     0.279 HD
BRANCH  15  17
ATOM     17  C   UNL d   1      31.766 -12.447  10.901  0.00  0.00     0.230 C 
ATOM     18  C   UNL d   1      30.686 -11.416  11.167  0.00  0.00     0.034 C 
ENDBRANCH  15  17
BRANCH  15  19
ATOM     19  C   UNL d   1      32.430 -14.419   9.390  0.00  0.00     0.230 C 
ATOM     20  C   UNL d   1      33.181 -15.306  10.357  0.00  0.00     0.034 C 
ENDBRANCH  15  19
ENDBRANCH  14  15
ENDBRANCH  13  14
ENDBRANCH  10  13
ENDBRANCH   6   9
ENDBRANCH   1   3
BRANCH   1  21
ATOM     21  C   UNL d   1      27.752 -14.033   1.445  0.00  0.00     0.178 C 
ATOM     22  S   UNL d   1      27.015 -12.506   1.508  0.00  0.00    -0.040 SA
BRANCH  21  23
ATOM     23  N   UNL d   1      27.443 -14.895   0.361  0.00  0.00    -0.304 N 
ATOM     24  C   UNL d   1      28.439 -15.637  -0.307  0.00  0.00     0.223 C 
ATOM     25  O   UNL d   1      29.630 -15.651   0.012  0.00  0.00    -0.273 OA
ATOM     26  H   UNL d   1      26.494 -14.961   0.017  0.00  0.00     0.171 HD
BRANCH  24  27
ATOM     27  C   UNL d   1      28.106 -16.512  -1.484  0.00  0.00     0.105 C 
BRANCH  27  28
ATOM     28  C   UNL d   1      27.478 -15.577  -2.570  0.00  0.00     0.036 C 
BRANCH  28  29
ATOM     29  C   UNL d   1      25.971 -15.614  -2.538  0.00  0.00     0.176 C 
BRANCH  29  30
ATOM     30  O   UNL d   1      25.500 -15.625  -1.192  0.00  0.00    -0.349 OA
BRANCH  30  31
ATOM     31  C   UNL d   1      24.566 -16.586  -0.882  0.00  0.00     0.090 A 
ATOM     32  C   UNL d   1      23.249 -16.248  -1.251  0.00  0.00     0.040 A 
ATOM     33  C   UNL d   1      22.167 -17.061  -0.886  0.00  0.00     0.026 A 
ATOM     34  C   UNL d   1      22.403 -18.253  -0.213  0.00  0.00     0.035 A 
ATOM     35 CL   UNL d   1      21.107 -19.325   0.145  0.00  0.00    -0.084 Cl
ATOM     36  C   UNL d   1      23.693 -18.603   0.155  0.00  0.00     0.050 A 
ATOM     37  C   UNL d   1      24.773 -17.773  -0.158  0.00  0.00     0.069 A 
ATOM     38 CL   UNL d   1      26.278 -18.338   0.480  0.00  0.00    -0.081 Cl
ENDBRANCH  30  31
ENDBRANCH  29  30
ENDBRANCH  28  29
ENDBRANCH  27  28
ENDBRANCH  24  27
ENDBRANCH  21  23
ENDBRANCH   1  21
TORSDOF 14
ENDMDL
MODEL 3
REMARK VINA RESULT:    -8.035      7.927     11.499
REMARK INTER + INTRA:         -14.910
REMARK INTER:                 -12.211
REMARK INTRA:                  -2.699
REMARK CONF_INDEPENDENT:        4.176
REMARK UNBOUND:                -2.699
REMARK  14 active torsions:
REMARK  status: ('A' for Active; 'I' for Inactive)
REMARK    1  A    between atoms: C_2  and  N_3 
REMARK    2  A    between atoms: N_3  and  C_4 
REMARK    3  A    between atoms: N_3  and  C_6 
REMARK    4  A    between atoms: C_6  and  C_7 
REMARK    5  A    between atoms: C_7  and  N_8 
REMARK       I    between atoms: N_8  and  C_9 
REMARK    6  A    between atoms: C_9  and  C_11 
REMARK    7  A    between atoms: C_14  and  N_15 
REMARK    8  A    between atoms: N_15  and  C_16 
REMARK    9  A    between atoms: C_16  and  N_18 
REMARK       I    between atoms: N_18  and  C_19 
REMARK   10  A    between atoms: C_19  and  C_21 
REMARK   11  A    between atoms: C_21  and  C_22 
REMARK   12  A    between atoms: C_22  and  C_23 
REMARK   13  A    between atoms: C_23  and  O_24 
REMARK   14  A    between atoms: O_24  and  C_25 
ROOT
ATOM      1  N   UNL d   1      29.865 -16.497  -5.329  0.00  0.00    -0.333 N 
ATOM      2  H   UNL d   1      29.457 -16.184  -6.206  0.00  0.00     0.168 HD
ENDROOT
BRANCH   1   3
ATOM      3  C   UNL d   1      30.490 -17.827  -5.396  0.00  0.00     0.034 A 
ATOM      4  C   UNL d   1      30.647 -18.560  -6.583  0.00  0.00     0.030 A 
ATOM      5  C   UNL d   1      31.156 -19.901  -6.553  0.00  0.00     0.019 A 
ATOM      6  C   UNL d   1      31.546 -20.506  -5.348  0.00  0.00     0.032 A 
ATOM      7  C   UNL d   1      31.443 -19.782  -4.193  0.00  0.00     0.019 A 
ATOM      8  C   UNL d   1      30.979 -18.482  -4.262  0.00  0.00     0.030 A 
BRANCH   6   9
ATOM      9  C   UNL d   1      32.236 -21.815  -5.255  0.00  0.00     0.251 C 
ATOM     10  N   UNL d   1      31.414 -22.923  -5.049  0.00  0.00    -0.355 N 
ATOM     11  H   UNL d   1      30.407 -22.811  -5.100  0.00  0.00     0.162 HD
ATOM     12  O   UNL d   1      33.445 -21.890  -5.312  0.00  0.00    -0.268 OA
BRANCH  10  13
ATOM     13  C   UNL d   1      32.024 -24.230  -4.956  0.00  0.00     0.150 C 
BRANCH  13  14
ATOM     14  C   UNL d   1      31.282 -25.205  -4.031  0.00  0.00     0.254 C 
BRANCH  14  15
ATOM     15  N   UNL d   1      29.765 -25.273  -4.312  0.00  0.00    -0.070 N 
ATOM     16  H   UNL d   1      29.493 -24.357  -4.699  0.00  0.00     0.279 HD
BRANCH  15  17
ATOM     17  C   UNL d   1      29.530 -26.328  -5.391  0.00  0.00     0.230 C 
ATOM     18  C   UNL d   1      28.135 -26.922  -5.372  0.00  0.00     0.034 C 
ENDBRANCH  15  17
BRANCH  15  19
ATOM     19  C   UNL d   1      29.004 -25.501  -3.013  0.00  0.00     0.230 C 
ATOM     20  C   UNL d   1      28.655 -24.239  -2.259  0.00  0.00     0.034 C 
ENDBRANCH  15  19
ENDBRANCH  14  15
ENDBRANCH  13  14
ENDBRANCH  10  13
ENDBRANCH   6   9
ENDBRANCH   1   3
BRANCH   1  21
ATOM     21  C   UNL d   1      29.672 -15.711  -4.146  0.00  0.00     0.178 C 
ATOM     22  S   UNL d   1      30.924 -15.078  -3.193  0.00  0.00    -0.040 SA
BRANCH  21  23
ATOM     23  N   UNL d   1      28.329 -15.473  -3.753  0.00  0.00    -0.304 N 
ATOM     24  C   UNL d   1      27.315 -15.208  -4.697  0.00  0.00     0.223 C 
ATOM     25  O   UNL d   1      27.479 -15.211  -5.918  0.00  0.00    -0.273 OA
ATOM     26  H   UNL d   1      28.081 -15.449  -2.773  0.00  0.00     0.171 HD
BRANCH  24  27
ATOM     27  C   UNL d   1      25.904 -14.912  -4.266  0.00  0.00     0.105 C 
BRANCH  27  28
ATOM     28  C   UNL d   1      25.993 -13.757  -3.214  0.00  0.00     0.036 C 
BRANCH  28  29
ATOM     29  C   UNL d   1      25.947 -14.281  -1.801  0.00  0.00     0.176 C 
BRANCH  29  30
ATOM     30  O   UNL d   1      26.299 -15.663  -1.769  0.00  0.00    -0.349 OA
BRANCH  30  31
ATOM     31  C   UNL d   1      25.337 -16.524  -1.295  0.00  0.00     0.090 A 
ATOM     32  C   UNL d   1      24.021 -16.172  -1.654  0.00  0.00     0.040 A 
ATOM     33  C   UNL d   1      22.921 -16.872  -1.140  0.00  0.00     0.026 A 
ATOM     34  C   UNL d   1      23.133 -17.973  -0.320  0.00  0.00     0.035 A 
ATOM     35 CL   UNL d   1      21.808 -18.920   0.231  0.00  0.00    -0.084 Cl
ATOM     36  C   UNL d   1      24.422 -18.336   0.042  0.00  0.00     0.050 A 
ATOM     37  C   UNL d   1      25.523 -17.612  -0.424  0.00  0.00     0.069 A 
ATOM     38 CL   UNL d   1      27.029 -18.162   0.226  0.00  0.00    -0.081 Cl
ENDBRANCH  30  31
ENDBRANCH  29  30
ENDBRANCH  28  29
ENDBRANCH  27  28
ENDBRANCH  24  27
ENDBRANCH  21  23
ENDBRANCH   1  21
TORSDOF 14
ENDMDL
MODEL 4
REMARK VINA RESULT:    -7.907      6.040      8.037
REMARK INTER + INTRA:         -15.131
REMARK INTER:                 -12.083
REMARK INTRA:                  -3.048
REMARK CONF_INDEPENDENT:        4.176
REMARK UNBOUND:                -3.048
REMARK  14 active torsions:
REMARK  status: ('A' for Active; 'I' for Inactive)
REMARK    1  A    between atoms: C_2  and  N_3 
REMARK    2  A    between atoms: N_3  and  C_4 
REMARK    3  A    between atoms: N_3  and  C_6 
REMARK    4  A    between atoms: C_6  and  C_7 
REMARK    5  A    between atoms: C_7  and  N_8 
REMARK       I    between atoms: N_8  and  C_9 
REMARK    6  A    between atoms: C_9  and  C_11 
REMARK    7  A    between atoms: C_14  and  N_15 
REMARK    8  A    between atoms: N_15  and  C_16 
REMARK    9  A    between atoms: C_16  and  N_18 
REMARK       I    between atoms: N_18  and  C_19 
REMARK   10  A    between atoms: C_19  and  C_21 
REMARK   11  A    between atoms: C_21  and  C_22 
REMARK   12  A    between atoms: C_22  and  C_23 
REMARK   13  A    between atoms: C_23  and  O_24 
REMARK   14  A    between atoms: O_24  and  C_25 
ROOT
ATOM      1  N   UNL d   1      29.216 -14.708  -6.510  0.00  0.00    -0.333 N 
ATOM      2  H   UNL d   1      29.645 -15.176  -7.303  0.00  0.00     0.168 HD
ENDROOT
BRANCH   1   3
ATOM      3  C   UNL d   1      29.454 -15.369  -5.218  0.00  0.00     0.034 A 
ATOM      4  C   UNL d   1      29.499 -14.692  -3.989  0.00  0.00     0.030 A 
ATOM      5  C   UNL d   1      29.855 -15.385  -2.784  0.00  0.00     0.019 A 
ATOM      6  C   UNL d   1      30.133 -16.761  -2.790  0.00  0.00     0.032 A 
ATOM      7  C   UNL d   1      30.044 -17.438  -3.974  0.00  0.00     0.019 A 
ATOM      8  C   UNL d   1      29.666 -16.746  -5.109  0.00  0.00     0.030 A 
BRANCH   6   9
ATOM      9  C   UNL d   1      30.340 -17.576  -1.569  0.00  0.00     0.251 C 
ATOM     10  N   UNL d   1      31.153 -18.700  -1.718  0.00  0.00    -0.355 N 
ATOM     11  H   UNL d   1      31.656 -18.837  -2.588  0.00  0.00     0.162 HD
ATOM     12  O   UNL d   1      29.790 -17.291  -0.527  0.00  0.00    -0.268 OA
BRANCH  10  13
ATOM     13  C   UNL d   1      31.401 -19.533  -0.564  0.00  0.00     0.150 C 
BRANCH  13  14
ATOM     14  C   UNL d   1      32.491 -18.998   0.374  0.00  0.00     0.254 C 
BRANCH  14  15
ATOM     15  N   UNL d   1      32.012 -17.823   1.255  0.00  0.00    -0.070 N 
ATOM     16  H   UNL d   1      30.981 -17.826   1.218  0.00  0.00     0.279 HD
BRANCH  15  17
ATOM     17  C   UNL d   1      32.432 -18.107   2.695  0.00  0.00     0.230 C 
ATOM     18  C   UNL d   1      33.826 -18.689   2.821  0.00  0.00     0.034 C 
ENDBRANCH  15  17
BRANCH  15  19
ATOM     19  C   UNL d   1      32.518 -16.505   0.685  0.00  0.00     0.230 C 
ATOM     20  C   UNL d   1      32.182 -15.289   1.517  0.00  0.00     0.034 C 
ENDBRANCH  15  19
ENDBRANCH  14  15
ENDBRANCH  13  14
ENDBRANCH  10  13
ENDBRANCH   6   9
ENDBRANCH   1   3
BRANCH   1  21
ATOM     21  C   UNL d   1      28.349 -13.589  -6.741  0.00  0.00     0.178 C 
ATOM     22  S   UNL d   1      28.472 -12.528  -8.058  0.00  0.00    -0.040 SA
BRANCH  21  23
ATOM     23  N   UNL d   1      27.333 -13.363  -5.775  0.00  0.00    -0.304 N 
ATOM     24  C   UNL d   1      26.465 -14.391  -5.355  0.00  0.00     0.223 C 
ATOM     25  O   UNL d   1      26.535 -15.563  -5.732  0.00  0.00    -0.273 OA
ATOM     26  H   UNL d   1      27.188 -12.437  -5.397  0.00  0.00     0.171 HD
BRANCH  24  27
ATOM     27  C   UNL d   1      25.363 -14.128  -4.365  0.00  0.00     0.105 C 
BRANCH  27  28
ATOM     28  C   UNL d   1      26.032 -14.108  -2.951  0.00  0.00     0.036 C 
BRANCH  28  29
ATOM     29  C   UNL d   1      26.430 -15.490  -2.499  0.00  0.00     0.176 C 
BRANCH  29  30
ATOM     30  O   UNL d   1      26.093 -15.684  -1.127  0.00  0.00    -0.349 OA
BRANCH  30  31
ATOM     31  C   UNL d   1      25.083 -16.581  -0.870  0.00  0.00     0.090 A 
ATOM     32  C   UNL d   1      23.799 -16.117  -1.217  0.00  0.00     0.040 A 
ATOM     33  C   UNL d   1      22.654 -16.859  -0.896  0.00  0.00     0.026 A 
ATOM     34  C   UNL d   1      22.789 -18.101  -0.290  0.00  0.00     0.035 A 
ATOM     35 CL   UNL d   1      21.411 -19.082   0.011  0.00  0.00    -0.084 Cl
ATOM     36  C   UNL d   1      24.046 -18.575   0.057  0.00  0.00     0.050 A 
ATOM     37  C   UNL d   1      25.191 -17.819  -0.212  0.00  0.00     0.069 A 
ATOM     38 CL   UNL d   1      26.643 -18.538   0.392  0.00  0.00    -0.081 Cl
ENDBRANCH  30  31
ENDBRANCH  29  30
ENDBRANCH  28  29
ENDBRANCH  27  28
ENDBRANCH  24  27
ENDBRANCH  21  23
ENDBRANCH   1  21
TORSDOF 14
ENDMDL
MODEL 5
REMARK VINA RESULT:    -7.776      2.602      4.302
REMARK INTER + INTRA:         -15.309
REMARK INTER:                 -11.952
REMARK INTRA:                  -3.357
REMARK CONF_INDEPENDENT:        4.176
REMARK UNBOUND:                -3.357
REMARK  14 active torsions:
REMARK  status: ('A' for Active; 'I' for Inactive)
REMARK    1  A    between atoms: C_2  and  N_3 
REMARK    2  A    between atoms: N_3  and  C_4 
REMARK    3  A    between atoms: N_3  and  C_6 
REMARK    4  A    between atoms: C_6  and  C_7 
REMARK    5  A    between atoms: C_7  and  N_8 
REMARK       I    between atoms: N_8  and  C_9 
REMARK    6  A    between atoms: C_9  and  C_11 
REMARK    7  A    between atoms: C_14  and  N_15 
REMARK    8  A    between atoms: N_15  and  C_16 
REMARK    9  A    between atoms: C_16  and  N_18 
REMARK       I    between atoms: N_18  and  C_19 
REMARK   10  A    between atoms: C_19  and  C_21 
REMARK   11  A    between atoms: C_21  and  C_22 
REMARK   12  A    between atoms: C_22  and  C_23 
REMARK   13  A    between atoms: C_23  and  O_24 
REMARK   14  A    between atoms: O_24  and  C_25 
ROOT
ATOM      1  N   UNL d   1      28.054 -13.584  -2.998  0.00  0.00    -0.333 N 
ATOM      2  H   UNL d   1      28.089 -12.659  -3.416  0.00  0.00     0.168 HD
ENDROOT
BRANCH   1   3
ATOM      3  C   UNL d   1      27.885 -13.580  -1.537  0.00  0.00     0.034 A 
ATOM      4  C   UNL d   1      26.773 -13.029  -0.879  0.00  0.00     0.030 A 
ATOM      5  C   UNL d   1      26.734 -12.953   0.553  0.00  0.00     0.019 A 
ATOM      6  C   UNL d   1      27.782 -13.457   1.338  0.00  0.00     0.032 A 
ATOM      7  C   UNL d   1      28.847 -14.039   0.709  0.00  0.00     0.019 A 
ATOM      8  C   UNL d   1      28.837 -14.125  -0.671  0.00  0.00     0.030 A 
BRANCH   6   9
ATOM      9  C   UNL d   1      27.739 -13.570   2.817  0.00  0.00     0.251 C 
ATOM     10  N   UNL d   1      28.443 -14.642   3.366  0.00  0.00    -0.355 N 
ATOM     11  H   UNL d   1      29.040 -15.203   2.768  0.00  0.00     0.162 HD
ATOM     12  O   UNL d   1      27.088 -12.794   3.483  0.00  0.00    -0.268 OA
BRANCH  10  13
ATOM     13  C   UNL d   1      28.447 -14.803   4.802  0.00  0.00     0.150 C 
BRANCH  13  14
ATOM     14  C   UNL d   1      29.845 -14.981   5.411  0.00  0.00     0.254 C 
BRANCH  14  15
ATOM     15  N   UNL d   1      30.398 -13.689   6.050  0.00  0.00    -0.070 N 
ATOM     16  H   UNL d   1      31.418 -13.695   5.897  0.00  0.00     0.279 HD
BRANCH  15  17
ATOM     17  C   UNL d   1      29.815 -12.498   5.292  0.00  0.00     0.230 C 
ATOM     18  C   UNL d   1      28.678 -11.808   6.019  0.00  0.00     0.034 C 
ENDBRANCH  15  17
BRANCH  15  19
ATOM     19  C   UNL d   1      30.128 -13.692   7.549  0.00  0.00     0.230 C 
ATOM     20  C   UNL d   1      31.128 -14.476   8.367  0.00  0.00     0.034 C 
ENDBRANCH  15  19
ENDBRANCH  14  15
ENDBRANCH  13  14
ENDBRANCH  10  13
ENDBRANCH   6   9
ENDBRANCH   1   3
BRANCH   1  21
ATOM     21  C   UNL d   1      28.304 -14.734  -3.817  0.00  0.00     0.178 C 
ATOM     22  S   UNL d   1      28.326 -14.725  -5.513  0.00  0.00    -0.040 SA
BRANCH  21  23
ATOM     23  N   UNL d   1      28.529 -15.960  -3.139  0.00  0.00    -0.304 N 
ATOM     24  C   UNL d   1      29.815 -16.346  -2.709  0.00  0.00     0.223 C 
ATOM     25  O   UNL d   1      30.828 -15.654  -2.826  0.00  0.00    -0.273 OA
ATOM     26  H   UNL d   1      27.766 -16.606  -2.987  0.00  0.00     0.171 HD
BRANCH  24  27
ATOM     27  C   UNL d   1      30.049 -17.669  -2.032  0.00  0.00     0.105 C 
BRANCH  27  28
ATOM     28  C   UNL d   1      29.754 -17.448  -0.511  0.00  0.00     0.036 C 
BRANCH  28  29
ATOM     29  C   UNL d   1      28.311 -17.726  -0.174  0.00  0.00     0.176 C 
BRANCH  29  30
ATOM     30  O   UNL d   1      27.455 -16.815  -0.860  0.00  0.00    -0.349 OA
BRANCH  30  31
ATOM     31  C   UNL d   1      26.105 -17.068  -0.775  0.00  0.00     0.090 A 
ATOM     32  C   UNL d   1      25.769 -18.103   0.120  0.00  0.00     0.040 A 
ATOM     33  C   UNL d   1      24.451 -18.569   0.220  0.00  0.00     0.026 A 
ATOM     34  C   UNL d   1      23.449 -17.955  -0.521  0.00  0.00     0.035 A 
ATOM     35 CL   UNL d   1      21.808 -18.429  -0.333  0.00  0.00    -0.084 Cl
ATOM     36  C   UNL d   1      23.762 -16.933  -1.406  0.00  0.00     0.050 A 
ATOM     37  C   UNL d   1      25.081 -16.496  -1.551  0.00  0.00     0.069 A 
ATOM     38 CL   UNL d   1      25.272 -15.290  -2.776  0.00  0.00    -0.081 Cl
ENDBRANCH  30  31
ENDBRANCH  29  30
ENDBRANCH  28  29
ENDBRANCH  27  28
ENDBRANCH  24  27
ENDBRANCH  21  23
ENDBRANCH   1  21
TORSDOF 14
ENDMDL
MODEL 6
REMARK VINA RESULT:    -7.411      7.499     12.700
REMARK INTER + INTRA:         -15.266
REMARK INTER:                 -11.587
REMARK INTRA:                  -3.679
REMARK CONF_INDEPENDENT:        4.176
REMARK UNBOUND:                -3.679
REMARK  14 active torsions:
REMARK  status: ('A' for Active; 'I' for Inactive)
REMARK    1  A    between atoms: C_2  and  N_3 
REMARK    2  A    between atoms: N_3  and  C_4 
REMARK    3  A    between atoms: N_3  and  C_6 
REMARK    4  A    between atoms: C_6  and  C_7 
REMARK    5  A    between atoms: C_7  and  N_8 
REMARK       I    between atoms: N_8  and  C_9 
REMARK    6  A    between atoms: C_9  and  C_11 
REMARK    7  A    between atoms: C_14  and  N_15 
REMARK    8  A    between atoms: N_15  and  C_16 
REMARK    9  A    between atoms: C_16  and  N_18 
REMARK       I    between atoms: N_18  and  C_19 
REMARK   10  A    between atoms: C_19  and  C_21 
REMARK   11  A    between atoms: C_21  and  C_22 
REMARK   12  A    between atoms: C_22  and  C_23 
REMARK   13  A    between atoms: C_23  and  O_24 
REMARK   14  A    between atoms: O_24  and  C_25 
ROOT
ATOM      1  N   UNL d   1      27.000 -11.773  -4.011  0.00  0.00    -0.333 N 
ATOM      2  H   UNL d   1      27.989 -11.566  -3.910  0.00  0.00     0.168 HD
ENDROOT
BRANCH   1   3
ATOM      3  C   UNL d   1      26.175 -10.614  -4.385  0.00  0.00     0.034 A 
ATOM      4  C   UNL d   1      25.741  -9.636  -3.476  0.00  0.00     0.030 A 
ATOM      5  C   UNL d   1      24.840  -8.600  -3.891  0.00  0.00     0.019 A 
ATOM      6  C   UNL d   1      24.396  -8.510  -5.220  0.00  0.00     0.032 A 
ATOM      7  C   UNL d   1      24.852  -9.428  -6.124  0.00  0.00     0.019 A 
ATOM      8  C   UNL d   1      25.745 -10.393  -5.697  0.00  0.00     0.030 A 
BRANCH   6   9
ATOM      9  C   UNL d   1      23.606  -7.378  -5.762  0.00  0.00     0.251 C 
ATOM     10  N   UNL d   1      23.187  -6.426  -4.831  0.00  0.00    -0.355 N 
ATOM     11  H   UNL d   1      23.537  -6.475  -3.880  0.00  0.00     0.162 HD
ATOM     12  O   UNL d   1      23.314  -7.326  -6.938  0.00  0.00    -0.268 OA
BRANCH  10  13
ATOM     13  C   UNL d   1      22.419  -5.294  -5.296  0.00  0.00     0.150 C 
BRANCH  13  14
ATOM     14  C   UNL d   1      20.930  -5.594  -5.516  0.00  0.00     0.254 C 
BRANCH  14  15
ATOM     15  N   UNL d   1      20.643  -6.294  -6.863  0.00  0.00    -0.070 N 
ATOM     16  H   UNL d   1      21.166  -7.182  -6.853  0.00  0.00     0.279 HD
BRANCH  15  17
ATOM     17  C   UNL d   1      19.154  -6.625  -6.918  0.00  0.00     0.230 C 
ATOM     18  C   UNL d   1      18.723  -7.292  -8.209  0.00  0.00     0.034 C 
ENDBRANCH  15  17
BRANCH  15  19
ATOM     19  C   UNL d   1      21.155  -5.438  -8.014  0.00  0.00     0.230 C 
ATOM     20  C   UNL d   1      21.495  -6.209  -9.268  0.00  0.00     0.034 C 
ENDBRANCH  15  19
ENDBRANCH  14  15
ENDBRANCH  13  14
ENDBRANCH  10  13
ENDBRANCH   6   9
ENDBRANCH   1   3
BRANCH   1  21
ATOM     21  C   UNL d   1      26.516 -13.075  -3.655  0.00  0.00     0.178 C 
ATOM     22  S   UNL d   1      25.102 -13.782  -4.270  0.00  0.00    -0.040 SA
BRANCH  21  23
ATOM     23  N   UNL d   1      27.283 -13.800  -2.705  0.00  0.00    -0.304 N 
ATOM     24  C   UNL d   1      28.693 -13.811  -2.741  0.00  0.00     0.223 C 
ATOM     25  O   UNL d   1      29.376 -13.169  -3.541  0.00  0.00    -0.273 OA
ATOM     26  H   UNL d   1      26.823 -14.361  -2.001  0.00  0.00     0.171 HD
BRANCH  24  27
ATOM     27  C   UNL d   1      29.494 -14.619  -1.756  0.00  0.00     0.105 C 
BRANCH  27  28
ATOM     28  C   UNL d   1      29.336 -16.117  -2.179  0.00  0.00     0.036 C 
BRANCH  28  29
ATOM     29  C   UNL d   1      28.360 -16.850  -1.293  0.00  0.00     0.176 C 
BRANCH  29  30
ATOM     30  O   UNL d   1      27.248 -16.014  -0.977  0.00  0.00    -0.349 OA
BRANCH  30  31
ATOM     31  C   UNL d   1      26.031 -16.642  -0.857  0.00  0.00     0.090 A 
ATOM     32  C   UNL d   1      24.985 -16.008  -1.557  0.00  0.00     0.040 A 
ATOM     33  C   UNL d   1      23.661 -16.448  -1.428  0.00  0.00     0.026 A 
ATOM     34  C   UNL d   1      23.383 -17.568  -0.655  0.00  0.00     0.035 A 
ATOM     35 CL   UNL d   1      21.786 -18.198  -0.571  0.00  0.00    -0.084 Cl
ATOM     36  C   UNL d   1      24.401 -18.206   0.039  0.00  0.00     0.050 A 
ATOM     37  C   UNL d   1      25.717 -17.743  -0.041  0.00  0.00     0.069 A 
ATOM     38 CL   UNL d   1      26.811 -18.611   0.979  0.00  0.00    -0.081 Cl
ENDBRANCH  30  31
ENDBRANCH  29  30
ENDBRANCH  28  29
ENDBRANCH  27  28
ENDBRANCH  24  27
ENDBRANCH  21  23
ENDBRANCH   1  21
TORSDOF 14
ENDMDL
MODEL 7
REMARK VINA RESULT:    -6.837      4.097      7.106
REMARK INTER + INTRA:         -14.873
REMARK INTER:                 -11.013
REMARK INTRA:                  -3.860
REMARK CONF_INDEPENDENT:        4.176
REMARK UNBOUND:                -3.860
REMARK  14 active torsions:
REMARK  status: ('A' for Active; 'I' for Inactive)
REMARK    1  A    between atoms: C_2  and  N_3 
REMARK    2  A    between atoms: N_3  and  C_4 
REMARK    3  A    between atoms: N_3  and  C_6 
REMARK    4  A    between atoms: C_6  and  C_7 
REMARK    5  A    between atoms: C_7  and  N_8 
REMARK       I    between atoms: N_8  and  C_9 
REMARK    6  A    between atoms: C_9  and  C_11 
REMARK    7  A    between atoms: C_14  and  N_15 
REMARK    8  A    between atoms: N_15  and  C_16 
REMARK    9  A    between atoms: C_16  and  N_18 
REMARK       I    between atoms: N_18  and  C_19 
REMARK   10  A    between atoms: C_19  and  C_21 
REMARK   11  A    between atoms: C_21  and  C_22 
REMARK   12  A    between atoms: C_22  and  C_23 
REMARK   13  A    between atoms: C_23  and  O_24 
REMARK   14  A    between atoms: O_24  and  C_25 
ROOT
ATOM      1  N   UNL d   1      27.067 -12.203  -6.373  0.00  0.00    -0.333 N 
ATOM      2  H   UNL d   1      26.263 -11.751  -6.800  0.00  0.00     0.168 HD
ENDROOT
BRANCH   1   3
ATOM      3  C   UNL d   1      27.053 -12.196  -4.902  0.00  0.00     0.034 A 
ATOM      4  C   UNL d   1      25.944 -12.573  -4.128  0.00  0.00     0.030 A 
ATOM      5  C   UNL d   1      25.964 -12.426  -2.701  0.00  0.00     0.019 A 
ATOM      6  C   UNL d   1      27.099 -11.938  -2.035  0.00  0.00     0.032 A 
ATOM      7  C   UNL d   1      28.201 -11.615  -2.775  0.00  0.00     0.019 A 
ATOM      8  C   UNL d   1      28.159 -11.800  -4.144  0.00  0.00     0.030 A 
BRANCH   6   9
ATOM      9  C   UNL d   1      27.257 -11.917  -0.560  0.00  0.00     0.251 C 
ATOM     10  N   UNL d   1      27.385 -13.163   0.056  0.00  0.00    -0.355 N 
ATOM     11  H   UNL d   1      27.491 -13.992  -0.518  0.00  0.00     0.162 HD
ATOM     12  O   UNL d   1      27.229 -10.874   0.056  0.00  0.00    -0.268 OA
BRANCH  10  13
ATOM     13  C   UNL d   1      27.549 -13.211   1.491  0.00  0.00     0.150 C 
BRANCH  13  14
ATOM     14  C   UNL d   1      27.743 -14.626   2.053  0.00  0.00     0.254 C 
BRANCH  14  15
ATOM     15  N   UNL d   1      28.821 -14.698   3.157  0.00  0.00    -0.070 N 
ATOM     16  H   UNL d   1      29.342 -15.575   3.007  0.00  0.00     0.279 HD
BRANCH  15  17
ATOM     17  C   UNL d   1      29.788 -13.534   2.953  0.00  0.00     0.230 C 
ATOM     18  C   UNL d   1      30.953 -13.861   2.040  0.00  0.00     0.034 C 
ENDBRANCH  15  17
BRANCH  15  19
ATOM     19  C   UNL d   1      28.160 -14.751   4.528  0.00  0.00     0.230 C 
ATOM     20  C   UNL d   1      29.124 -14.817   5.690  0.00  0.00     0.034 C 
ENDBRANCH  15  19
ENDBRANCH  14  15
ENDBRANCH  13  14
ENDBRANCH  10  13
ENDBRANCH   6   9
ENDBRANCH   1   3
BRANCH   1  21
ATOM     21  C   UNL d   1      28.144 -12.650  -7.207  0.00  0.00     0.178 C 
ATOM     22  S   UNL d   1      28.401 -12.146  -8.806  0.00  0.00    -0.040 SA
BRANCH  21  23
ATOM     23  N   UNL d   1      29.036 -13.597  -6.639  0.00  0.00    -0.304 N 
ATOM     24  C   UNL d   1      28.581 -14.822  -6.109  0.00  0.00     0.223 C 
ATOM     25  O   UNL d   1      27.409 -15.202  -6.135  0.00  0.00    -0.273 OA
ATOM     26  H   UNL d   1      30.023 -13.388  -6.568  0.00  0.00     0.171 HD
BRANCH  24  27
ATOM     27  C   UNL d   1      29.530 -15.798  -5.468  0.00  0.00     0.105 C 
BRANCH  27  28
ATOM     28  C   UNL d   1      28.895 -16.200  -4.096  0.00  0.00     0.036 C 
BRANCH  28  29
ATOM     29  C   UNL d   1      29.135 -15.153  -3.038  0.00  0.00     0.176 C 
BRANCH  29  30
ATOM     30  O   UNL d   1      27.898 -14.714  -2.480  0.00  0.00    -0.349 OA
BRANCH  30  31
ATOM     31  C   UNL d   1      27.073 -15.695  -1.983  0.00  0.00     0.090 A 
ATOM     32  C   UNL d   1      25.753 -15.642  -2.473  0.00  0.00     0.040 A 
ATOM     33  C   UNL d   1      24.760 -16.489  -1.964  0.00  0.00     0.026 A 
ATOM     34  C   UNL d   1      25.096 -17.443  -1.012  0.00  0.00     0.035 A 
ATOM     35 CL   UNL d   1      23.924 -18.571  -0.454  0.00  0.00    -0.084 Cl
ATOM     36  C   UNL d   1      26.391 -17.512  -0.520  0.00  0.00     0.050 A 
ATOM     37  C   UNL d   1      27.377 -16.637  -0.983  0.00  0.00     0.069 A 
ATOM     38 CL   UNL d   1      28.892 -16.819  -0.169  0.00  0.00    -0.081 Cl
ENDBRANCH  30  31
ENDBRANCH  29  30
ENDBRANCH  28  29
ENDBRANCH  27  28
ENDBRANCH  24  27
ENDBRANCH  21  23
ENDBRANCH   1  21
TORSDOF 14
ENDMDL
MODEL 8
REMARK VINA RESULT:    -6.788      2.258      3.919
REMARK INTER + INTRA:         -14.791
REMARK INTER:                 -10.964
REMARK INTRA:                  -3.827
REMARK CONF_INDEPENDENT:        4.176
REMARK UNBOUND:                -3.827
REMARK  14 active torsions:
REMARK  status: ('A' for Active; 'I' for Inactive)
REMARK    1  A    between atoms: C_2  and  N_3 
REMARK    2  A    between atoms: N_3  and  C_4 
REMARK    3  A    between atoms: N_3  and  C_6 
REMARK    4  A    between atoms: C_6  and  C_7 
REMARK    5  A    between atoms: C_7  and  N_8 
REMARK       I    between atoms: N_8  and  C_9 
REMARK    6  A    between atoms: C_9  and  C_11 
REMARK    7  A    between atoms: C_14  and  N_15 
REMARK    8  A    between atoms: N_15  and  C_16 
REMARK    9  A    between atoms: C_16  and  N_18 
REMARK       I    between atoms: N_18  and  C_19 
REMARK   10  A    between atoms: C_19  and  C_21 
REMARK   11  A    between atoms: C_21  and  C_22 
REMARK   12  A    between atoms: C_22  and  C_23 
REMARK   13  A    between atoms: C_23  and  O_24 
REMARK   14  A    between atoms: O_24  and  C_25 
ROOT
ATOM      1  N   UNL d   1      28.272 -15.093   1.591  0.00  0.00    -0.333 N 
ATOM      2  H   UNL d   1      28.707 -15.988   1.383  0.00  0.00     0.168 HD
ENDROOT
BRANCH   1   3
ATOM      3  C   UNL d   1      28.612 -14.549   2.914  0.00  0.00     0.034 A 
ATOM      4  C   UNL d   1      29.722 -13.725   3.159  0.00  0.00     0.030 A 
ATOM      5  C   UNL d   1      30.060 -13.331   4.496  0.00  0.00     0.019 A 
ATOM      6  C   UNL d   1      29.274 -13.722   5.592  0.00  0.00     0.032 A 
ATOM      7  C   UNL d   1      28.163 -14.483   5.358  0.00  0.00     0.019 A 
ATOM      8  C   UNL d   1      27.849 -14.818   4.054  0.00  0.00     0.030 A 
BRANCH   6   9
ATOM      9  C   UNL d   1      29.458 -13.218   6.974  0.00  0.00     0.251 C 
ATOM     10  N   UNL d   1      30.777 -13.001   7.373  0.00  0.00    -0.355 N 
ATOM     11  H   UNL d   1      31.521 -13.068   6.687  0.00  0.00     0.162 HD
ATOM     12  O   UNL d   1      28.508 -13.056   7.711  0.00  0.00    -0.268 OA
BRANCH  10  13
ATOM     13  C   UNL d   1      31.023 -12.504   8.707  0.00  0.00     0.150 C 
BRANCH  13  14
ATOM     14  C   UNL d   1      31.105 -13.598   9.780  0.00  0.00     0.254 C 
BRANCH  14  15
ATOM     15  N   UNL d   1      29.921 -14.589   9.728  0.00  0.00    -0.070 N 
ATOM     16  H   UNL d   1      29.616 -14.636   8.744  0.00  0.00     0.279 HD
BRANCH  15  17
ATOM     17  C   UNL d   1      30.439 -15.969  10.128  0.00  0.00     0.230 C 
ATOM     18  C   UNL d   1      31.599 -15.927  11.103  0.00  0.00     0.034 C 
ENDBRANCH  15  17
BRANCH  15  19
ATOM     19  C   UNL d   1      28.767 -14.066  10.573  0.00  0.00     0.230 C 
ATOM     20  C   UNL d   1      28.710 -12.561  10.700  0.00  0.00     0.034 C 
ENDBRANCH  15  19
ENDBRANCH  14  15
ENDBRANCH  13  14
ENDBRANCH  10  13
ENDBRANCH   6   9
ENDBRANCH   1   3
BRANCH   1  21
ATOM     21  C   UNL d   1      27.308 -14.554   0.676  0.00  0.00     0.178 C 
ATOM     22  S   UNL d   1      27.019 -12.899   0.443  0.00  0.00    -0.040 SA
BRANCH  21  23
ATOM     23  N   UNL d   1      26.539 -15.491  -0.063  0.00  0.00    -0.304 N 
ATOM     24  C   UNL d   1      26.485 -16.854   0.295  0.00  0.00     0.223 C 
ATOM     25  O   UNL d   1      27.038 -17.339   1.284  0.00  0.00    -0.273 OA
ATOM     26  H   UNL d   1      26.043 -15.200  -0.894  0.00  0.00     0.171 HD
BRANCH  24  27
ATOM     27  C   UNL d   1      25.704 -17.847  -0.522  0.00  0.00     0.105 C 
BRANCH  27  28
ATOM     28  C   UNL d   1      24.252 -17.278  -0.642  0.00  0.00     0.036 C 
BRANCH  28  29
ATOM     29  C   UNL d   1      24.164 -16.175  -1.666  0.00  0.00     0.176 C 
BRANCH  29  30
ATOM     30  O   UNL d   1      25.232 -16.279  -2.605  0.00  0.00    -0.349 OA
BRANCH  30  31
ATOM     31  C   UNL d   1      25.752 -15.093  -3.068  0.00  0.00     0.090 A 
ATOM     32  C   UNL d   1      24.781 -14.167  -3.497  0.00  0.00     0.040 A 
ATOM     33  C   UNL d   1      25.154 -12.967  -4.117  0.00  0.00     0.026 A 
ATOM     34  C   UNL d   1      26.501 -12.652  -4.247  0.00  0.00     0.035 A 
ATOM     35 CL   UNL d   1      26.986 -11.138  -4.899  0.00  0.00    -0.084 Cl
ATOM     36  C   UNL d   1      27.471 -13.551  -3.828  0.00  0.00     0.050 A 
ATOM     37  C   UNL d   1      27.109 -14.774  -3.256  0.00  0.00     0.069 A 
ATOM     38 CL   UNL d   1      28.463 -15.790  -2.899  0.00  0.00    -0.081 Cl
ENDBRANCH  30  31
ENDBRANCH  29  30
ENDBRANCH  28  29
ENDBRANCH  27  28
ENDBRANCH  24  27
ENDBRANCH  21  23
ENDBRANCH   1  21
TORSDOF 14
ENDMDL
MODEL 9
REMARK VINA RESULT:    -6.716      2.613      3.508
REMARK INTER + INTRA:         -14.864
REMARK INTER:                 -10.893
REMARK INTRA:                  -3.971
REMARK CONF_INDEPENDENT:        4.176
REMARK UNBOUND:                -3.971
REMARK  14 active torsions:
REMARK  status: ('A' for Active; 'I' for Inactive)
REMARK    1  A    between atoms: C_2  and  N_3 
REMARK    2  A    between atoms: N_3  and  C_4 
REMARK    3  A    between atoms: N_3  and  C_6 
REMARK    4  A    between atoms: C_6  and  C_7 
REMARK    5  A    between atoms: C_7  and  N_8 
REMARK       I    between atoms: N_8  and  C_9 
REMARK    6  A    between atoms: C_9  and  C_11 
REMARK    7  A    between atoms: C_14  and  N_15 
REMARK    8  A    between atoms: N_15  and  C_16 
REMARK    9  A    between atoms: C_16  and  N_18 
REMARK       I    between atoms: N_18  and  C_19 
REMARK   10  A    between atoms: C_19  and  C_21 
REMARK   11  A    between atoms: C_21  and  C_22 
REMARK   12  A    between atoms: C_22  and  C_23 
REMARK   13  A    between atoms: C_23  and  O_24 
REMARK   14  A    between atoms: O_24  and  C_25 
ROOT
ATOM      1  N   UNL d   1      27.444 -13.238   0.357  0.00  0.00    -0.333 N 
ATOM      2  H   UNL d   1      26.487 -13.103   0.042  0.00  0.00     0.168 HD
ENDROOT
BRANCH   1   3
ATOM      3  C   UNL d   1      27.600 -13.269   1.819  0.00  0.00     0.034 A 
ATOM      4  C   UNL d   1      27.497 -12.136   2.641  0.00  0.00     0.030 A 
ATOM      5  C   UNL d   1      27.781 -12.222   4.045  0.00  0.00     0.019 A 
ATOM      6  C   UNL d   1      28.133 -13.442   4.643  0.00  0.00     0.032 A 
ATOM      7  C   UNL d   1      28.188 -14.561   3.860  0.00  0.00     0.019 A 
ATOM      8  C   UNL d   1      27.877 -14.448   2.518  0.00  0.00     0.030 A 
BRANCH   6   9
ATOM      9  C   UNL d   1      28.274 -13.646   6.106  0.00  0.00     0.251 C 
ATOM     10  N   UNL d   1      28.150 -12.501   6.894  0.00  0.00    -0.355 N 
ATOM     11  H   UNL d   1      27.850 -11.633   6.465  0.00  0.00     0.162 HD
ATOM     12  O   UNL d   1      28.527 -14.740   6.563  0.00  0.00    -0.268 OA
BRANCH  10  13
ATOM     13  C   UNL d   1      28.270 -12.633   8.328  0.00  0.00     0.150 C 
BRANCH  13  14
ATOM     14  C   UNL d   1      29.684 -12.986   8.809  0.00  0.00     0.254 C 
BRANCH  14  15
ATOM     15  N   UNL d   1      29.882 -14.499   9.054  0.00  0.00    -0.070 N 
ATOM     16  H   UNL d   1      29.349 -14.990   8.321  0.00  0.00     0.279 HD
BRANCH  15  17
ATOM     17  C   UNL d   1      31.362 -14.821   8.856  0.00  0.00     0.230 C 
ATOM     18  C   UNL d   1      31.983 -15.575  10.015  0.00  0.00     0.034 C 
ENDBRANCH  15  17
BRANCH  15  19
ATOM     19  C   UNL d   1      29.316 -14.885  10.413  0.00  0.00     0.230 C 
ATOM     20  C   UNL d   1      28.359 -13.877  11.006  0.00  0.00     0.034 C 
ENDBRANCH  15  19
ENDBRANCH  14  15
ENDBRANCH  13  14
ENDBRANCH  10  13
ENDBRANCH   6   9
ENDBRANCH   1   3
BRANCH   1  21
ATOM     21  C   UNL d   1      28.505 -13.241  -0.608  0.00  0.00     0.178 C 
ATOM     22  S   UNL d   1      30.000 -14.014  -0.398  0.00  0.00    -0.040 SA
BRANCH  21  23
ATOM     23  N   UNL d   1      28.272 -12.523  -1.810  0.00  0.00    -0.304 N 
ATOM     24  C   UNL d   1      26.969 -12.300  -2.302  0.00  0.00     0.223 C 
ATOM     25  O   UNL d   1      25.936 -12.648  -1.726  0.00  0.00    -0.273 OA
ATOM     26  H   UNL d   1      29.049 -12.189  -2.363  0.00  0.00     0.171 HD
BRANCH  24  27
ATOM     27  C   UNL d   1      26.736 -11.577  -3.601  0.00  0.00     0.105 C 
BRANCH  27  28
ATOM     28  C   UNL d   1      26.340 -12.667  -4.651  0.00  0.00     0.036 C 
BRANCH  28  29
ATOM     29  C   UNL d   1      25.035 -13.336  -4.301  0.00  0.00     0.176 C 
BRANCH  29  30
ATOM     30  O   UNL d   1      25.160 -14.753  -4.391  0.00  0.00    -0.349 OA
BRANCH  30  31
ATOM     31  C   UNL d   1      25.698 -15.387  -3.296  0.00  0.00     0.090 A 
ATOM     32  C   UNL d   1      24.763 -15.687  -2.286  0.00  0.00     0.040 A 
ATOM     33  C   UNL d   1      25.176 -16.212  -1.054  0.00  0.00     0.026 A 
ATOM     34  C   UNL d   1      26.518 -16.507  -0.850  0.00  0.00     0.035 A 
ATOM     35 CL   UNL d   1      27.036 -17.258   0.606  0.00  0.00    -0.084 Cl
ATOM     36  C   UNL d   1      27.452 -16.222  -1.835  0.00  0.00     0.050 A 
ATOM     37  C   UNL d   1      27.058 -15.649  -3.047  0.00  0.00     0.069 A 
ATOM     38 CL   UNL d   1      28.384 -15.277  -4.093  0.00  0.00    -0.081 Cl
ENDBRANCH  30  31
ENDBRANCH  29  30
ENDBRANCH  28  29
ENDBRANCH  27  28
ENDBRANCH  24  27
ENDBRANCH  21  23
ENDBRANCH   1  21
TORSDOF 14
ENDMDL
