MODEL 1
REMARK VINA RESULT:    -7.735      0.000      0.000
REMARK INTER + INTRA:          -9.859
REMARK INTER:                  -9.524
REMARK INTRA:                  -0.335
REMARK CONF_INDEPENDENT:        1.790
REMARK UNBOUND:                -0.335
REMARK  6 active torsions:
REMARK  status: ('A' for Active; 'I' for Inactive)
REMARK    1  A    between atoms: C_3  and  C_2 
REMARK    2  A    between atoms: C_3  and  N_5 
REMARK       I    between atoms: N_5  and  C_6 
REMARK    3  A    between atoms: C_6  and  C_8 
REMARK    4  A    between atoms: C_8  and  C_9 
REMARK    5  A    between atoms: C_9  and  C_10 
REMARK    6  A    between atoms: C_14  and  N_15 
ROOT
ATOM      1  C   UNL d   1      24.061 -17.757   0.201  0.00  0.00     0.048 C 
ENDROOT
BRANCH   1   2
ATOM      2  C   UNL d   1      23.420 -18.830  -0.693  0.00  0.00     0.107 C 
BRANCH   2   3
ATOM      3  C   UNL d   1      21.918 -18.713  -0.609  0.00  0.00     0.218 C 
ATOM      4  N   UNL d   1      21.281 -19.601   0.234  0.00  0.00    -0.357 N 
ATOM      5  H   UNL d   1      21.781 -20.425   0.550  0.00  0.00     0.162 HD
ATOM      6  O   UNL d   1      21.311 -17.851  -1.251  0.00  0.00    -0.274 OA
BRANCH   4   7
ATOM      7  C   UNL d   1      19.855 -19.463   0.553  0.00  0.00     0.080 C 
ATOM      8  C   UNL d   1      18.979 -19.699  -0.687  0.00  0.00     0.032 C 
BRANCH   7   9
ATOM      9  C   UNL d   1      19.392 -20.448   1.654  0.00  0.00     0.020 C 
ATOM     10  C   UNL d   1      18.119 -21.221   1.355  0.00  0.00     0.007 C 
ENDBRANCH   7   9
ENDBRANCH   4   7
ENDBRANCH   2   3
ENDBRANCH   1   2
BRANCH   1  11
ATOM     11  C   UNL d   1      25.290 -17.155  -0.420  0.00  0.00    -0.056 A 
ATOM     12  C   UNL d   1      25.213 -16.525  -1.666  0.00  0.00     0.007 A 
ATOM     13  C   UNL d   1      26.364 -16.018  -2.260  0.00  0.00     0.003 A 
ATOM     14  C   UNL d   1      27.595 -16.139  -1.610  0.00  0.00     0.029 A 
ATOM     15  C   UNL d   1      27.687 -16.726  -0.346  0.00  0.00     0.026 A 
ATOM     16  C   UNL d   1      26.528 -17.248   0.232  0.00  0.00     0.036 A 
BRANCH  15  17
ATOM     17  N   UNL d   1      28.927 -16.977   0.229  0.00  0.00    -0.399 N 
ATOM     18  H   UNL d   1      29.193 -16.427   1.036  0.00  0.00     0.156 HD
ATOM     19  H   UNL d   1      29.276 -17.928   0.204  0.00  0.00     0.156 HD
ENDBRANCH  15  17
ENDBRANCH   1  11
TORSDOF 6
ENDMDL
MODEL 2
REMARK VINA RESULT:    -6.868      2.382      3.005
REMARK INTER + INTRA:          -8.979
REMARK INTER:                  -8.658
REMARK INTRA:                  -0.321
REMARK CONF_INDEPENDENT:        1.790
REMARK UNBOUND:                -0.321
REMARK  6 active torsions:
REMARK  status: ('A' for Active; 'I' for Inactive)
REMARK    1  A    between atoms: C_3  and  C_2 
REMARK    2  A    between atoms: C_3  and  N_5 
REMARK       I    between atoms: N_5  and  C_6 
REMARK    3  A    between atoms: C_6  and  C_8 
REMARK    4  A    between atoms: C_8  and  C_9 
REMARK    5  A    between atoms: C_9  and  C_10 
REMARK    6  A    between atoms: C_14  and  N_15 
ROOT
ATOM      1  C   UNL d   1      24.578 -17.128  -1.368  0.00  0.00     0.048 C 
ENDROOT
BRANCH   1   2
ATOM      2  C   UNL d   1      23.239 -16.981  -0.629  0.00  0.00     0.107 C 
BRANCH   2   3
ATOM      3  C   UNL d   1      22.543 -18.320  -0.596  0.00  0.00     0.218 C 
ATOM      4  N   UNL d   1      21.694 -18.543   0.470  0.00  0.00    -0.357 N 
ATOM      5  H   UNL d   1      21.759 -17.944   1.285  0.00  0.00     0.162 HD
ATOM      6  O   UNL d   1      22.720 -19.151  -1.491  0.00  0.00    -0.274 OA
BRANCH   4   7
ATOM      7  C   UNL d   1      20.813 -19.717   0.512  0.00  0.00     0.080 C 
ATOM      8  C   UNL d   1      20.231 -19.928   1.917  0.00  0.00     0.032 C 
BRANCH   7   9
ATOM      9  C   UNL d   1      19.629 -19.610  -0.480  0.00  0.00     0.020 C 
ATOM     10  C   UNL d   1      18.409 -20.450  -0.144  0.00  0.00     0.007 C 
ENDBRANCH   7   9
ENDBRANCH   4   7
ENDBRANCH   2   3
ENDBRANCH   1   2
BRANCH   1  11
ATOM     11  C   UNL d   1      25.176 -15.799  -1.735  0.00  0.00    -0.056 A 
ATOM     12  C   UNL d   1      26.095 -15.181  -0.881  0.00  0.00     0.007 A 
ATOM     13  C   UNL d   1      26.604 -13.926  -1.201  0.00  0.00     0.003 A 
ATOM     14  C   UNL d   1      26.196 -13.287  -2.375  0.00  0.00     0.029 A 
ATOM     15  C   UNL d   1      25.313 -13.906  -3.262  0.00  0.00     0.026 A 
ATOM     16  C   UNL d   1      24.795 -15.157  -2.922  0.00  0.00     0.036 A 
BRANCH  15  17
ATOM     17  N   UNL d   1      24.797 -13.209  -4.349  0.00  0.00    -0.399 N 
ATOM     18  H   UNL d   1      24.056 -13.647  -4.881  0.00  0.00     0.156 HD
ATOM     19  H   UNL d   1      24.767 -12.198  -4.291  0.00  0.00     0.156 HD
ENDBRANCH  15  17
ENDBRANCH   1  11
TORSDOF 6
ENDMDL
MODEL 3
REMARK VINA RESULT:    -6.843      1.581      2.099
REMARK INTER + INTRA:          -8.994
REMARK INTER:                  -8.633
REMARK INTRA:                  -0.361
REMARK CONF_INDEPENDENT:        1.790
REMARK UNBOUND:                -0.361
REMARK  6 active torsions:
REMARK  status: ('A' for Active; 'I' for Inactive)
REMARK    1  A    between atoms: C_3  and  C_2 
REMARK    2  A    between atoms: C_3  and  N_5 
REMARK       I    between atoms: N_5  and  C_6 
REMARK    3  A    between atoms: C_6  and  C_8 
REMARK    4  A    between atoms: C_8  and  C_9 
REMARK    5  A    between atoms: C_9  and  C_10 
REMARK    6  A    between atoms: C_14  and  N_15 
ROOT
ATOM      1  C   UNL d   1      22.884 -17.831  -0.132  0.00  0.00     0.048 C 
ENDROOT
BRANCH   1   2
ATOM      2  C   UNL d   1      22.148 -18.623  -1.224  0.00  0.00     0.107 C 
BRANCH   2   3
ATOM      3  C   UNL d   1      20.897 -19.229  -0.636  0.00  0.00     0.218 C 
ATOM      4  N   UNL d   1      21.020 -19.790   0.619  0.00  0.00    -0.357 N 
ATOM      5  H   UNL d   1      21.945 -19.999   0.977  0.00  0.00     0.162 HD
ATOM      6  O   UNL d   1      19.827 -19.200  -1.251  0.00  0.00    -0.274 OA
BRANCH   4   7
ATOM      7  C   UNL d   1      19.842 -20.232   1.377  0.00  0.00     0.080 C 
ATOM      8  C   UNL d   1      18.928 -19.050   1.728  0.00  0.00     0.032 C 
BRANCH   7   9
ATOM      9  C   UNL d   1      18.995 -21.273   0.605  0.00  0.00     0.020 C 
ATOM     10  C   UNL d   1      17.654 -21.625   1.228  0.00  0.00     0.007 C 
ENDBRANCH   7   9
ENDBRANCH   4   7
ENDBRANCH   2   3
ENDBRANCH   1   2
BRANCH   1  11
ATOM     11  C   UNL d   1      24.280 -17.452  -0.543  0.00  0.00    -0.056 A 
ATOM     12  C   UNL d   1      25.374 -17.850   0.232  0.00  0.00     0.007 A 
ATOM     13  C   UNL d   1      26.658 -17.451  -0.124  0.00  0.00     0.003 A 
ATOM     14  C   UNL d   1      26.852 -16.654  -1.255  0.00  0.00     0.029 A 
ATOM     15  C   UNL d   1      25.777 -16.282  -2.066  0.00  0.00     0.026 A 
ATOM     16  C   UNL d   1      24.491 -16.674  -1.689  0.00  0.00     0.036 A 
BRANCH  15  17
ATOM     17  N   UNL d   1      25.954 -15.371  -3.101  0.00  0.00    -0.399 N 
ATOM     18  H   UNL d   1      25.520 -14.462  -3.009  0.00  0.00     0.156 HD
ATOM     19  H   UNL d   1      26.830 -15.397  -3.609  0.00  0.00     0.156 HD
ENDBRANCH  15  17
ENDBRANCH   1  11
TORSDOF 6
ENDMDL
MODEL 4
REMARK VINA RESULT:    -6.839      2.011      7.391
REMARK INTER + INTRA:          -9.041
REMARK INTER:                  -8.628
REMARK INTRA:                  -0.412
REMARK CONF_INDEPENDENT:        1.790
REMARK UNBOUND:                -0.412
REMARK  6 active torsions:
REMARK  status: ('A' for Active; 'I' for Inactive)
REMARK    1  A    between atoms: C_3  and  C_2 
REMARK    2  A    between atoms: C_3  and  N_5 
REMARK       I    between atoms: N_5  and  C_6 
REMARK    3  A    between atoms: C_6  and  C_8 
REMARK    4  A    between atoms: C_8  and  C_9 
REMARK    5  A    between atoms: C_9  and  C_10 
REMARK    6  A    between atoms: C_14  and  N_15 
ROOT
ATOM      1  C   UNL d   1      20.916 -19.090  -1.207  0.00  0.00     0.048 C 
ENDROOT
BRANCH   1   2
ATOM      2  C   UNL d   1      21.693 -17.802  -0.895  0.00  0.00     0.107 C 
BRANCH   2   3
ATOM      3  C   UNL d   1      23.166 -18.118  -0.820  0.00  0.00     0.218 C 
ATOM      4  N   UNL d   1      24.018 -17.215  -1.425  0.00  0.00    -0.357 N 
ATOM      5  H   UNL d   1      23.638 -16.546  -2.085  0.00  0.00     0.162 HD
ATOM      6  O   UNL d   1      23.572 -19.124  -0.231  0.00  0.00    -0.274 OA
BRANCH   4   7
ATOM      7  C   UNL d   1      25.473 -17.304  -1.253  0.00  0.00     0.080 C 
ATOM      8  C   UNL d   1      26.181 -16.069  -1.830  0.00  0.00     0.032 C 
BRANCH   7   9
ATOM      9  C   UNL d   1      25.890 -17.438   0.232  0.00  0.00     0.020 C 
ATOM     10  C   UNL d   1      26.847 -18.575   0.549  0.00  0.00     0.007 C 
ENDBRANCH   7   9
ENDBRANCH   4   7
ENDBRANCH   2   3
ENDBRANCH   1   2
BRANCH   1  11
ATOM     11  C   UNL d   1      20.189 -19.625  -0.006  0.00  0.00    -0.056 A 
ATOM     12  C   UNL d   1      20.643 -19.326   1.282  0.00  0.00     0.007 A 
ATOM     13  C   UNL d   1      19.997 -19.867   2.389  0.00  0.00     0.003 A 
ATOM     14  C   UNL d   1      18.896 -20.710   2.211  0.00  0.00     0.029 A 
ATOM     15  C   UNL d   1      18.402 -20.987   0.935  0.00  0.00     0.026 A 
ATOM     16  C   UNL d   1      19.068 -20.451  -0.169  0.00  0.00     0.036 A 
BRANCH  15  17
ATOM     17  N   UNL d   1      17.404 -21.938   0.754  0.00  0.00    -0.399 N 
ATOM     18  H   UNL d   1      16.909 -21.940  -0.129  0.00  0.00     0.156 HD
ATOM     19  H   UNL d   1      17.524 -22.840   1.200  0.00  0.00     0.156 HD
ENDBRANCH  15  17
ENDBRANCH   1  11
TORSDOF 6
ENDMDL
MODEL 5
REMARK VINA RESULT:    -6.495      1.015      1.357
REMARK INTER + INTRA:          -8.345
REMARK INTER:                  -8.285
REMARK INTRA:                  -0.060
REMARK CONF_INDEPENDENT:        1.790
REMARK UNBOUND:                -0.060
REMARK  6 active torsions:
REMARK  status: ('A' for Active; 'I' for Inactive)
REMARK    1  A    between atoms: C_3  and  C_2 
REMARK    2  A    between atoms: C_3  and  N_5 
REMARK       I    between atoms: N_5  and  C_6 
REMARK    3  A    between atoms: C_6  and  C_8 
REMARK    4  A    between atoms: C_8  and  C_9 
REMARK    5  A    between atoms: C_9  and  C_10 
REMARK    6  A    between atoms: C_14  and  N_15 
ROOT
ATOM      1  C   UNL d   1      24.352 -17.742  -0.943  0.00  0.00     0.048 C 
ENDROOT
BRANCH   1   2
ATOM      2  C   UNL d   1      23.100 -16.907  -0.630  0.00  0.00     0.107 C 
BRANCH   2   3
ATOM      3  C   UNL d   1      21.906 -17.825  -0.528  0.00  0.00     0.218 C 
ATOM      4  N   UNL d   1      22.062 -18.947   0.262  0.00  0.00    -0.357 N 
ATOM      5  H   UNL d   1      22.997 -19.239   0.523  0.00  0.00     0.162 HD
ATOM      6  O   UNL d   1      20.851 -17.563  -1.111  0.00  0.00    -0.274 OA
BRANCH   4   7
ATOM      7  C   UNL d   1      20.922 -19.808   0.599  0.00  0.00     0.080 C 
ATOM      8  C   UNL d   1      20.228 -19.338   1.886  0.00  0.00     0.032 C 
BRANCH   7   9
ATOM      9  C   UNL d   1      19.858 -19.853  -0.524  0.00  0.00     0.020 C 
ATOM     10  C   UNL d   1      18.521 -20.467  -0.142  0.00  0.00     0.007 C 
ENDBRANCH   7   9
ENDBRANCH   4   7
ENDBRANCH   2   3
ENDBRANCH   1   2
BRANCH   1  11
ATOM     11  C   UNL d   1      25.554 -16.885  -1.223  0.00  0.00    -0.056 A 
ATOM     12  C   UNL d   1      25.550 -15.998  -2.305  0.00  0.00     0.007 A 
ATOM     13  C   UNL d   1      26.686 -15.248  -2.591  0.00  0.00     0.003 A 
ATOM     14  C   UNL d   1      27.828 -15.381  -1.797  0.00  0.00     0.029 A 
ATOM     15  C   UNL d   1      27.838 -16.229  -0.687  0.00  0.00     0.026 A 
ATOM     16  C   UNL d   1      26.699 -16.991  -0.421  0.00  0.00     0.036 A 
BRANCH  15  17
ATOM     17  N   UNL d   1      29.017 -16.470   0.009  0.00  0.00    -0.399 N 
ATOM     18  H   UNL d   1      29.826 -15.908  -0.224  0.00  0.00     0.156 HD
ATOM     19  H   UNL d   1      28.943 -16.766   0.975  0.00  0.00     0.156 HD
ENDBRANCH  15  17
ENDBRANCH   1  11
TORSDOF 6
ENDMDL
MODEL 6
REMARK VINA RESULT:    -6.384      1.802      7.200
REMARK INTER + INTRA:          -8.581
REMARK INTER:                  -8.174
REMARK INTRA:                  -0.406
REMARK CONF_INDEPENDENT:        1.790
REMARK UNBOUND:                -0.406
REMARK  6 active torsions:
REMARK  status: ('A' for Active; 'I' for Inactive)
REMARK    1  A    between atoms: C_3  and  C_2 
REMARK    2  A    between atoms: C_3  and  N_5 
REMARK       I    between atoms: N_5  and  C_6 
REMARK    3  A    between atoms: C_6  and  C_8 
REMARK    4  A    between atoms: C_8  and  C_9 
REMARK    5  A    between atoms: C_9  and  C_10 
REMARK    6  A    between atoms: C_14  and  N_15 
ROOT
ATOM      1  C   UNL d   1      20.690 -18.469  -0.927  0.00  0.00     0.048 C 
ENDROOT
BRANCH   1   2
ATOM      2  C   UNL d   1      22.128 -18.951  -1.177  0.00  0.00     0.107 C 
BRANCH   2   3
ATOM      3  C   UNL d   1      23.093 -17.979  -0.544  0.00  0.00     0.218 C 
ATOM      4  N   UNL d   1      24.409 -18.388  -0.461  0.00  0.00    -0.357 N 
ATOM      5  H   UNL d   1      24.627 -19.371  -0.581  0.00  0.00     0.162 HD
ATOM      6  O   UNL d   1      22.712 -16.875  -0.144  0.00  0.00    -0.274 OA
BRANCH   4   7
ATOM      7  C   UNL d   1      25.472 -17.463  -0.050  0.00  0.00     0.080 C 
ATOM      8  C   UNL d   1      26.587 -18.196   0.711  0.00  0.00     0.032 C 
BRANCH   7   9
ATOM      9  C   UNL d   1      26.120 -16.730  -1.250  0.00  0.00     0.020 C 
ATOM     10  C   UNL d   1      25.154 -16.135  -2.260  0.00  0.00     0.007 C 
ENDBRANCH   7   9
ENDBRANCH   4   7
ENDBRANCH   2   3
ENDBRANCH   1   2
BRANCH   1  11
ATOM     11  C   UNL d   1      19.920 -19.406  -0.039  0.00  0.00    -0.056 A 
ATOM     12  C   UNL d   1      18.780 -20.057  -0.524  0.00  0.00     0.007 A 
ATOM     13  C   UNL d   1      18.041 -20.881   0.318  0.00  0.00     0.003 A 
ATOM     14  C   UNL d   1      18.438 -21.057   1.647  0.00  0.00     0.029 A 
ATOM     15  C   UNL d   1      19.597 -20.450   2.138  0.00  0.00     0.026 A 
ATOM     16  C   UNL d   1      20.321 -19.612   1.288  0.00  0.00     0.036 A 
BRANCH  15  17
ATOM     17  N   UNL d   1      19.906 -20.507   3.492  0.00  0.00    -0.399 N 
ATOM     18  H   UNL d   1      20.451 -21.295   3.818  0.00  0.00     0.156 HD
ATOM     19  H   UNL d   1      20.051 -19.632   3.981  0.00  0.00     0.156 HD
ENDBRANCH  15  17
ENDBRANCH   1  11
TORSDOF 6
ENDMDL
MODEL 7
REMARK VINA RESULT:    -5.824      2.935      4.447
REMARK INTER + INTRA:          -8.170
REMARK INTER:                  -7.613
REMARK INTRA:                  -0.557
REMARK CONF_INDEPENDENT:        1.790
REMARK UNBOUND:                -0.557
REMARK  6 active torsions:
REMARK  status: ('A' for Active; 'I' for Inactive)
REMARK    1  A    between atoms: C_3  and  C_2 
REMARK    2  A    between atoms: C_3  and  N_5 
REMARK       I    between atoms: N_5  and  C_6 
REMARK    3  A    between atoms: C_6  and  C_8 
REMARK    4  A    between atoms: C_8  and  C_9 
REMARK    5  A    between atoms: C_9  and  C_10 
REMARK    6  A    between atoms: C_14  and  N_15 
ROOT
ATOM      1  C   UNL d   1      27.328 -15.757  -1.021  0.00  0.00     0.048 C 
ENDROOT
BRANCH   1   2
ATOM      2  C   UNL d   1      27.241 -17.278  -0.824  0.00  0.00     0.107 C 
BRANCH   2   3
ATOM      3  C   UNL d   1      25.946 -17.613  -0.126  0.00  0.00     0.218 C 
ATOM      4  N   UNL d   1      24.793 -17.125  -0.708  0.00  0.00    -0.357 N 
ATOM      5  H   UNL d   1      24.865 -16.383  -1.395  0.00  0.00     0.162 HD
ATOM      6  O   UNL d   1      25.934 -18.303   0.897  0.00  0.00    -0.274 OA
BRANCH   4   7
ATOM      7  C   UNL d   1      23.465 -17.543  -0.241  0.00  0.00     0.080 C 
ATOM      8  C   UNL d   1      22.409 -16.463  -0.520  0.00  0.00     0.032 C 
BRANCH   7   9
ATOM      9  C   UNL d   1      22.987 -18.856  -0.907  0.00  0.00     0.020 C 
ATOM     10  C   UNL d   1      21.595 -19.325  -0.517  0.00  0.00     0.007 C 
ENDBRANCH   7   9
ENDBRANCH   4   7
ENDBRANCH   2   3
ENDBRANCH   1   2
BRANCH   1  11
ATOM     11  C   UNL d   1      27.019 -15.345  -2.433  0.00  0.00    -0.056 A 
ATOM     12  C   UNL d   1      27.949 -15.575  -3.452  0.00  0.00     0.007 A 
ATOM     13  C   UNL d   1      27.680 -15.143  -4.747  0.00  0.00     0.003 A 
ATOM     14  C   UNL d   1      26.481 -14.481  -5.026  0.00  0.00     0.029 A 
ATOM     15  C   UNL d   1      25.522 -14.279  -4.031  0.00  0.00     0.026 A 
ATOM     16  C   UNL d   1      25.811 -14.701  -2.732  0.00  0.00     0.036 A 
BRANCH  15  17
ATOM     17  N   UNL d   1      24.402 -13.493  -4.277  0.00  0.00    -0.399 N 
ATOM     18  H   UNL d   1      24.553 -12.537  -4.575  0.00  0.00     0.156 HD
ATOM     19  H   UNL d   1      23.576 -13.950  -4.645  0.00  0.00     0.156 HD
ENDBRANCH  15  17
ENDBRANCH   1  11
TORSDOF 6
ENDMDL
MODEL 8
REMARK VINA RESULT:    -5.624      3.545      7.947
REMARK INTER + INTRA:          -7.862
REMARK INTER:                  -7.414
REMARK INTRA:                  -0.448
REMARK CONF_INDEPENDENT:        1.790
REMARK UNBOUND:                -0.448
REMARK  6 active torsions:
REMARK  status: ('A' for Active; 'I' for Inactive)
REMARK    1  A    between atoms: C_3  and  C_2 
REMARK    2  A    between atoms: C_3  and  N_5 
REMARK       I    between atoms: N_5  and  C_6 
REMARK    3  A    between atoms: C_6  and  C_8 
REMARK    4  A    between atoms: C_8  and  C_9 
REMARK    5  A    between atoms: C_9  and  C_10 
REMARK    6  A    between atoms: C_14  and  N_15 
ROOT
ATOM      1  C   UNL d   1      24.780 -15.200  -2.429  0.00  0.00     0.048 C 
ENDROOT
BRANCH   1   2
ATOM      2  C   UNL d   1      26.204 -14.722  -2.755  0.00  0.00     0.107 C 
BRANCH   2   3
ATOM      3  C   UNL d   1      26.421 -14.798  -4.247  0.00  0.00     0.218 C 
ATOM      4  N   UNL d   1      27.666 -14.413  -4.704  0.00  0.00    -0.357 N 
ATOM      5  H   UNL d   1      28.271 -13.878  -4.093  0.00  0.00     0.162 HD
ATOM      6  O   UNL d   1      25.530 -15.200  -4.999  0.00  0.00    -0.274 OA
BRANCH   4   7
ATOM      7  C   UNL d   1      28.065 -14.626  -6.101  0.00  0.00     0.080 C 
ATOM      8  C   UNL d   1      28.428 -13.301  -6.786  0.00  0.00     0.032 C 
BRANCH   7   9
ATOM      9  C   UNL d   1      29.280 -15.577  -6.234  0.00  0.00     0.020 C 
ATOM     10  C   UNL d   1      29.684 -16.314  -4.968  0.00  0.00     0.007 C 
ENDBRANCH   7   9
ENDBRANCH   4   7
ENDBRANCH   2   3
ENDBRANCH   1   2
BRANCH   1  11
ATOM     11  C   UNL d   1      24.771 -16.356  -1.468  0.00  0.00    -0.056 A 
ATOM     12  C   UNL d   1      25.960 -17.025  -1.161  0.00  0.00     0.007 A 
ATOM     13  C   UNL d   1      25.938 -18.127  -0.313  0.00  0.00     0.003 A 
ATOM     14  C   UNL d   1      24.726 -18.564   0.231  0.00  0.00     0.029 A 
ATOM     15  C   UNL d   1      23.534 -17.884  -0.029  0.00  0.00     0.026 A 
ATOM     16  C   UNL d   1      23.567 -16.789  -0.896  0.00  0.00     0.036 A 
BRANCH  15  17
ATOM     17  N   UNL d   1      22.316 -18.405   0.390  0.00  0.00    -0.399 N 
ATOM     18  H   UNL d   1      22.274 -19.393   0.605  0.00  0.00     0.156 HD
ATOM     19  H   UNL d   1      21.707 -17.805   0.935  0.00  0.00     0.156 HD
ENDBRANCH  15  17
ENDBRANCH   1  11
TORSDOF 6
ENDMDL
MODEL 9
REMARK VINA RESULT:    -5.498      4.234      7.552
REMARK INTER + INTRA:          -7.858
REMARK INTER:                  -7.288
REMARK INTRA:                  -0.570
REMARK CONF_INDEPENDENT:        1.790
REMARK UNBOUND:                -0.570
REMARK  6 active torsions:
REMARK  status: ('A' for Active; 'I' for Inactive)
REMARK    1  A    between atoms: C_3  and  C_2 
REMARK    2  A    between atoms: C_3  and  N_5 
REMARK       I    between atoms: N_5  and  C_6 
REMARK    3  A    between atoms: C_6  and  C_8 
REMARK    4  A    between atoms: C_8  and  C_9 
REMARK    5  A    between atoms: C_9  and  C_10 
REMARK    6  A    between atoms: C_14  and  N_15 
ROOT
ATOM      1  C   UNL d   1      24.870 -15.480  -2.394  0.00  0.00     0.048 C 
ENDROOT
BRANCH   1   2
ATOM      2  C   UNL d   1      25.892 -14.447  -2.895  0.00  0.00     0.107 C 
BRANCH   2   3
ATOM      3  C   UNL d   1      26.292 -14.794  -4.308  0.00  0.00     0.218 C 
ATOM      4  N   UNL d   1      27.548 -14.381  -4.708  0.00  0.00    -0.357 N 
ATOM      5  H   UNL d   1      28.030 -13.676  -4.163  0.00  0.00     0.162 HD
ATOM      6  O   UNL d   1      25.533 -15.427  -5.047  0.00  0.00    -0.274 OA
BRANCH   4   7
ATOM      7  C   UNL d   1      28.128 -14.824  -5.981  0.00  0.00     0.080 C 
ATOM      8  C   UNL d   1      28.475 -13.630  -6.883  0.00  0.00     0.032 C 
BRANCH   7   9
ATOM      9  C   UNL d   1      29.415 -15.663  -5.789  0.00  0.00     0.020 C 
ATOM     10  C   UNL d   1      29.533 -16.398  -4.465  0.00  0.00     0.007 C 
ENDBRANCH   7   9
ENDBRANCH   4   7
ENDBRANCH   2   3
ENDBRANCH   1   2
BRANCH   1  11
ATOM     11  C   UNL d   1      25.465 -16.436  -1.398  0.00  0.00    -0.056 A 
ATOM     12  C   UNL d   1      24.649 -17.353  -0.729  0.00  0.00     0.007 A 
ATOM     13  C   UNL d   1      25.196 -18.199   0.230  0.00  0.00     0.003 A 
ATOM     14  C   UNL d   1      26.561 -18.130   0.523  0.00  0.00     0.029 A 
ATOM     15  C   UNL d   1      27.401 -17.251  -0.165  0.00  0.00     0.026 A 
ATOM     16  C   UNL d   1      26.836 -16.395  -1.113  0.00  0.00     0.036 A 
BRANCH  15  17
ATOM     17  N   UNL d   1      28.723 -17.080   0.229  0.00  0.00    -0.399 N 
ATOM     18  H   UNL d   1      28.911 -16.430   0.982  0.00  0.00     0.156 HD
ATOM     19  H   UNL d   1      29.342 -17.880   0.167  0.00  0.00     0.156 HD
ENDBRANCH  15  17
ENDBRANCH   1  11
TORSDOF 6
ENDMDL
