MODEL 1
REMARK VINA RESULT:   -29.521      0.000      0.000
REMARK INTER + INTRA:         -32.536
REMARK INTER:                 -31.310
REMARK INTRA:                  -1.226
REMARK CONF_INDEPENDENT:        1.790
REMARK UNBOUND:                -1.226
REMARK  6 active torsions:
REMARK  status: ('A' for Active; 'I' for Inactive)
REMARK    1  A    between atoms: N_1  and  N_2 
REMARK       I    between atoms: N_2  and  C_3 
REMARK    2  A    between atoms: C_3  and  C_5 
REMARK    3  A    between atoms: C_5  and  O_6 
REMARK    4  A    between atoms: O_6  and  C_7 
REMARK    5  A    between atoms: C_10  and  C_11 
REMARK       I    between atoms: C_11  and  N_13 
REMARK    6  A    between atoms: N_13  and  C_14 
ROOT
ATOM      1  C   UNL d   1      25.145 -17.493  -0.586  0.00  0.00     0.069 A 
ATOM      2  C   UNL d   1      25.029 -16.132  -0.876  0.00  0.00     0.038 A 
ATOM      3  C   UNL d   1      25.905 -15.209  -0.295  0.00  0.00     0.020 A 
ATOM      4  C   UNL d   1      26.868 -15.626   0.638  0.00  0.00     0.032 A 
ATOM      5  C   UNL d   1      27.000 -16.992   0.899  0.00  0.00     0.020 A 
ATOM      6  C   UNL d   1      26.144 -17.919   0.285  0.00  0.00     0.038 A 
ENDROOT
BRANCH   4   7
ATOM      7  C   UNL d   1      27.655 -14.573   1.341  0.00  0.00     0.252 C 
ATOM      8  O   UNL d   1      27.755 -13.469   0.800  0.00  0.00    -0.268 OA
ATOM      9  N   UNL d   1      28.202 -14.854   2.582  0.00  0.00    -0.352 N 
ATOM     10  H   UNL d   1      28.030 -15.738   3.035  0.00  0.00     0.163 HD
BRANCH   9  11
ATOM     11  C   UNL d   1      28.940 -13.854   3.356  0.00  0.00     0.084 C 
ATOM     12  C   UNL d   1      28.151 -12.541   3.465  0.00  0.00     0.025 C 
ATOM     13  C   UNL d   1      28.827 -11.511   4.359  0.00  0.00     0.002 C 
ATOM     14  C   UNL d   1      29.158 -12.098   5.727  0.00  0.00     0.000 C 
ATOM     15  C   UNL d   1      30.037 -13.335   5.590  0.00  0.00     0.002 C 
ATOM     16  C   UNL d   1      29.365 -14.401   4.727  0.00  0.00     0.025 C 
ENDBRANCH   9  11
ENDBRANCH   4   7
BRANCH   1  17
ATOM     17  O   UNL d   1      24.318 -18.321  -1.289  0.00  0.00    -0.342 OA
BRANCH  17  18
ATOM     18  C   UNL d   1      23.297 -19.021  -0.576  0.00  0.00     0.279 C 
BRANCH  18  19
ATOM     19  C   UNL d   1      21.949 -18.300  -0.766  0.00  0.00     0.255 C 
ATOM     20  N   UNL d   1      20.837 -19.151  -0.821  0.00  0.00    -0.292 N 
ATOM     21  H   UNL d   1      20.930 -20.150  -0.646  0.00  0.00     0.183 HD
ATOM     22  O   UNL d   1      21.853 -17.081  -0.905  0.00  0.00    -0.270 OA
BRANCH  20  23
ATOM     23  N   UNL d   1      19.546 -18.578  -0.897  0.00  0.00    -0.247 NA
ATOM     24  H   UNL d   1      18.996 -18.984  -1.654  0.00  0.00     0.143 HD
ATOM     25  H   UNL d   1      19.652 -17.579  -1.104  0.00  0.00     0.143 HD
ENDBRANCH  20  23
ENDBRANCH  18  19
ENDBRANCH  17  18
ENDBRANCH   1  17
TORSDOF 6
ENDMDL
MODEL 2
REMARK VINA RESULT:   -29.514      4.693      6.524
REMARK INTER + INTRA:         -32.620
REMARK INTER:                 -31.304
REMARK INTRA:                  -1.316
REMARK CONF_INDEPENDENT:        1.790
REMARK UNBOUND:                -1.316
REMARK  6 active torsions:
REMARK  status: ('A' for Active; 'I' for Inactive)
REMARK    1  A    between atoms: N_1  and  N_2 
REMARK       I    between atoms: N_2  and  C_3 
REMARK    2  A    between atoms: C_3  and  C_5 
REMARK    3  A    between atoms: C_5  and  O_6 
REMARK    4  A    between atoms: O_6  and  C_7 
REMARK    5  A    between atoms: C_10  and  C_11 
REMARK       I    between atoms: C_11  and  N_13 
REMARK    6  A    between atoms: N_13  and  C_14 
ROOT
ATOM      1  C   UNL d   1      24.602 -17.092  -0.747  0.00  0.00     0.069 A 
ATOM      2  C   UNL d   1      25.972 -17.363  -0.735  0.00  0.00     0.038 A 
ATOM      3  C   UNL d   1      26.832 -16.697  -1.613  0.00  0.00     0.020 A 
ATOM      4  C   UNL d   1      26.327 -15.796  -2.564  0.00  0.00     0.032 A 
ATOM      5  C   UNL d   1      24.961 -15.504  -2.549  0.00  0.00     0.020 A 
ATOM      6  C   UNL d   1      24.106 -16.148  -1.641  0.00  0.00     0.038 A 
ENDROOT
BRANCH   4   7
ATOM      7  C   UNL d   1      27.276 -15.249  -3.575  0.00  0.00     0.252 C 
ATOM      8  O   UNL d   1      28.356 -14.810  -3.175  0.00  0.00    -0.268 OA
ATOM      9  N   UNL d   1      26.933 -15.292  -4.916  0.00  0.00    -0.352 N 
ATOM     10  H   UNL d   1      26.078 -15.735  -5.218  0.00  0.00     0.163 HD
BRANCH   9  11
ATOM     11  C   UNL d   1      27.835 -14.824  -5.970  0.00  0.00     0.084 C 
ATOM     12  C   UNL d   1      27.923 -13.290  -5.988  0.00  0.00     0.025 C 
ATOM     13  C   UNL d   1      28.938 -12.763  -6.991  0.00  0.00     0.002 C 
ATOM     14  C   UNL d   1      30.303 -13.414  -6.793  0.00  0.00     0.000 C 
ATOM     15  C   UNL d   1      30.201 -14.931  -6.894  0.00  0.00     0.002 C 
ATOM     16  C   UNL d   1      29.215 -15.491  -5.872  0.00  0.00     0.025 C 
ENDBRANCH   9  11
ENDBRANCH   4   7
BRANCH   1  17
ATOM     17  O   UNL d   1      23.866 -17.711   0.222  0.00  0.00    -0.342 OA
BRANCH  17  18
ATOM     18  C   UNL d   1      23.134 -18.884  -0.131  0.00  0.00     0.279 C 
BRANCH  18  19
ATOM     19  C   UNL d   1      21.739 -18.484  -0.649  0.00  0.00     0.255 C 
ATOM     20  N   UNL d   1      20.875 -19.562  -0.883  0.00  0.00    -0.292 N 
ATOM     21  H   UNL d   1      21.138 -20.512  -0.629  0.00  0.00     0.183 HD
ATOM     22  O   UNL d   1      21.419 -17.319  -0.884  0.00  0.00    -0.270 OA
BRANCH  20  23
ATOM     23  N   UNL d   1      19.541 -19.292  -1.269  0.00  0.00    -0.247 NA
ATOM     24  H   UNL d   1      19.284 -19.793  -2.119  0.00  0.00     0.143 HD
ATOM     25  H   UNL d   1      19.465 -18.289  -1.476  0.00  0.00     0.143 HD
ENDBRANCH  20  23
ENDBRANCH  18  19
ENDBRANCH  17  18
ENDBRANCH   1  17
TORSDOF 6
ENDMDL
MODEL 3
REMARK VINA RESULT:   -29.467      4.792      6.610
REMARK INTER + INTRA:         -32.565
REMARK INTER:                 -31.257
REMARK INTRA:                  -1.308
REMARK CONF_INDEPENDENT:        1.790
REMARK UNBOUND:                -1.308
REMARK  6 active torsions:
REMARK  status: ('A' for Active; 'I' for Inactive)
REMARK    1  A    between atoms: N_1  and  N_2 
REMARK       I    between atoms: N_2  and  C_3 
REMARK    2  A    between atoms: C_3  and  C_5 
REMARK    3  A    between atoms: C_5  and  O_6 
REMARK    4  A    between atoms: O_6  and  C_7 
REMARK    5  A    between atoms: C_10  and  C_11 
REMARK       I    between atoms: C_11  and  N_13 
REMARK    6  A    between atoms: N_13  and  C_14 
ROOT
ATOM      1  C   UNL d   1      24.456 -16.672  -0.856  0.00  0.00     0.069 A 
ATOM      2  C   UNL d   1      25.771 -17.119  -0.998  0.00  0.00     0.038 A 
ATOM      3  C   UNL d   1      26.601 -16.572  -1.982  0.00  0.00     0.020 A 
ATOM      4  C   UNL d   1      26.107 -15.616  -2.885  0.00  0.00     0.032 A 
ATOM      5  C   UNL d   1      24.801 -15.149  -2.717  0.00  0.00     0.020 A 
ATOM      6  C   UNL d   1      23.983 -15.674  -1.704  0.00  0.00     0.038 A 
ENDROOT
BRANCH   4   7
ATOM      7  C   UNL d   1      26.993 -15.200  -4.009  0.00  0.00     0.252 C 
ATOM      8  O   UNL d   1      26.653 -15.503  -5.155  0.00  0.00    -0.268 OA
ATOM      9  N   UNL d   1      28.131 -14.460  -3.734  0.00  0.00    -0.352 N 
ATOM     10  H   UNL d   1      28.335 -14.155  -2.795  0.00  0.00     0.163 HD
BRANCH   9  11
ATOM     11  C   UNL d   1      29.019 -13.969  -4.790  0.00  0.00     0.084 C 
ATOM     12  C   UNL d   1      29.357 -15.080  -5.795  0.00  0.00     0.025 C 
ATOM     13  C   UNL d   1      30.184 -14.587  -6.973  0.00  0.00     0.002 C 
ATOM     14  C   UNL d   1      29.529 -13.385  -7.645  0.00  0.00     0.000 C 
ATOM     15  C   UNL d   1      29.311 -12.256  -6.646  0.00  0.00     0.002 C 
ATOM     16  C   UNL d   1      28.452 -12.714  -5.470  0.00  0.00     0.025 C 
ENDBRANCH   9  11
ENDBRANCH   4   7
BRANCH   1  17
ATOM     17  O   UNL d   1      23.766 -17.187   0.203  0.00  0.00    -0.342 OA
BRANCH  17  18
ATOM     18  C   UNL d   1      23.460 -18.581   0.196  0.00  0.00     0.279 C 
BRANCH  18  19
ATOM     19  C   UNL d   1      22.245 -18.838  -0.715  0.00  0.00     0.255 C 
ATOM     20  N   UNL d   1      21.004 -18.599  -0.110  0.00  0.00    -0.292 N 
ATOM     21  H   UNL d   1      20.942 -18.194   0.822  0.00  0.00     0.183 HD
ATOM     22  O   UNL d   1      22.347 -19.262  -1.866  0.00  0.00    -0.270 OA
BRANCH  20  23
ATOM     23  N   UNL d   1      19.832 -18.714  -0.895  0.00  0.00    -0.247 NA
ATOM     24  H   UNL d   1      19.993 -19.266  -1.737  0.00  0.00     0.143 HD
ATOM     25  H   UNL d   1      19.558 -17.773  -1.199  0.00  0.00     0.143 HD
ENDBRANCH  20  23
ENDBRANCH  18  19
ENDBRANCH  17  18
ENDBRANCH   1  17
TORSDOF 6
ENDMDL
MODEL 4
REMARK VINA RESULT:   -29.460      4.689      5.967
REMARK INTER + INTRA:         -32.413
REMARK INTER:                 -31.249
REMARK INTRA:                  -1.163
REMARK CONF_INDEPENDENT:        1.790
REMARK UNBOUND:                -1.163
REMARK  6 active torsions:
REMARK  status: ('A' for Active; 'I' for Inactive)
REMARK    1  A    between atoms: N_1  and  N_2 
REMARK       I    between atoms: N_2  and  C_3 
REMARK    2  A    between atoms: C_3  and  C_5 
REMARK    3  A    between atoms: C_5  and  O_6 
REMARK    4  A    between atoms: O_6  and  C_7 
REMARK    5  A    between atoms: C_10  and  C_11 
REMARK       I    between atoms: C_11  and  N_13 
REMARK    6  A    between atoms: N_13  and  C_14 
ROOT
ATOM      1  C   UNL d   1      24.828 -17.544  -0.601  0.00  0.00     0.069 A 
ATOM      2  C   UNL d   1      24.039 -16.544  -1.172  0.00  0.00     0.038 A 
ATOM      3  C   UNL d   1      24.609 -15.592  -2.023  0.00  0.00     0.020 A 
ATOM      4  C   UNL d   1      25.993 -15.586  -2.263  0.00  0.00     0.032 A 
ATOM      5  C   UNL d   1      26.772 -16.608  -1.716  0.00  0.00     0.020 A 
ATOM      6  C   UNL d   1      26.189 -17.583  -0.893  0.00  0.00     0.038 A 
ENDROOT
BRANCH   4   7
ATOM      7  C   UNL d   1      26.557 -14.448  -3.044  0.00  0.00     0.252 C 
ATOM      8  O   UNL d   1      27.576 -14.651  -3.707  0.00  0.00    -0.268 OA
ATOM      9  N   UNL d   1      25.900 -13.228  -3.031  0.00  0.00    -0.352 N 
ATOM     10  H   UNL d   1      25.023 -13.119  -2.546  0.00  0.00     0.163 HD
BRANCH   9  11
ATOM     11  C   UNL d   1      26.363 -12.082  -3.815  0.00  0.00     0.084 C 
ATOM     12  C   UNL d   1      26.396 -12.410  -5.315  0.00  0.00     0.025 C 
ATOM     13  C   UNL d   1      26.760 -11.212  -6.180  0.00  0.00     0.002 C 
ATOM     14  C   UNL d   1      25.865 -10.016  -5.874  0.00  0.00     0.000 C 
ATOM     15  C   UNL d   1      25.942  -9.643  -4.398  0.00  0.00     0.002 C 
ATOM     16  C   UNL d   1      25.546 -10.818  -3.508  0.00  0.00     0.025 C 
ENDBRANCH   9  11
ENDBRANCH   4   7
BRANCH   1  17
ATOM     17  O   UNL d   1      24.158 -18.488   0.123  0.00  0.00    -0.342 OA
BRANCH  17  18
ATOM     18  C   UNL d   1      22.794 -18.237   0.461  0.00  0.00     0.279 C 
BRANCH  18  19
ATOM     19  C   UNL d   1      21.879 -18.773  -0.657  0.00  0.00     0.255 C 
ATOM     20  N   UNL d   1      20.537 -18.930  -0.285  0.00  0.00    -0.292 N 
ATOM     21  H   UNL d   1      20.203 -18.615   0.623  0.00  0.00     0.183 HD
ATOM     22  O   UNL d   1      22.294 -19.082  -1.774  0.00  0.00    -0.270 OA
BRANCH  20  23
ATOM     23  N   UNL d   1      19.601 -19.325  -1.270  0.00  0.00    -0.247 NA
ATOM     24  H   UNL d   1      20.057 -19.577  -2.146  0.00  0.00     0.143 HD
ATOM     25  H   UNL d   1      18.989 -18.525  -1.467  0.00  0.00     0.143 HD
ENDBRANCH  20  23
ENDBRANCH  18  19
ENDBRANCH  17  18
ENDBRANCH   1  17
TORSDOF 6
ENDMDL
MODEL 5
REMARK VINA RESULT:   -29.265      4.670      6.614
REMARK INTER + INTRA:         -32.233
REMARK INTER:                 -31.055
REMARK INTRA:                  -1.178
REMARK CONF_INDEPENDENT:        1.790
REMARK UNBOUND:                -1.178
REMARK  6 active torsions:
REMARK  status: ('A' for Active; 'I' for Inactive)
REMARK    1  A    between atoms: N_1  and  N_2 
REMARK       I    between atoms: N_2  and  C_3 
REMARK    2  A    between atoms: C_3  and  C_5 
REMARK    3  A    between atoms: C_5  and  O_6 
REMARK    4  A    between atoms: O_6  and  C_7 
REMARK    5  A    between atoms: C_10  and  C_11 
REMARK       I    between atoms: C_11  and  N_13 
REMARK    6  A    between atoms: N_13  and  C_14 
ROOT
ATOM      1  C   UNL d   1      24.531 -16.938  -0.761  0.00  0.00     0.069 A 
ATOM      2  C   UNL d   1      25.885 -17.279  -0.752  0.00  0.00     0.038 A 
ATOM      3  C   UNL d   1      26.772 -16.673  -1.646  0.00  0.00     0.020 A 
ATOM      4  C   UNL d   1      26.307 -15.764  -2.611  0.00  0.00     0.032 A 
ATOM      5  C   UNL d   1      24.958 -15.402  -2.593  0.00  0.00     0.020 A 
ATOM      6  C   UNL d   1      24.077 -15.985  -1.669  0.00  0.00     0.038 A 
ENDROOT
BRANCH   4   7
ATOM      7  C   UNL d   1      27.276 -15.284  -3.637  0.00  0.00     0.252 C 
ATOM      8  O   UNL d   1      26.994 -14.260  -4.263  0.00  0.00    -0.268 OA
ATOM      9  N   UNL d   1      28.464 -15.973  -3.819  0.00  0.00    -0.352 N 
ATOM     10  H   UNL d   1      28.702 -16.757  -3.232  0.00  0.00     0.163 HD
BRANCH   9  11
ATOM     11  C   UNL d   1      29.487 -15.531  -4.769  0.00  0.00     0.084 C 
ATOM     12  C   UNL d   1      30.566 -16.606  -4.965  0.00  0.00     0.025 C 
ATOM     13  C   UNL d   1      31.589 -16.238  -6.030  0.00  0.00     0.002 C 
ATOM     14  C   UNL d   1      30.909 -15.860  -7.342  0.00  0.00     0.000 C 
ATOM     15  C   UNL d   1      29.927 -14.714  -7.135  0.00  0.00     0.002 C 
ATOM     16  C   UNL d   1      28.867 -15.071  -6.096  0.00  0.00     0.025 C 
ENDBRANCH   9  11
ENDBRANCH   4   7
BRANCH   1  17
ATOM     17  O   UNL d   1      23.771 -17.501   0.223  0.00  0.00    -0.342 OA
BRANCH  17  18
ATOM     18  C   UNL d   1      23.084 -18.718  -0.066  0.00  0.00     0.279 C 
BRANCH  18  19
ATOM     19  C   UNL d   1      21.686 -18.399  -0.632  0.00  0.00     0.255 C 
ATOM     20  N   UNL d   1      20.875 -19.522  -0.843  0.00  0.00    -0.292 N 
ATOM     21  H   UNL d   1      21.171 -20.449  -0.546  0.00  0.00     0.183 HD
ATOM     22  O   UNL d   1      21.323 -17.259  -0.918  0.00  0.00    -0.270 OA
BRANCH  20  23
ATOM     23  N   UNL d   1      19.540 -19.325  -1.270  0.00  0.00    -0.247 NA
ATOM     24  H   UNL d   1      19.328 -19.863  -2.109  0.00  0.00     0.143 HD
ATOM     25  H   UNL d   1      19.425 -18.333  -1.510  0.00  0.00     0.143 HD
ENDBRANCH  20  23
ENDBRANCH  18  19
ENDBRANCH  17  18
ENDBRANCH   1  17
TORSDOF 6
ENDMDL
MODEL 6
REMARK VINA RESULT:   -29.096      3.673      4.439
REMARK INTER + INTRA:         -32.024
REMARK INTER:                 -30.886
REMARK INTRA:                  -1.138
REMARK CONF_INDEPENDENT:        1.790
REMARK UNBOUND:                -1.138
REMARK  6 active torsions:
REMARK  status: ('A' for Active; 'I' for Inactive)
REMARK    1  A    between atoms: N_1  and  N_2 
REMARK       I    between atoms: N_2  and  C_3 
REMARK    2  A    between atoms: C_3  and  C_5 
REMARK    3  A    between atoms: C_5  and  O_6 
REMARK    4  A    between atoms: O_6  and  C_7 
REMARK    5  A    between atoms: C_10  and  C_11 
REMARK       I    between atoms: C_11  and  N_13 
REMARK    6  A    between atoms: N_13  and  C_14 
ROOT
ATOM      1  C   UNL d   1      24.903 -17.196  -0.312  0.00  0.00     0.069 A 
ATOM      2  C   UNL d   1      25.396 -16.198  -1.155  0.00  0.00     0.038 A 
ATOM      3  C   UNL d   1      26.767 -16.105  -1.414  0.00  0.00     0.020 A 
ATOM      4  C   UNL d   1      27.675 -16.968  -0.779  0.00  0.00     0.032 A 
ATOM      5  C   UNL d   1      27.173 -17.985   0.037  0.00  0.00     0.020 A 
ATOM      6  C   UNL d   1      25.793 -18.098   0.265  0.00  0.00     0.038 A 
ENDROOT
BRANCH   4   7
ATOM      7  C   UNL d   1      29.130 -16.707  -0.969  0.00  0.00     0.252 C 
ATOM      8  O   UNL d   1      29.460 -15.830  -1.771  0.00  0.00    -0.268 OA
ATOM      9  N   UNL d   1      30.049 -17.421  -0.217  0.00  0.00    -0.352 N 
ATOM     10  H   UNL d   1      29.744 -18.070   0.491  0.00  0.00     0.163 HD
BRANCH   9  11
ATOM     11  C   UNL d   1      31.491 -17.182  -0.310  0.00  0.00     0.084 C 
ATOM     12  C   UNL d   1      32.058 -16.677   1.025  0.00  0.00     0.025 C 
ATOM     13  C   UNL d   1      33.572 -16.525   1.011  0.00  0.00     0.002 C 
ATOM     14  C   UNL d   1      34.253 -17.808   0.546  0.00  0.00     0.000 C 
ATOM     15  C   UNL d   1      33.751 -18.221  -0.832  0.00  0.00     0.002 C 
ATOM     16  C   UNL d   1      32.237 -18.416  -0.837  0.00  0.00     0.025 C 
ENDBRANCH   9  11
ENDBRANCH   4   7
BRANCH   1  17
ATOM     17  O   UNL d   1      23.543 -17.271  -0.214  0.00  0.00    -0.342 OA
BRANCH  17  18
ATOM     18  C   UNL d   1      22.963 -18.509   0.195  0.00  0.00     0.279 C 
BRANCH  18  19
ATOM     19  C   UNL d   1      21.909 -18.951  -0.839  0.00  0.00     0.255 C 
ATOM     20  N   UNL d   1      20.591 -18.942  -0.365  0.00  0.00    -0.292 N 
ATOM     21  H   UNL d   1      20.365 -18.575   0.557  0.00  0.00     0.183 HD
ATOM     22  O   UNL d   1      22.200 -19.324  -1.975  0.00  0.00    -0.270 OA
BRANCH  20  23
ATOM     23  N   UNL d   1      19.542 -19.240  -1.269  0.00  0.00    -0.247 NA
ATOM     24  H   UNL d   1      19.880 -19.746  -2.086  0.00  0.00     0.143 HD
ATOM     25  H   UNL d   1      19.149 -18.353  -1.604  0.00  0.00     0.143 HD
ENDBRANCH  20  23
ENDBRANCH  18  19
ENDBRANCH  17  18
ENDBRANCH   1  17
TORSDOF 6
ENDMDL
MODEL 7
REMARK VINA RESULT:   -29.010      2.434      2.828
REMARK INTER + INTRA:         -31.954
REMARK INTER:                 -30.799
REMARK INTRA:                  -1.155
REMARK CONF_INDEPENDENT:        1.790
REMARK UNBOUND:                -1.155
REMARK  6 active torsions:
REMARK  status: ('A' for Active; 'I' for Inactive)
REMARK    1  A    between atoms: N_1  and  N_2 
REMARK       I    between atoms: N_2  and  C_3 
REMARK    2  A    between atoms: C_3  and  C_5 
REMARK    3  A    between atoms: C_5  and  O_6 
REMARK    4  A    between atoms: O_6  and  C_7 
REMARK    5  A    between atoms: C_10  and  C_11 
REMARK       I    between atoms: C_11  and  N_13 
REMARK    6  A    between atoms: N_13  and  C_14 
ROOT
ATOM      1  C   UNL d   1      25.319 -18.083  -0.348  0.00  0.00     0.069 A 
ATOM      2  C   UNL d   1      26.267 -18.161   0.674  0.00  0.00     0.038 A 
ATOM      3  C   UNL d   1      27.314 -17.236   0.740  0.00  0.00     0.020 A 
ATOM      4  C   UNL d   1      27.466 -16.256  -0.254  0.00  0.00     0.032 A 
ATOM      5  C   UNL d   1      26.496 -16.162  -1.255  0.00  0.00     0.020 A 
ATOM      6  C   UNL d   1      25.427 -17.070  -1.297  0.00  0.00     0.038 A 
ENDROOT
BRANCH   4   7
ATOM      7  C   UNL d   1      28.693 -15.411  -0.213  0.00  0.00     0.252 C 
ATOM      8  O   UNL d   1      28.706 -14.379  -0.888  0.00  0.00    -0.268 OA
ATOM      9  N   UNL d   1      29.746 -15.787   0.604  0.00  0.00    -0.352 N 
ATOM     10  H   UNL d   1      29.671 -16.591   1.208  0.00  0.00     0.163 HD
BRANCH   9  11
ATOM     11  C   UNL d   1      30.961 -14.980   0.738  0.00  0.00     0.084 C 
ATOM     12  C   UNL d   1      30.641 -13.581   1.288  0.00  0.00     0.025 C 
ATOM     13  C   UNL d   1      31.885 -12.746   1.553  0.00  0.00     0.002 C 
ATOM     14  C   UNL d   1      32.878 -13.497   2.434  0.00  0.00     0.000 C 
ATOM     15  C   UNL d   1      33.262 -14.831   1.806  0.00  0.00     0.002 C 
ATOM     16  C   UNL d   1      32.035 -15.705   1.562  0.00  0.00     0.025 C 
ENDBRANCH   9  11
ENDBRANCH   4   7
BRANCH   1  17
ATOM     17  O   UNL d   1      24.278 -18.961  -0.260  0.00  0.00    -0.342 OA
BRANCH  17  18
ATOM     18  C   UNL d   1      22.998 -18.456   0.118  0.00  0.00     0.279 C 
BRANCH  18  19
ATOM     19  C   UNL d   1      21.936 -18.937  -0.889  0.00  0.00     0.255 C 
ATOM     20  N   UNL d   1      20.626 -18.948  -0.391  0.00  0.00    -0.292 N 
ATOM     21  H   UNL d   1      20.409 -18.569   0.528  0.00  0.00     0.183 HD
ATOM     22  O   UNL d   1      22.213 -19.325  -2.023  0.00  0.00    -0.270 OA
BRANCH  20  23
ATOM     23  N   UNL d   1      19.568 -19.283  -1.270  0.00  0.00    -0.247 NA
ATOM     24  H   UNL d   1      19.914 -19.639  -2.160  0.00  0.00     0.143 HD
ATOM     25  H   UNL d   1      19.038 -18.427  -1.472  0.00  0.00     0.143 HD
ENDBRANCH  20  23
ENDBRANCH  18  19
ENDBRANCH  17  18
ENDBRANCH   1  17
TORSDOF 6
ENDMDL
MODEL 8
REMARK VINA RESULT:   -28.557      2.982      3.683
REMARK INTER + INTRA:         -32.228
REMARK INTER:                 -30.347
REMARK INTRA:                  -1.881
REMARK CONF_INDEPENDENT:        1.790
REMARK UNBOUND:                -1.881
REMARK  6 active torsions:
REMARK  status: ('A' for Active; 'I' for Inactive)
REMARK    1  A    between atoms: N_1  and  N_2 
REMARK       I    between atoms: N_2  and  C_3 
REMARK    2  A    between atoms: C_3  and  C_5 
REMARK    3  A    between atoms: C_5  and  O_6 
REMARK    4  A    between atoms: O_6  and  C_7 
REMARK    5  A    between atoms: C_10  and  C_11 
REMARK       I    between atoms: C_11  and  N_13 
REMARK    6  A    between atoms: N_13  and  C_14 
ROOT
ATOM      1  C   UNL d   1      24.519 -17.433  -0.903  0.00  0.00     0.069 A 
ATOM      2  C   UNL d   1      25.371 -17.818   0.134  0.00  0.00     0.038 A 
ATOM      3  C   UNL d   1      26.710 -17.415   0.136  0.00  0.00     0.020 A 
ATOM      4  C   UNL d   1      27.235 -16.675  -0.935  0.00  0.00     0.032 A 
ATOM      5  C   UNL d   1      26.371 -16.264  -1.953  0.00  0.00     0.020 A 
ATOM      6  C   UNL d   1      25.019 -16.640  -1.932  0.00  0.00     0.038 A 
ENDROOT
BRANCH   4   7
ATOM      7  C   UNL d   1      28.704 -16.422  -0.949  0.00  0.00     0.252 C 
ATOM      8  O   UNL d   1      29.234 -16.159  -2.031  0.00  0.00    -0.268 OA
ATOM      9  N   UNL d   1      29.406 -16.448   0.244  0.00  0.00    -0.352 N 
ATOM     10  H   UNL d   1      28.929 -16.582   1.122  0.00  0.00     0.163 HD
BRANCH   9  11
ATOM     11  C   UNL d   1      30.839 -16.156   0.316  0.00  0.00     0.084 C 
ATOM     12  C   UNL d   1      31.135 -15.077   1.369  0.00  0.00     0.025 C 
ATOM     13  C   UNL d   1      32.623 -14.823   1.561  0.00  0.00     0.002 C 
ATOM     14  C   UNL d   1      33.374 -16.120   1.842  0.00  0.00     0.000 C 
ATOM     15  C   UNL d   1      33.152 -17.131   0.723  0.00  0.00     0.002 C 
ATOM     16  C   UNL d   1      31.667 -17.432   0.533  0.00  0.00     0.025 C 
ENDBRANCH   9  11
ENDBRANCH   4   7
BRANCH   1  17
ATOM     17  O   UNL d   1      23.208 -17.783  -0.755  0.00  0.00    -0.342 OA
BRANCH  17  18
ATOM     18  C   UNL d   1      22.831 -18.511   0.414  0.00  0.00     0.279 C 
BRANCH  18  19
ATOM     19  C   UNL d   1      21.378 -19.003   0.268  0.00  0.00     0.255 C 
ATOM     20  N   UNL d   1      20.827 -18.817  -1.007  0.00  0.00    -0.292 N 
ATOM     21  H   UNL d   1      21.393 -18.476  -1.781  0.00  0.00     0.183 HD
ATOM     22  O   UNL d   1      20.733 -19.479   1.202  0.00  0.00    -0.270 OA
BRANCH  20  23
ATOM     23  N   UNL d   1      19.531 -19.323  -1.268  0.00  0.00    -0.247 NA
ATOM     24  H   UNL d   1      18.900 -18.594  -1.600  0.00  0.00     0.143 HD
ATOM     25  H   UNL d   1      19.144 -19.678  -0.386  0.00  0.00     0.143 HD
ENDBRANCH  20  23
ENDBRANCH  18  19
ENDBRANCH  17  18
ENDBRANCH   1  17
TORSDOF 6
ENDMDL
MODEL 9
REMARK VINA RESULT:   -28.434      3.981      5.038
REMARK INTER + INTRA:         -31.330
REMARK INTER:                 -30.224
REMARK INTRA:                  -1.106
REMARK CONF_INDEPENDENT:        1.790
REMARK UNBOUND:                -1.106
REMARK  6 active torsions:
REMARK  status: ('A' for Active; 'I' for Inactive)
REMARK    1  A    between atoms: N_1  and  N_2 
REMARK       I    between atoms: N_2  and  C_3 
REMARK    2  A    between atoms: C_3  and  C_5 
REMARK    3  A    between atoms: C_5  and  O_6 
REMARK    4  A    between atoms: O_6  and  C_7 
REMARK    5  A    between atoms: C_10  and  C_11 
REMARK       I    between atoms: C_11  and  N_13 
REMARK    6  A    between atoms: N_13  and  C_14 
ROOT
ATOM      1  C   UNL d   1      24.898 -16.812  -0.775  0.00  0.00     0.069 A 
ATOM      2  C   UNL d   1      25.636 -17.948  -0.435  0.00  0.00     0.038 A 
ATOM      3  C   UNL d   1      27.032 -17.930  -0.498  0.00  0.00     0.020 A 
ATOM      4  C   UNL d   1      27.712 -16.794  -0.968  0.00  0.00     0.032 A 
ATOM      5  C   UNL d   1      26.972 -15.650  -1.275  0.00  0.00     0.020 A 
ATOM      6  C   UNL d   1      25.572 -15.661  -1.175  0.00  0.00     0.038 A 
ENDROOT
BRANCH   4   7
ATOM      7  C   UNL d   1      29.186 -16.900  -1.166  0.00  0.00     0.252 C 
ATOM      8  O   UNL d   1      29.728 -16.082  -1.913  0.00  0.00    -0.268 OA
ATOM      9  N   UNL d   1      29.892 -17.875  -0.480  0.00  0.00    -0.352 N 
ATOM     10  H   UNL d   1      29.431 -18.473   0.188  0.00  0.00     0.163 HD
BRANCH   9  11
ATOM     11  C   UNL d   1      31.347 -18.005  -0.582  0.00  0.00     0.084 C 
ATOM     12  C   UNL d   1      31.760 -18.588  -1.943  0.00  0.00     0.025 C 
ATOM     13  C   UNL d   1      33.268 -18.634  -2.139  0.00  0.00     0.002 C 
ATOM     14  C   UNL d   1      33.901 -17.270  -1.881  0.00  0.00     0.000 C 
ATOM     15  C   UNL d   1      33.567 -16.771  -0.481  0.00  0.00     0.002 C 
ATOM     16  C   UNL d   1      32.058 -16.680  -0.270  0.00  0.00     0.025 C 
ENDBRANCH   9  11
ENDBRANCH   4   7
BRANCH   1  17
ATOM     17  O   UNL d   1      23.551 -16.897  -0.573  0.00  0.00    -0.342 OA
BRANCH  17  18
ATOM     18  C   UNL d   1      23.033 -18.074   0.047  0.00  0.00     0.279 C 
BRANCH  18  19
ATOM     19  C   UNL d   1      22.027 -18.755  -0.901  0.00  0.00     0.255 C 
ATOM     20  N   UNL d   1      20.714 -18.805  -0.415  0.00  0.00    -0.292 N 
ATOM     21  H   UNL d   1      20.454 -18.334   0.449  0.00  0.00     0.183 HD
ATOM     22  O   UNL d   1      22.352 -19.256  -1.977  0.00  0.00    -0.270 OA
BRANCH  20  23
ATOM     23  N   UNL d   1      19.698 -19.325  -1.253  0.00  0.00    -0.247 NA
ATOM     24  H   UNL d   1      19.943 -19.242  -2.239  0.00  0.00     0.143 HD
ATOM     25  H   UNL d   1      18.848 -18.770  -1.105  0.00  0.00     0.143 HD
ENDBRANCH  20  23
ENDBRANCH  18  19
ENDBRANCH  17  18
ENDBRANCH   1  17
TORSDOF 6
ENDMDL
