MODEL 1
REMARK VINA RESULT:    -9.482      0.000      0.000
REMARK INTER + INTRA:         -11.524
REMARK INTER:                 -10.675
REMARK INTRA:                  -0.849
REMARK CONF_INDEPENDENT:        1.193
REMARK UNBOUND:                -0.849
REMARK  4 active torsions:
REMARK  status: ('A' for Active; 'I' for Inactive)
REMARK       I    between atoms: C_2  and  N_4 
REMARK    1  A    between atoms: N_4  and  C_5 
REMARK    2  A    between atoms: C_8  and  N_9 
REMARK    3  A    between atoms: N_9  and  C_10 
REMARK    4  A    between atoms: C_11  and  C_12 
ROOT
ATOM      1  C   UNL d   1      26.530 -15.457  -2.834  0.00  0.00     0.102 A 
ATOM      2  C   UNL d   1      27.735 -15.584  -3.456  0.00  0.00     0.060 A 
ATOM      3  C   UNL d   1      27.248 -15.216  -4.765  0.00  0.00     0.237 A 
ATOM      4  O   UNL d   1      27.639 -15.123  -5.908  0.00  0.00    -0.283 OA
ATOM      5  C   UNL d   1      25.905 -15.053  -4.128  0.00  0.00     0.250 A 
ATOM      6  O   UNL d   1      24.837 -14.679  -4.563  0.00  0.00    -0.282 OA
ENDROOT
BRANCH   1   7
ATOM      7  N   UNL d   1      26.084 -15.516  -1.587  0.00  0.00    -0.352 N 
ATOM      8  H   UNL d   1      26.665 -15.222  -0.804  0.00  0.00     0.166 HD
BRANCH   7   9
ATOM      9  C   UNL d   1      25.066 -16.437  -1.161  0.00  0.00     0.032 A 
ATOM     10  C   UNL d   1      25.373 -17.681  -0.588  0.00  0.00     0.031 A 
ATOM     11  C   UNL d   1      24.349 -18.600  -0.229  0.00  0.00     0.032 A 
ATOM     12  C   UNL d   1      22.999 -18.264  -0.380  0.00  0.00     0.034 A 
ATOM     13  C   UNL d   1      22.695 -17.012  -0.893  0.00  0.00     0.032 A 
ATOM     14  C   UNL d   1      23.705 -16.123  -1.263  0.00  0.00     0.031 A 
BRANCH  12  15
ATOM     15  N   UNL d   1      21.951 -19.131   0.026  0.00  0.00    -0.328 N 
ATOM     16  C   UNL d   1      20.644 -18.977  -0.422  0.00  0.00     0.218 C 
ATOM     17  C   UNL d   1      19.631 -19.930   0.162  0.00  0.00     0.117 C 
ATOM     18  O   UNL d   1      20.286 -18.160  -1.270  0.00  0.00    -0.274 OA
ATOM     19  H   UNL d   1      22.193 -19.925   0.605  0.00  0.00     0.169 HD
ENDBRANCH  12  15
ENDBRANCH   7   9
ENDBRANCH   1   7
BRANCH   2  20
ATOM     20  C   UNL d   1      29.048 -16.109  -3.053  0.00  0.00    -0.013 A 
ATOM     21  C   UNL d   1      29.641 -17.076  -3.865  0.00  0.00     0.020 A 
ATOM     22  C   UNL d   1      30.734 -17.819  -3.405  0.00  0.00    -0.055 A 
ATOM     23  C   UNL d   1      31.222 -18.986  -4.209  0.00  0.00     0.049 C 
ATOM     24  C   UNL d   1      31.288 -17.530  -2.148  0.00  0.00    -0.056 A 
ATOM     25  C   UNL d   1      32.560 -18.180  -1.676  0.00  0.00     0.049 C 
ATOM     26  C   UNL d   1      30.658 -16.581  -1.328  0.00  0.00     0.014 A 
ATOM     27  C   UNL d   1      29.548 -15.844  -1.773  0.00  0.00    -0.050 A 
ATOM     28  C   UNL d   1      28.878 -14.882  -0.840  0.00  0.00     0.049 C 
ENDBRANCH   2  20
TORSDOF 4
ENDMDL
MODEL 2
REMARK VINA RESULT:    -9.049      2.495      4.347
REMARK INTER + INTRA:         -11.291
REMARK INTER:                 -10.242
REMARK INTRA:                  -1.049
REMARK CONF_INDEPENDENT:        1.193
REMARK UNBOUND:                -1.049
REMARK  4 active torsions:
REMARK  status: ('A' for Active; 'I' for Inactive)
REMARK       I    between atoms: C_2  and  N_4 
REMARK    1  A    between atoms: N_4  and  C_5 
REMARK    2  A    between atoms: C_8  and  N_9 
REMARK    3  A    between atoms: N_9  and  C_10 
REMARK    4  A    between atoms: C_11  and  C_12 
ROOT
ATOM      1  C   UNL d   1      25.940 -15.330  -1.888  0.00  0.00     0.102 A 
ATOM      2  C   UNL d   1      26.246 -14.234  -1.142  0.00  0.00     0.060 A 
ATOM      3  C   UNL d   1      25.954 -13.277  -2.184  0.00  0.00     0.237 A 
ATOM      4  O   UNL d   1      26.007 -12.085  -2.391  0.00  0.00    -0.283 OA
ATOM      5  C   UNL d   1      25.595 -14.449  -3.042  0.00  0.00     0.250 A 
ATOM      6  O   UNL d   1      25.155 -14.528  -4.169  0.00  0.00    -0.282 OA
ENDROOT
BRANCH   1   7
ATOM      7  N   UNL d   1      25.836 -16.635  -1.677  0.00  0.00    -0.352 N 
ATOM      8  H   UNL d   1      26.396 -17.302  -2.207  0.00  0.00     0.166 HD
BRANCH   7   9
ATOM      9  C   UNL d   1      24.648 -17.253  -1.156  0.00  0.00     0.032 A 
ATOM     10  C   UNL d   1      23.414 -16.587  -1.114  0.00  0.00     0.031 A 
ATOM     11  C   UNL d   1      22.266 -17.198  -0.538  0.00  0.00     0.032 A 
ATOM     12  C   UNL d   1      22.319 -18.509  -0.051  0.00  0.00     0.034 A 
ATOM     13  C   UNL d   1      23.524 -19.188  -0.145  0.00  0.00     0.032 A 
ATOM     14  C   UNL d   1      24.652 -18.575  -0.692  0.00  0.00     0.031 A 
BRANCH  12  15
ATOM     15  N   UNL d   1      21.178 -19.171   0.472  0.00  0.00    -0.328 N 
ATOM     16  C   UNL d   1      20.175 -19.680  -0.345  0.00  0.00     0.218 C 
ATOM     17  C   UNL d   1      18.989 -20.285   0.366  0.00  0.00     0.117 C 
ATOM     18  O   UNL d   1      20.215 -19.700  -1.575  0.00  0.00    -0.274 OA
ATOM     19  H   UNL d   1      21.141 -19.333   1.471  0.00  0.00     0.169 HD
ENDBRANCH  12  15
ENDBRANCH   7   9
ENDBRANCH   1   7
BRANCH   2  20
ATOM     20  C   UNL d   1      26.863 -14.030   0.177  0.00  0.00    -0.013 A 
ATOM     21  C   UNL d   1      26.528 -12.872   0.882  0.00  0.00     0.020 A 
ATOM     22  C   UNL d   1      27.280 -12.473   1.992  0.00  0.00    -0.055 A 
ATOM     23  C   UNL d   1      27.030 -11.128   2.605  0.00  0.00     0.049 C 
ATOM     24  C   UNL d   1      28.327 -13.288   2.450  0.00  0.00    -0.056 A 
ATOM     25  C   UNL d   1      29.057 -12.994   3.732  0.00  0.00     0.049 C 
ATOM     26  C   UNL d   1      28.675 -14.429   1.710  0.00  0.00     0.014 A 
ATOM     27  C   UNL d   1      27.939 -14.827   0.581  0.00  0.00    -0.050 A 
ATOM     28  C   UNL d   1      28.385 -16.022  -0.207  0.00  0.00     0.049 C 
ENDBRANCH   2  20
TORSDOF 4
ENDMDL
MODEL 3
REMARK VINA RESULT:    -8.889      1.061      1.444
REMARK INTER + INTRA:         -11.122
REMARK INTER:                 -10.082
REMARK INTRA:                  -1.039
REMARK CONF_INDEPENDENT:        1.193
REMARK UNBOUND:                -1.039
REMARK  4 active torsions:
REMARK  status: ('A' for Active; 'I' for Inactive)
REMARK       I    between atoms: C_2  and  N_4 
REMARK    1  A    between atoms: N_4  and  C_5 
REMARK    2  A    between atoms: C_8  and  N_9 
REMARK    3  A    between atoms: N_9  and  C_10 
REMARK    4  A    between atoms: C_11  and  C_12 
ROOT
ATOM      1  C   UNL d   1      26.684 -15.434  -2.954  0.00  0.00     0.102 A 
ATOM      2  C   UNL d   1      27.800 -15.555  -3.724  0.00  0.00     0.060 A 
ATOM      3  C   UNL d   1      27.148 -15.193  -4.961  0.00  0.00     0.237 A 
ATOM      4  O   UNL d   1      27.390 -15.100  -6.145  0.00  0.00    -0.283 OA
ATOM      5  C   UNL d   1      25.897 -15.036  -4.158  0.00  0.00     0.250 A 
ATOM      6  O   UNL d   1      24.780 -14.668  -4.453  0.00  0.00    -0.282 OA
ENDROOT
BRANCH   1   7
ATOM      7  N   UNL d   1      26.401 -15.492  -1.660  0.00  0.00    -0.352 N 
ATOM      8  H   UNL d   1      27.107 -15.286  -0.955  0.00  0.00     0.166 HD
BRANCH   7   9
ATOM      9  C   UNL d   1      25.357 -16.320  -1.122  0.00  0.00     0.032 A 
ATOM     10  C   UNL d   1      25.626 -17.419  -0.291  0.00  0.00     0.031 A 
ATOM     11  C   UNL d   1      24.580 -18.259   0.180  0.00  0.00     0.032 A 
ATOM     12  C   UNL d   1      23.242 -17.978  -0.121  0.00  0.00     0.034 A 
ATOM     13  C   UNL d   1      22.973 -16.860  -0.895  0.00  0.00     0.032 A 
ATOM     14  C   UNL d   1      24.006 -16.051  -1.372  0.00  0.00     0.031 A 
BRANCH  12  15
ATOM     15  N   UNL d   1      22.170 -18.759   0.383  0.00  0.00    -0.328 N 
ATOM     16  C   UNL d   1      21.209 -19.325  -0.447  0.00  0.00     0.218 C 
ATOM     17  C   UNL d   1      20.089 -20.060   0.249  0.00  0.00     0.117 C 
ATOM     18  O   UNL d   1      21.240 -19.296  -1.676  0.00  0.00    -0.274 OA
ATOM     19  H   UNL d   1      22.157 -18.959   1.376  0.00  0.00     0.169 HD
ENDBRANCH  12  15
ENDBRANCH   7   9
ENDBRANCH   1   7
BRANCH   2  20
ATOM     20  C   UNL d   1      29.157 -16.072  -3.491  0.00  0.00    -0.013 A 
ATOM     21  C   UNL d   1      29.317 -17.075  -2.534  0.00  0.00     0.020 A 
ATOM     22  C   UNL d   1      30.591 -17.408  -2.058  0.00  0.00    -0.055 A 
ATOM     23  C   UNL d   1      30.720 -18.338  -0.890  0.00  0.00     0.049 C 
ATOM     24  C   UNL d   1      31.721 -16.785  -2.610  0.00  0.00    -0.056 A 
ATOM     25  C   UNL d   1      33.117 -17.221  -2.258  0.00  0.00     0.049 C 
ATOM     26  C   UNL d   1      31.542 -15.752  -3.544  0.00  0.00     0.014 A 
ATOM     27  C   UNL d   1      30.266 -15.397  -4.013  0.00  0.00    -0.050 A 
ATOM     28  C   UNL d   1      30.123 -14.252  -4.969  0.00  0.00     0.049 C 
ENDBRANCH   2  20
TORSDOF 4
ENDMDL
MODEL 4
REMARK VINA RESULT:    -8.861      2.223      3.819
REMARK INTER + INTRA:         -10.938
REMARK INTER:                 -10.054
REMARK INTRA:                  -0.884
REMARK CONF_INDEPENDENT:        1.193
REMARK UNBOUND:                -0.884
REMARK  4 active torsions:
REMARK  status: ('A' for Active; 'I' for Inactive)
REMARK       I    between atoms: C_2  and  N_4 
REMARK    1  A    between atoms: N_4  and  C_5 
REMARK    2  A    between atoms: C_8  and  N_9 
REMARK    3  A    between atoms: N_9  and  C_10 
REMARK    4  A    between atoms: C_11  and  C_12 
ROOT
ATOM      1  C   UNL d   1      26.821 -16.273  -1.546  0.00  0.00     0.102 A 
ATOM      2  C   UNL d   1      27.959 -16.125  -2.278  0.00  0.00     0.060 A 
ATOM      3  C   UNL d   1      28.818 -16.790  -1.327  0.00  0.00     0.237 A 
ATOM      4  O   UNL d   1      29.989 -17.052  -1.158  0.00  0.00    -0.283 OA
ATOM      5  C   UNL d   1      27.595 -16.987  -0.488  0.00  0.00     0.250 A 
ATOM      6  O   UNL d   1      27.413 -17.562   0.563  0.00  0.00    -0.282 OA
ENDROOT
BRANCH   1   7
ATOM      7  N   UNL d   1      25.529 -16.032  -1.722  0.00  0.00    -0.352 N 
ATOM      8  H   UNL d   1      25.187 -15.087  -1.889  0.00  0.00     0.166 HD
BRANCH   7   9
ATOM      9  C   UNL d   1      24.495 -16.872  -1.184  0.00  0.00     0.032 A 
ATOM     10  C   UNL d   1      24.738 -18.193  -0.778  0.00  0.00     0.031 A 
ATOM     11  C   UNL d   1      23.686 -19.025  -0.305  0.00  0.00     0.032 A 
ATOM     12  C   UNL d   1      22.384 -18.528  -0.172  0.00  0.00     0.034 A 
ATOM     13  C   UNL d   1      22.155 -17.206  -0.520  0.00  0.00     0.032 A 
ATOM     14  C   UNL d   1      23.188 -16.402  -1.004  0.00  0.00     0.031 A 
BRANCH  12  15
ATOM     15  N   UNL d   1      21.323 -19.311   0.355  0.00  0.00    -0.328 N 
ATOM     16  C   UNL d   1      20.296 -19.802  -0.443  0.00  0.00     0.218 C 
ATOM     17  C   UNL d   1      19.201 -20.549   0.280  0.00  0.00     0.117 C 
ATOM     18  O   UNL d   1      20.250 -19.700  -1.668  0.00  0.00    -0.274 OA
ATOM     19  H   UNL d   1      21.368 -19.570   1.332  0.00  0.00     0.169 HD
ENDBRANCH  12  15
ENDBRANCH   7   9
ENDBRANCH   1   7
BRANCH   2  20
ATOM     20  C   UNL d   1      28.304 -15.381  -3.499  0.00  0.00    -0.013 A 
ATOM     21  C   UNL d   1      27.566 -14.234  -3.795  0.00  0.00     0.020 A 
ATOM     22  C   UNL d   1      27.641 -13.647  -5.063  0.00  0.00    -0.055 A 
ATOM     23  C   UNL d   1      26.690 -12.545  -5.421  0.00  0.00     0.049 C 
ATOM     24  C   UNL d   1      28.530 -14.167  -6.015  0.00  0.00    -0.056 A 
ATOM     25  C   UNL d   1      28.774 -13.478  -7.330  0.00  0.00     0.049 C 
ATOM     26  C   UNL d   1      29.239 -15.342  -5.716  0.00  0.00     0.014 A 
ATOM     27  C   UNL d   1      29.154 -15.951  -4.453  0.00  0.00    -0.050 A 
ATOM     28  C   UNL d   1      29.887 -17.234  -4.202  0.00  0.00     0.049 C 
ENDBRANCH   2  20
TORSDOF 4
ENDMDL
MODEL 5
REMARK VINA RESULT:    -8.842      2.322      3.495
REMARK INTER + INTRA:         -10.926
REMARK INTER:                 -10.035
REMARK INTRA:                  -0.891
REMARK CONF_INDEPENDENT:        1.193
REMARK UNBOUND:                -0.891
REMARK  4 active torsions:
REMARK  status: ('A' for Active; 'I' for Inactive)
REMARK       I    between atoms: C_2  and  N_4 
REMARK    1  A    between atoms: N_4  and  C_5 
REMARK    2  A    between atoms: C_8  and  N_9 
REMARK    3  A    between atoms: N_9  and  C_10 
REMARK    4  A    between atoms: C_11  and  C_12 
ROOT
ATOM      1  C   UNL d   1      26.664 -15.998  -1.772  0.00  0.00     0.102 A 
ATOM      2  C   UNL d   1      27.680 -15.936  -2.675  0.00  0.00     0.060 A 
ATOM      3  C   UNL d   1      28.678 -16.495  -1.793  0.00  0.00     0.237 A 
ATOM      4  O   UNL d   1      29.864 -16.741  -1.771  0.00  0.00    -0.283 OA
ATOM      5  C   UNL d   1      27.594 -16.594  -0.767  0.00  0.00     0.250 A 
ATOM      6  O   UNL d   1      27.575 -17.048   0.356  0.00  0.00    -0.282 OA
ENDROOT
BRANCH   1   7
ATOM      7  N   UNL d   1      25.357 -15.773  -1.781  0.00  0.00    -0.352 N 
ATOM      8  H   UNL d   1      24.985 -14.825  -1.805  0.00  0.00     0.166 HD
BRANCH   7   9
ATOM      9  C   UNL d   1      24.399 -16.694  -1.234  0.00  0.00     0.032 A 
ATOM     10  C   UNL d   1      24.747 -17.999  -0.854  0.00  0.00     0.031 A 
ATOM     11  C   UNL d   1      23.770 -18.912  -0.371  0.00  0.00     0.032 A 
ATOM     12  C   UNL d   1      22.438 -18.513  -0.201  0.00  0.00     0.034 A 
ATOM     13  C   UNL d   1      22.106 -17.206  -0.522  0.00  0.00     0.032 A 
ATOM     14  C   UNL d   1      23.067 -16.322  -1.016  0.00  0.00     0.031 A 
BRANCH  12  15
ATOM     15  N   UNL d   1      21.450 -19.378   0.338  0.00  0.00    -0.328 N 
ATOM     16  C   UNL d   1      20.402 -19.876  -0.429  0.00  0.00     0.218 C 
ATOM     17  C   UNL d   1      19.390 -20.718   0.308  0.00  0.00     0.117 C 
ATOM     18  O   UNL d   1      20.279 -19.708  -1.641  0.00  0.00    -0.274 OA
ATOM     19  H   UNL d   1      21.565 -19.689   1.294  0.00  0.00     0.169 HD
ENDBRANCH  12  15
ENDBRANCH   7   9
ENDBRANCH   1   7
BRANCH   2  20
ATOM     20  C   UNL d   1      27.834 -15.332  -4.008  0.00  0.00    -0.013 A 
ATOM     21  C   UNL d   1      28.745 -15.918  -4.887  0.00  0.00     0.020 A 
ATOM     22  C   UNL d   1      29.152 -15.243  -6.044  0.00  0.00    -0.055 A 
ATOM     23  C   UNL d   1      30.279 -15.797  -6.862  0.00  0.00     0.049 C 
ATOM     24  C   UNL d   1      28.573 -14.004  -6.363  0.00  0.00    -0.056 A 
ATOM     25  C   UNL d   1      28.847 -13.316  -7.672  0.00  0.00     0.049 C 
ATOM     26  C   UNL d   1      27.686 -13.412  -5.450  0.00  0.00     0.014 A 
ATOM     27  C   UNL d   1      27.288 -14.073  -4.276  0.00  0.00    -0.050 A 
ATOM     28  C   UNL d   1      26.381 -13.375  -3.308  0.00  0.00     0.049 C 
ENDBRANCH   2  20
TORSDOF 4
ENDMDL
MODEL 6
REMARK VINA RESULT:    -8.355      2.303      3.304
REMARK INTER + INTRA:         -10.678
REMARK INTER:                  -9.549
REMARK INTRA:                  -1.130
REMARK CONF_INDEPENDENT:        1.193
REMARK UNBOUND:                -1.130
REMARK  4 active torsions:
REMARK  status: ('A' for Active; 'I' for Inactive)
REMARK       I    between atoms: C_2  and  N_4 
REMARK    1  A    between atoms: N_4  and  C_5 
REMARK    2  A    between atoms: C_8  and  N_9 
REMARK    3  A    between atoms: N_9  and  C_10 
REMARK    4  A    between atoms: C_11  and  C_12 
ROOT
ATOM      1  C   UNL d   1      26.244 -15.219  -1.906  0.00  0.00     0.102 A 
ATOM      2  C   UNL d   1      26.868 -14.176  -1.292  0.00  0.00     0.060 A 
ATOM      3  C   UNL d   1      26.302 -13.160  -2.148  0.00  0.00     0.237 A 
ATOM      4  O   UNL d   1      26.367 -11.965  -2.337  0.00  0.00    -0.283 OA
ATOM      5  C   UNL d   1      25.586 -14.269  -2.850  0.00  0.00     0.250 A 
ATOM      6  O   UNL d   1      24.778 -14.273  -3.755  0.00  0.00    -0.282 OA
ENDROOT
BRANCH   1   7
ATOM      7  N   UNL d   1      26.126 -16.523  -1.698  0.00  0.00    -0.352 N 
ATOM      8  H   UNL d   1      26.687 -17.194  -2.220  0.00  0.00     0.166 HD
BRANCH   7   9
ATOM      9  C   UNL d   1      24.926 -17.131  -1.193  0.00  0.00     0.032 A 
ATOM     10  C   UNL d   1      23.659 -16.556  -1.378  0.00  0.00     0.031 A 
ATOM     11  C   UNL d   1      22.493 -17.145  -0.818  0.00  0.00     0.032 A 
ATOM     12  C   UNL d   1      22.566 -18.354  -0.116  0.00  0.00     0.034 A 
ATOM     13  C   UNL d   1      23.810 -18.952   0.018  0.00  0.00     0.032 A 
ATOM     14  C   UNL d   1      24.953 -18.357  -0.516  0.00  0.00     0.031 A 
BRANCH  12  15
ATOM     15  N   UNL d   1      21.415 -19.002   0.402  0.00  0.00    -0.328 N 
ATOM     16  C   UNL d   1      20.391 -19.464  -0.417  0.00  0.00     0.218 C 
ATOM     17  C   UNL d   1      19.198 -20.059   0.291  0.00  0.00     0.117 C 
ATOM     18  O   UNL d   1      20.418 -19.452  -1.647  0.00  0.00    -0.274 OA
ATOM     19  H   UNL d   1      21.384 -19.189   1.397  0.00  0.00     0.169 HD
ENDBRANCH  12  15
ENDBRANCH   7   9
ENDBRANCH   1   7
BRANCH   2  20
ATOM     20  C   UNL d   1      27.916 -14.067  -0.266  0.00  0.00    -0.013 A 
ATOM     21  C   UNL d   1      29.129 -14.715  -0.502  0.00  0.00     0.020 A 
ATOM     22  C   UNL d   1      30.052 -14.896   0.534  0.00  0.00    -0.055 A 
ATOM     23  C   UNL d   1      31.250 -15.769   0.308  0.00  0.00     0.049 C 
ATOM     24  C   UNL d   1      29.791 -14.347   1.798  0.00  0.00    -0.056 A 
ATOM     25  C   UNL d   1      30.818 -14.366   2.898  0.00  0.00     0.049 C 
ATOM     26  C   UNL d   1      28.551 -13.731   2.031  0.00  0.00     0.014 A 
ATOM     27  C   UNL d   1      27.609 -13.563   1.002  0.00  0.00    -0.050 A 
ATOM     28  C   UNL d   1      26.278 -12.948   1.314  0.00  0.00     0.049 C 
ENDBRANCH   2  20
TORSDOF 4
ENDMDL
MODEL 7
REMARK VINA RESULT:    -8.244      2.444      4.661
REMARK INTER + INTRA:         -10.421
REMARK INTER:                  -9.437
REMARK INTRA:                  -0.984
REMARK CONF_INDEPENDENT:        1.193
REMARK UNBOUND:                -0.984
REMARK  4 active torsions:
REMARK  status: ('A' for Active; 'I' for Inactive)
REMARK       I    between atoms: C_2  and  N_4 
REMARK    1  A    between atoms: N_4  and  C_5 
REMARK    2  A    between atoms: C_8  and  N_9 
REMARK    3  A    between atoms: N_9  and  C_10 
REMARK    4  A    between atoms: C_11  and  C_12 
ROOT
ATOM      1  C   UNL d   1      26.712 -15.702  -1.394  0.00  0.00     0.102 A 
ATOM      2  C   UNL d   1      27.288 -15.186  -2.515  0.00  0.00     0.060 A 
ATOM      3  C   UNL d   1      28.382 -16.128  -2.548  0.00  0.00     0.237 A 
ATOM      4  O   UNL d   1      29.390 -16.357  -3.180  0.00  0.00    -0.283 OA
ATOM      5  C   UNL d   1      27.783 -16.739  -1.321  0.00  0.00     0.250 A 
ATOM      6  O   UNL d   1      28.088 -17.710  -0.664  0.00  0.00    -0.282 OA
ENDROOT
BRANCH   1   7
ATOM      7  N   UNL d   1      25.596 -15.497  -0.708  0.00  0.00    -0.352 N 
ATOM      8  H   UNL d   1      25.557 -14.809   0.043  0.00  0.00     0.166 HD
BRANCH   7   9
ATOM      9  C   UNL d   1      24.578 -16.498  -0.549  0.00  0.00     0.032 A 
ATOM     10  C   UNL d   1      23.210 -16.195  -0.629  0.00  0.00     0.031 A 
ATOM     11  C   UNL d   1      22.220 -17.192  -0.409  0.00  0.00     0.032 A 
ATOM     12  C   UNL d   1      22.583 -18.522  -0.166  0.00  0.00     0.034 A 
ATOM     13  C   UNL d   1      23.934 -18.832  -0.144  0.00  0.00     0.032 A 
ATOM     14  C   UNL d   1      24.900 -17.845  -0.340  0.00  0.00     0.031 A 
BRANCH  12  15
ATOM     15  N   UNL d   1      21.622 -19.554  -0.005  0.00  0.00    -0.328 N 
ATOM     16  C   UNL d   1      20.285 -19.384  -0.349  0.00  0.00     0.218 C 
ATOM     17  C   UNL d   1      19.374 -20.547  -0.043  0.00  0.00     0.117 C 
ATOM     18  O   UNL d   1      19.827 -18.388  -0.907  0.00  0.00    -0.274 OA
ATOM     19  H   UNL d   1      21.948 -20.460   0.307  0.00  0.00     0.169 HD
ENDBRANCH  12  15
ENDBRANCH   7   9
ENDBRANCH   1   7
BRANCH   2  20
ATOM     20  C   UNL d   1      27.059 -13.979  -3.324  0.00  0.00    -0.013 A 
ATOM     21  C   UNL d   1      27.470 -12.754  -2.797  0.00  0.00     0.020 A 
ATOM     22  C   UNL d   1      27.034 -11.552  -3.367  0.00  0.00    -0.055 A 
ATOM     23  C   UNL d   1      27.320 -10.259  -2.666  0.00  0.00     0.049 C 
ATOM     24  C   UNL d   1      26.246 -11.582  -4.528  0.00  0.00    -0.056 A 
ATOM     25  C   UNL d   1      25.890 -10.327  -5.276  0.00  0.00     0.049 C 
ATOM     26  C   UNL d   1      25.810 -12.822  -5.024  0.00  0.00     0.014 A 
ATOM     27  C   UNL d   1      26.225 -14.032  -4.446  0.00  0.00    -0.050 A 
ATOM     28  C   UNL d   1      25.688 -15.327  -4.978  0.00  0.00     0.049 C 
ENDBRANCH   2  20
TORSDOF 4
ENDMDL
MODEL 8
REMARK VINA RESULT:    -7.729      3.234      6.091
REMARK INTER + INTRA:         -10.715
REMARK INTER:                  -8.922
REMARK INTRA:                  -1.793
REMARK CONF_INDEPENDENT:        1.193
REMARK UNBOUND:                -1.793
REMARK  4 active torsions:
REMARK  status: ('A' for Active; 'I' for Inactive)
REMARK       I    between atoms: C_2  and  N_4 
REMARK    1  A    between atoms: N_4  and  C_5 
REMARK    2  A    between atoms: C_8  and  N_9 
REMARK    3  A    between atoms: N_9  and  C_10 
REMARK    4  A    between atoms: C_11  and  C_12 
ROOT
ATOM      1  C   UNL d   1      27.177 -13.587  -3.173  0.00  0.00     0.102 A 
ATOM      2  C   UNL d   1      26.747 -14.868  -3.340  0.00  0.00     0.060 A 
ATOM      3  C   UNL d   1      26.867 -14.862  -4.780  0.00  0.00     0.237 A 
ATOM      4  O   UNL d   1      26.640 -15.575  -5.733  0.00  0.00    -0.283 OA
ATOM      5  C   UNL d   1      27.355 -13.454  -4.649  0.00  0.00     0.250 A 
ATOM      6  O   UNL d   1      27.762 -12.654  -5.464  0.00  0.00    -0.282 OA
ENDROOT
BRANCH   1   7
ATOM      7  N   UNL d   1      27.468 -12.800  -2.147  0.00  0.00    -0.352 N 
ATOM      8  H   UNL d   1      27.915 -11.895  -2.285  0.00  0.00     0.166 HD
BRANCH   7   9
ATOM      9  C   UNL d   1      27.704 -13.297  -0.819  0.00  0.00     0.032 A 
ATOM     10  C   UNL d   1      26.684 -13.382   0.141  0.00  0.00     0.031 A 
ATOM     11  C   UNL d   1      26.954 -13.822   1.466  0.00  0.00     0.032 A 
ATOM     12  C   UNL d   1      28.237 -14.243   1.835  0.00  0.00     0.034 A 
ATOM     13  C   UNL d   1      29.232 -14.213   0.870  0.00  0.00     0.032 A 
ATOM     14  C   UNL d   1      28.965 -13.760  -0.423  0.00  0.00     0.031 A 
BRANCH  12  15
ATOM     15  N   UNL d   1      28.528 -14.747   3.129  0.00  0.00    -0.328 N 
ATOM     16  C   UNL d   1      27.929 -14.237   4.276  0.00  0.00     0.218 C 
ATOM     17  C   UNL d   1      28.402 -14.825   5.583  0.00  0.00     0.117 C 
ATOM     18  O   UNL d   1      27.036 -13.391   4.283  0.00  0.00    -0.274 OA
ATOM     19  H   UNL d   1      29.141 -15.550   3.198  0.00  0.00     0.169 HD
ENDBRANCH  12  15
ENDBRANCH   7   9
ENDBRANCH   1   7
BRANCH   2  20
ATOM     20  C   UNL d   1      26.153 -15.876  -2.449  0.00  0.00    -0.013 A 
ATOM     21  C   UNL d   1      24.776 -15.824  -2.231  0.00  0.00     0.020 A 
ATOM     22  C   UNL d   1      24.193 -16.555  -1.189  0.00  0.00    -0.055 A 
ATOM     23  C   UNL d   1      22.752 -16.325  -0.847  0.00  0.00     0.049 C 
ATOM     24  C   UNL d   1      24.989 -17.411  -0.413  0.00  0.00    -0.056 A 
ATOM     25  C   UNL d   1      24.390 -18.342   0.605  0.00  0.00     0.049 C 
ATOM     26  C   UNL d   1      26.378 -17.424  -0.620  0.00  0.00     0.014 A 
ATOM     27  C   UNL d   1      26.975 -16.678  -1.650  0.00  0.00    -0.050 A 
ATOM     28  C   UNL d   1      28.467 -16.684  -1.795  0.00  0.00     0.049 C 
ENDBRANCH   2  20
TORSDOF 4
ENDMDL
MODEL 9
REMARK VINA RESULT:    -7.286      3.651      6.365
REMARK INTER + INTRA:         -10.055
REMARK INTER:                  -8.479
REMARK INTRA:                  -1.575
REMARK CONF_INDEPENDENT:        1.193
REMARK UNBOUND:                -1.575
REMARK  4 active torsions:
REMARK  status: ('A' for Active; 'I' for Inactive)
REMARK       I    between atoms: C_2  and  N_4 
REMARK    1  A    between atoms: N_4  and  C_5 
REMARK    2  A    between atoms: C_8  and  N_9 
REMARK    3  A    between atoms: N_9  and  C_10 
REMARK    4  A    between atoms: C_11  and  C_12 
ROOT
ATOM      1  C   UNL d   1      27.894 -13.583  -2.615  0.00  0.00     0.102 A 
ATOM      2  C   UNL d   1      27.180 -14.730  -2.780  0.00  0.00     0.060 A 
ATOM      3  C   UNL d   1      27.469 -14.866  -4.189  0.00  0.00     0.237 A 
ATOM      4  O   UNL d   1      27.187 -15.575  -5.130  0.00  0.00    -0.283 OA
ATOM      5  C   UNL d   1      28.275 -13.613  -4.058  0.00  0.00     0.250 A 
ATOM      6  O   UNL d   1      28.964 -13.002  -4.846  0.00  0.00    -0.282 OA
ENDROOT
BRANCH   1   7
ATOM      7  N   UNL d   1      28.248 -12.812  -1.596  0.00  0.00    -0.352 N 
ATOM      8  H   UNL d   1      28.817 -11.979  -1.737  0.00  0.00     0.166 HD
BRANCH   7   9
ATOM      9  C   UNL d   1      28.364 -13.299  -0.248  0.00  0.00     0.032 A 
ATOM     10  C   UNL d   1      29.547 -13.872   0.242  0.00  0.00     0.031 A 
ATOM     11  C   UNL d   1      29.618 -14.400   1.561  0.00  0.00     0.032 A 
ATOM     12  C   UNL d   1      28.526 -14.307   2.431  0.00  0.00     0.034 A 
ATOM     13  C   UNL d   1      27.376 -13.689   1.965  0.00  0.00     0.032 A 
ATOM     14  C   UNL d   1      27.306 -13.192   0.663  0.00  0.00     0.031 A 
BRANCH  12  15
ATOM     15  N   UNL d   1      28.583 -14.767   3.773  0.00  0.00    -0.328 N 
ATOM     16  C   UNL d   1      28.355 -13.926   4.856  0.00  0.00     0.218 C 
ATOM     17  C   UNL d   1      28.530 -14.547   6.220  0.00  0.00     0.117 C 
ATOM     18  O   UNL d   1      27.990 -12.754   4.769  0.00  0.00    -0.274 OA
ATOM     19  H   UNL d   1      28.727 -15.757   3.927  0.00  0.00     0.169 HD
ENDBRANCH  12  15
ENDBRANCH   7   9
ENDBRANCH   1   7
BRANCH   2  20
ATOM     20  C   UNL d   1      26.250 -15.492  -1.932  0.00  0.00    -0.013 A 
ATOM     21  C   UNL d   1      26.786 -16.470  -1.093  0.00  0.00     0.020 A 
ATOM     22  C   UNL d   1      25.955 -17.416  -0.482  0.00  0.00    -0.055 A 
ATOM     23  C   UNL d   1      26.569 -18.574   0.245  0.00  0.00     0.049 C 
ATOM     24  C   UNL d   1      24.564 -17.327  -0.649  0.00  0.00    -0.056 A 
ATOM     25  C   UNL d   1      23.617 -18.211   0.116  0.00  0.00     0.049 C 
ATOM     26  C   UNL d   1      24.044 -16.361  -1.525  0.00  0.00     0.014 A 
ATOM     27  C   UNL d   1      24.872 -15.420  -2.159  0.00  0.00    -0.050 A 
ATOM     28  C   UNL d   1      24.274 -14.445  -3.127  0.00  0.00     0.049 C 
ENDBRANCH   2  20
TORSDOF 4
ENDMDL
