MODEL 1
REMARK VINA RESULT:    -8.640      0.000      0.000
REMARK INTER + INTRA:         -12.407
REMARK INTER:                 -10.728
REMARK INTRA:                  -1.679
REMARK CONF_INDEPENDENT:        2.088
REMARK UNBOUND:                -1.679
REMARK  7 active torsions:
REMARK  status: ('A' for Active; 'I' for Inactive)
REMARK    1  A    between atoms: O_2  and  C_3 
REMARK    2  A    between atoms: C_5  and  O_6 
REMARK    3  A    between atoms: C_9  and  C_10 
REMARK       I    between atoms: C_10  and  N_12 
REMARK       I    between atoms: C_13  and  N_14 
REMARK       I    between atoms: C_13  and  N_26 
REMARK    4  A    between atoms: N_14  and  C_15 
REMARK    5  A    between atoms: C_15  and  C_16 
REMARK    6  A    between atoms: C_16  and  C_17 
REMARK    7  A    between atoms: N_26  and  C_27 
ROOT
ATOM      1  C   UNL d   1      27.185 -13.444  -1.227  0.00  0.00     0.294 C 
ATOM      2  O   UNL d   1      26.733 -12.624  -0.444  0.00  0.00    -0.265 OA
ATOM      3  N   UNL d   1      28.011 -14.495  -0.888  0.00  0.00    -0.023 NA
ATOM      4  C   UNL d   1      28.286 -14.702   0.369  0.00  0.00     0.704 C 
ATOM      5  N   UNL d   1      29.093 -15.761   0.699  0.00  0.00    -0.224 N 
ATOM      6  N   UNL d   1      27.795 -13.990   1.436  0.00  0.00    -0.190 N 
ATOM      7  H   UNL d   1      29.141 -16.007   1.680  0.00  0.00     0.177 HD
ATOM      8  H   UNL d   1      27.225 -13.182   1.166  0.00  0.00     0.184 HD
ENDROOT
BRANCH   5   9
ATOM      9  C   UNL d   1      29.590 -16.712  -0.262  0.00  0.00     0.142 C 
BRANCH   9  10
ATOM     10  C   UNL d   1      28.458 -17.231  -1.130  0.00  0.00     0.057 C 
BRANCH  10  11
ATOM     11  C   UNL d   1      27.200 -17.622  -0.420  0.00  0.00    -0.048 A 
ATOM     12  C   UNL d   1      26.021 -17.183  -0.855  0.00  0.00    -0.006 A 
ATOM     13  C   UNL d   1      25.693 -16.340  -1.947  0.00  0.00     0.014 A 
ATOM     14  C   UNL d   1      25.013 -17.694   0.079  0.00  0.00     0.038 A 
ATOM     15  C   UNL d   1      24.435 -15.905  -2.049  0.00  0.00     0.001 A 
ATOM     16  C   UNL d   1      23.393 -16.398  -1.160  0.00  0.00     0.002 A 
ATOM     17  C   UNL d   1      23.617 -17.256  -0.142  0.00  0.00     0.030 A 
ATOM     18  N   UNL d   1      25.540 -18.449   0.969  0.00  0.00    -0.385 N 
ATOM     19  C   UNL d   1      27.030 -18.463   0.813  0.00  0.00     0.155 A 
ATOM     20  H   UNL d   1      24.985 -18.949   1.662  0.00  0.00     0.160 HD
ENDBRANCH  10  11
ENDBRANCH   9  10
ENDBRANCH   5   9
BRANCH   6  21
ATOM     21  C   UNL d   1      28.197 -13.950   2.782  0.00  0.00     0.049 A 
ATOM     22  C   UNL d   1      27.240 -13.703   3.780  0.00  0.00     0.033 A 
ATOM     23  C   UNL d   1      27.606 -13.706   5.130  0.00  0.00     0.044 A 
ATOM     24  C   UNL d   1      28.910 -14.032   5.485  0.00  0.00     0.116 A 
ATOM     25  F   UNL d   1      29.244 -14.123   6.777  0.00  0.00    -0.206 F 
ATOM     26  C   UNL d   1      29.870 -14.276   4.516  0.00  0.00     0.044 A 
ATOM     27  C   UNL d   1      29.519 -14.200   3.172  0.00  0.00     0.033 A 
ENDBRANCH   6  21
BRANCH   1  28
ATOM     28  C   UNL d   1      26.866 -13.309  -2.682  0.00  0.00     0.040 A 
ATOM     29  C   UNL d   1      26.250 -12.125  -3.106  0.00  0.00     0.054 A 
ATOM     30  C   UNL d   1      26.045 -11.879  -4.460  0.00  0.00     0.071 A 
ATOM     31  C   UNL d   1      26.366 -12.874  -5.387  0.00  0.00     0.073 A 
ATOM     32  C   UNL d   1      26.988 -14.060  -4.978  0.00  0.00     0.071 A 
ATOM     33  C   UNL d   1      27.235 -14.279  -3.622  0.00  0.00     0.054 A 
BRANCH  30  34
ATOM     34  O   UNL d   1      25.594 -10.692  -4.973  0.00  0.00    -0.356 OA
ATOM     35  C   UNL d   1      26.148 -10.303  -6.233  0.00  0.00     0.210 C 
ENDBRANCH  30  34
BRANCH  32  36
ATOM     36  O   UNL d   1      27.440 -14.863  -5.992  0.00  0.00    -0.356 OA
ATOM     37  C   UNL d   1      28.739 -14.596  -6.497  0.00  0.00     0.210 C 
ENDBRANCH  32  36
ENDBRANCH   1  28
TORSDOF 7
ENDMDL
MODEL 2
REMARK VINA RESULT:    -8.621      0.304      1.927
REMARK INTER + INTRA:         -12.531
REMARK INTER:                 -10.709
REMARK INTRA:                  -1.822
REMARK CONF_INDEPENDENT:        2.088
REMARK UNBOUND:                -1.822
REMARK  7 active torsions:
REMARK  status: ('A' for Active; 'I' for Inactive)
REMARK    1  A    between atoms: O_2  and  C_3 
REMARK    2  A    between atoms: C_5  and  O_6 
REMARK    3  A    between atoms: C_9  and  C_10 
REMARK       I    between atoms: C_10  and  N_12 
REMARK       I    between atoms: C_13  and  N_14 
REMARK       I    between atoms: C_13  and  N_26 
REMARK    4  A    between atoms: N_14  and  C_15 
REMARK    5  A    between atoms: C_15  and  C_16 
REMARK    6  A    between atoms: C_16  and  C_17 
REMARK    7  A    between atoms: N_26  and  C_27 
ROOT
ATOM      1  C   UNL d   1      27.501 -13.229  -1.216  0.00  0.00     0.294 C 
ATOM      2  O   UNL d   1      27.083 -12.415  -0.409  0.00  0.00    -0.265 OA
ATOM      3  N   UNL d   1      28.242 -14.350  -0.902  0.00  0.00    -0.023 NA
ATOM      4  C   UNL d   1      28.462 -14.630   0.351  0.00  0.00     0.704 C 
ATOM      5  N   UNL d   1      29.184 -15.757   0.655  0.00  0.00    -0.224 N 
ATOM      6  N   UNL d   1      27.990 -13.932   1.435  0.00  0.00    -0.190 N 
ATOM      7  H   UNL d   1      29.184 -16.048   1.625  0.00  0.00     0.177 HD
ATOM      8  H   UNL d   1      27.486 -13.075   1.186  0.00  0.00     0.184 HD
ENDROOT
BRANCH   5   9
ATOM      9  C   UNL d   1      29.643 -16.698  -0.335  0.00  0.00     0.142 C 
BRANCH   9  10
ATOM     10  C   UNL d   1      28.502 -17.111  -1.245  0.00  0.00     0.057 C 
BRANCH  10  11
ATOM     11  C   UNL d   1      27.229 -17.521  -0.572  0.00  0.00    -0.048 A 
ATOM     12  C   UNL d   1      26.063 -17.033  -0.990  0.00  0.00    -0.006 A 
ATOM     13  C   UNL d   1      25.762 -16.118  -2.030  0.00  0.00     0.014 A 
ATOM     14  C   UNL d   1      25.036 -17.581  -0.099  0.00  0.00     0.038 A 
ATOM     15  C   UNL d   1      24.514 -15.653  -2.116  0.00  0.00     0.001 A 
ATOM     16  C   UNL d   1      23.454 -16.179  -1.270  0.00  0.00     0.002 A 
ATOM     17  C   UNL d   1      23.651 -17.103  -0.305  0.00  0.00     0.030 A 
ATOM     18  N   UNL d   1      25.539 -18.400   0.747  0.00  0.00    -0.385 N 
ATOM     19  C   UNL d   1      27.030 -18.434   0.605  0.00  0.00     0.155 A 
ATOM     20  H   UNL d   1      24.967 -18.932   1.403  0.00  0.00     0.160 HD
ENDBRANCH  10  11
ENDBRANCH   9  10
ENDBRANCH   5   9
BRANCH   6  21
ATOM     21  C   UNL d   1      28.352 -13.980   2.792  0.00  0.00     0.049 A 
ATOM     22  C   UNL d   1      27.347 -13.983   3.774  0.00  0.00     0.033 A 
ATOM     23  C   UNL d   1      27.680 -14.079   5.129  0.00  0.00     0.044 A 
ATOM     24  C   UNL d   1      29.009 -14.247   5.497  0.00  0.00     0.116 A 
ATOM     25  F   UNL d   1      29.324 -14.427   6.785  0.00  0.00    -0.206 F 
ATOM     26  C   UNL d   1      30.016 -14.243   4.545  0.00  0.00     0.044 A 
ATOM     27  C   UNL d   1      29.687 -14.075   3.204  0.00  0.00     0.033 A 
ENDBRANCH   6  21
BRANCH   1  28
ATOM     28  C   UNL d   1      27.237 -13.009  -2.672  0.00  0.00     0.040 A 
ATOM     29  C   UNL d   1      27.583 -14.037  -3.558  0.00  0.00     0.054 A 
ATOM     30  C   UNL d   1      27.244 -13.953  -4.906  0.00  0.00     0.071 A 
ATOM     31  C   UNL d   1      26.648 -12.784  -5.385  0.00  0.00     0.073 A 
ATOM     32  C   UNL d   1      26.290 -11.752  -4.509  0.00  0.00     0.071 A 
ATOM     33  C   UNL d   1      26.589 -11.863  -3.150  0.00  0.00     0.054 A 
BRANCH  30  34
ATOM     34  O   UNL d   1      27.405 -14.970  -5.809  0.00  0.00    -0.356 OA
ATOM     35  C   UNL d   1      28.743 -15.200  -6.260  0.00  0.00     0.210 C 
ENDBRANCH  30  34
BRANCH  32  36
ATOM     36  O   UNL d   1      25.530 -10.755  -5.059  0.00  0.00    -0.356 OA
ATOM     37  C   UNL d   1      25.651 -10.548  -6.459  0.00  0.00     0.210 C 
ENDBRANCH  32  36
ENDBRANCH   1  28
TORSDOF 7
ENDMDL
MODEL 3
REMARK VINA RESULT:    -8.540      1.493      2.669
REMARK INTER + INTRA:         -12.692
REMARK INTER:                 -10.628
REMARK INTRA:                  -2.064
REMARK CONF_INDEPENDENT:        2.088
REMARK UNBOUND:                -2.064
REMARK  7 active torsions:
REMARK  status: ('A' for Active; 'I' for Inactive)
REMARK    1  A    between atoms: O_2  and  C_3 
REMARK    2  A    between atoms: C_5  and  O_6 
REMARK    3  A    between atoms: C_9  and  C_10 
REMARK       I    between atoms: C_10  and  N_12 
REMARK       I    between atoms: C_13  and  N_14 
REMARK       I    between atoms: C_13  and  N_26 
REMARK    4  A    between atoms: N_14  and  C_15 
REMARK    5  A    between atoms: C_15  and  C_16 
REMARK    6  A    between atoms: C_16  and  C_17 
REMARK    7  A    between atoms: N_26  and  C_27 
ROOT
ATOM      1  C   UNL d   1      27.095 -12.776  -0.420  0.00  0.00     0.294 C 
ATOM      2  O   UNL d   1      26.655 -12.056   0.462  0.00  0.00    -0.265 OA
ATOM      3  N   UNL d   1      27.969 -13.826  -0.226  0.00  0.00    -0.023 NA
ATOM      4  C   UNL d   1      28.309 -14.148   0.989  0.00  0.00     0.704 C 
ATOM      5  N   UNL d   1      29.164 -15.205   1.173  0.00  0.00    -0.224 N 
ATOM      6  N   UNL d   1      27.848 -13.565   2.144  0.00  0.00    -0.190 N 
ATOM      7  H   UNL d   1      29.267 -15.547   2.121  0.00  0.00     0.177 HD
ATOM      8  H   UNL d   1      27.241 -12.756   1.983  0.00  0.00     0.184 HD
ENDROOT
BRANCH   5   9
ATOM      9  C   UNL d   1      29.645 -16.036   0.098  0.00  0.00     0.142 C 
BRANCH   9  10
ATOM     10  C   UNL d   1      28.695 -17.194  -0.143  0.00  0.00     0.057 C 
BRANCH  10  11
ATOM     11  C   UNL d   1      27.511 -16.914  -1.014  0.00  0.00    -0.048 A 
ATOM     12  C   UNL d   1      26.284 -17.225  -0.599  0.00  0.00    -0.006 A 
ATOM     13  C   UNL d   1      25.841 -17.829   0.605  0.00  0.00     0.014 A 
ATOM     14  C   UNL d   1      25.371 -16.878  -1.692  0.00  0.00     0.038 A 
ATOM     15  C   UNL d   1      24.561 -18.200   0.687  0.00  0.00     0.001 A 
ATOM     16  C   UNL d   1      23.610 -17.861  -0.360  0.00  0.00     0.002 A 
ATOM     17  C   UNL d   1      23.945 -17.225  -1.504  0.00  0.00     0.030 A 
ATOM     18  N   UNL d   1      25.995 -16.326  -2.664  0.00  0.00    -0.385 N 
ATOM     19  C   UNL d   1      27.468 -16.325  -2.396  0.00  0.00     0.155 A 
ATOM     20  H   UNL d   1      25.514 -15.955  -3.484  0.00  0.00     0.160 HD
ENDBRANCH  10  11
ENDBRANCH   9  10
ENDBRANCH   5   9
BRANCH   6  21
ATOM     21  C   UNL d   1      28.312 -13.647   3.468  0.00  0.00     0.049 A 
ATOM     22  C   UNL d   1      28.900 -12.518   4.064  0.00  0.00     0.033 A 
ATOM     23  C   UNL d   1      29.325 -12.561   5.395  0.00  0.00     0.044 A 
ATOM     24  C   UNL d   1      29.095 -13.703   6.152  0.00  0.00     0.116 A 
ATOM     25  F   UNL d   1      29.420 -13.717   7.450  0.00  0.00    -0.206 F 
ATOM     26  C   UNL d   1      28.520 -14.829   5.583  0.00  0.00     0.044 A 
ATOM     27  C   UNL d   1      28.164 -14.807   4.238  0.00  0.00     0.033 A 
ENDBRANCH   6  21
BRANCH   1  28
ATOM     28  C   UNL d   1      26.702 -12.507  -1.838  0.00  0.00     0.040 A 
ATOM     29  C   UNL d   1      26.255 -13.590  -2.605  0.00  0.00     0.054 A 
ATOM     30  C   UNL d   1      25.751 -13.389  -3.887  0.00  0.00     0.071 A 
ATOM     31  C   UNL d   1      25.793 -12.106  -4.440  0.00  0.00     0.073 A 
ATOM     32  C   UNL d   1      26.231 -11.013  -3.681  0.00  0.00     0.071 A 
ATOM     33  C   UNL d   1      26.690 -11.215  -2.379  0.00  0.00     0.054 A 
BRANCH  30  34
ATOM     34  O   UNL d   1      25.155 -14.360  -4.646  0.00  0.00    -0.356 OA
ATOM     35  C   UNL d   1      26.038 -15.199  -5.395  0.00  0.00     0.210 C 
ENDBRANCH  30  34
BRANCH  32  36
ATOM     36  O   UNL d   1      26.032  -9.786  -4.255  0.00  0.00    -0.356 OA
ATOM     37  C   UNL d   1      25.172  -8.886  -3.573  0.00  0.00     0.210 C 
ENDBRANCH  32  36
ENDBRANCH   1  28
TORSDOF 7
ENDMDL
MODEL 4
REMARK VINA RESULT:    -8.344      1.507      1.964
REMARK INTER + INTRA:         -12.655
REMARK INTER:                 -10.432
REMARK INTRA:                  -2.223
REMARK CONF_INDEPENDENT:        2.088
REMARK UNBOUND:                -2.223
REMARK  7 active torsions:
REMARK  status: ('A' for Active; 'I' for Inactive)
REMARK    1  A    between atoms: O_2  and  C_3 
REMARK    2  A    between atoms: C_5  and  O_6 
REMARK    3  A    between atoms: C_9  and  C_10 
REMARK       I    between atoms: C_10  and  N_12 
REMARK       I    between atoms: C_13  and  N_14 
REMARK       I    between atoms: C_13  and  N_26 
REMARK    4  A    between atoms: N_14  and  C_15 
REMARK    5  A    between atoms: C_15  and  C_16 
REMARK    6  A    between atoms: C_16  and  C_17 
REMARK    7  A    between atoms: N_26  and  C_27 
ROOT
ATOM      1  C   UNL d   1      26.897 -13.032  -0.222  0.00  0.00     0.294 C 
ATOM      2  O   UNL d   1      26.332 -12.429   0.676  0.00  0.00    -0.265 OA
ATOM      3  N   UNL d   1      27.929 -13.931  -0.048  0.00  0.00    -0.023 NA
ATOM      4  C   UNL d   1      28.301 -14.240   1.162  0.00  0.00     0.704 C 
ATOM      5  N   UNL d   1      29.315 -15.148   1.326  0.00  0.00    -0.224 N 
ATOM      6  N   UNL d   1      27.734 -13.784   2.327  0.00  0.00    -0.190 N 
ATOM      7  H   UNL d   1      29.459 -15.504   2.263  0.00  0.00     0.177 HD
ATOM      8  H   UNL d   1      27.004 -13.080   2.183  0.00  0.00     0.184 HD
ENDROOT
BRANCH   5   9
ATOM      9  C   UNL d   1      29.941 -15.847   0.233  0.00  0.00     0.142 C 
BRANCH   9  10
ATOM     10  C   UNL d   1      29.133 -17.075  -0.145  0.00  0.00     0.057 C 
BRANCH  10  11
ATOM     11  C   UNL d   1      27.942 -16.843  -1.022  0.00  0.00    -0.048 A 
ATOM     12  C   UNL d   1      26.725 -17.188  -0.605  0.00  0.00    -0.006 A 
ATOM     13  C   UNL d   1      26.299 -17.790   0.605  0.00  0.00     0.014 A 
ATOM     14  C   UNL d   1      25.804 -16.884  -1.705  0.00  0.00     0.038 A 
ATOM     15  C   UNL d   1      25.031 -18.200   0.689  0.00  0.00     0.001 A 
ATOM     16  C   UNL d   1      24.072 -17.905  -0.364  0.00  0.00     0.002 A 
ATOM     17  C   UNL d   1      24.390 -17.273  -1.515  0.00  0.00     0.030 A 
ATOM     18  N   UNL d   1      26.412 -16.326  -2.683  0.00  0.00    -0.385 N 
ATOM     19  C   UNL d   1      27.884 -16.274  -2.412  0.00  0.00     0.155 A 
ATOM     20  H   UNL d   1      25.922 -15.981  -3.508  0.00  0.00     0.160 HD
ENDBRANCH  10  11
ENDBRANCH   9  10
ENDBRANCH   5   9
BRANCH   6  21
ATOM     21  C   UNL d   1      28.186 -13.839   3.656  0.00  0.00     0.049 A 
ATOM     22  C   UNL d   1      28.639 -12.664   4.280  0.00  0.00     0.033 A 
ATOM     23  C   UNL d   1      29.048 -12.684   5.617  0.00  0.00     0.044 A 
ATOM     24  C   UNL d   1      28.934 -13.859   6.351  0.00  0.00     0.116 A 
ATOM     25  F   UNL d   1      29.241 -13.861   7.653  0.00  0.00    -0.206 F 
ATOM     26  C   UNL d   1      28.493 -15.030   5.755  0.00  0.00     0.044 A 
ATOM     27  C   UNL d   1      28.155 -15.023   4.405  0.00  0.00     0.033 A 
ENDBRANCH   6  21
BRANCH   1  28
ATOM     28  C   UNL d   1      26.486 -12.778  -1.637  0.00  0.00     0.040 A 
ATOM     29  C   UNL d   1      26.885 -11.570  -2.223  0.00  0.00     0.054 A 
ATOM     30  C   UNL d   1      26.651 -11.327  -3.573  0.00  0.00     0.071 A 
ATOM     31  C   UNL d   1      25.918 -12.259  -4.314  0.00  0.00     0.073 A 
ATOM     32  C   UNL d   1      25.520 -13.474  -3.743  0.00  0.00     0.071 A 
ATOM     33  C   UNL d   1      25.801 -13.732  -2.401  0.00  0.00     0.054 A 
BRANCH  30  34
ATOM     34  O   UNL d   1      27.137 -10.247  -4.262  0.00  0.00    -0.356 OA
ATOM     35  C   UNL d   1      26.247  -9.663  -5.217  0.00  0.00     0.210 C 
ENDBRANCH  30  34
BRANCH  32  36
ATOM     36  O   UNL d   1      24.996 -14.387  -4.619  0.00  0.00    -0.356 OA
ATOM     37  C   UNL d   1      25.916 -15.139  -5.395  0.00  0.00     0.210 C 
ENDBRANCH  32  36
ENDBRANCH   1  28
TORSDOF 7
ENDMDL
MODEL 5
REMARK VINA RESULT:    -8.198      3.165      6.245
REMARK INTER + INTRA:         -11.825
REMARK INTER:                 -10.286
REMARK INTRA:                  -1.539
REMARK CONF_INDEPENDENT:        2.088
REMARK UNBOUND:                -1.539
REMARK  7 active torsions:
REMARK  status: ('A' for Active; 'I' for Inactive)
REMARK    1  A    between atoms: O_2  and  C_3 
REMARK    2  A    between atoms: C_5  and  O_6 
REMARK    3  A    between atoms: C_9  and  C_10 
REMARK       I    between atoms: C_10  and  N_12 
REMARK       I    between atoms: C_13  and  N_14 
REMARK       I    between atoms: C_13  and  N_26 
REMARK    4  A    between atoms: N_14  and  C_15 
REMARK    5  A    between atoms: C_15  and  C_16 
REMARK    6  A    between atoms: C_16  and  C_17 
REMARK    7  A    between atoms: N_26  and  C_27 
ROOT
ATOM      1  C   UNL d   1      27.867 -17.255  -0.503  0.00  0.00     0.294 C 
ATOM      2  O   UNL d   1      28.232 -18.364  -0.145  0.00  0.00    -0.265 OA
ATOM      3  N   UNL d   1      28.673 -16.138  -0.572  0.00  0.00    -0.023 NA
ATOM      4  C   UNL d   1      29.945 -16.259  -0.315  0.00  0.00     0.704 C 
ATOM      5  N   UNL d   1      30.742 -15.147  -0.404  0.00  0.00    -0.224 N 
ATOM      6  N   UNL d   1      30.604 -17.425  -0.012  0.00  0.00    -0.190 N 
ATOM      7  H   UNL d   1      31.742 -15.302  -0.380  0.00  0.00     0.177 HD
ATOM      8  H   UNL d   1      29.986 -18.236   0.086  0.00  0.00     0.184 HD
ENDROOT
BRANCH   5   9
ATOM      9  C   UNL d   1      30.267 -13.861  -0.848  0.00  0.00     0.142 C 
BRANCH   9  10
ATOM     10  C   UNL d   1      29.679 -13.082   0.314  0.00  0.00     0.057 C 
BRANCH  10  11
ATOM     11  C   UNL d   1      30.090 -13.521   1.685  0.00  0.00    -0.048 A 
ATOM     12  C   UNL d   1      29.170 -13.732   2.624  0.00  0.00    -0.006 A 
ATOM     13  C   UNL d   1      27.759 -13.604   2.582  0.00  0.00     0.014 A 
ATOM     14  C   UNL d   1      29.894 -14.093   3.846  0.00  0.00     0.038 A 
ATOM     15  C   UNL d   1      27.085 -13.700   3.731  0.00  0.00     0.001 A 
ATOM     16  C   UNL d   1      27.753 -14.076   4.967  0.00  0.00     0.002 A 
ATOM     17  C   UNL d   1      29.084 -14.283   5.069  0.00  0.00     0.030 A 
ATOM     18  N   UNL d   1      31.156 -14.168   3.637  0.00  0.00    -0.385 N 
ATOM     19  C   UNL d   1      31.469 -13.753   2.233  0.00  0.00     0.155 A 
ATOM     20  H   UNL d   1      31.813 -14.474   4.355  0.00  0.00     0.160 HD
ENDBRANCH  10  11
ENDBRANCH   9  10
ENDBRANCH   5   9
BRANCH   6  21
ATOM     21  C   UNL d   1      31.887 -17.649   0.518  0.00  0.00     0.049 A 
ATOM     22  C   UNL d   1      32.388 -16.778   1.501  0.00  0.00     0.033 A 
ATOM     23  C   UNL d   1      33.642 -17.007   2.077  0.00  0.00     0.044 A 
ATOM     24  C   UNL d   1      34.359 -18.145   1.728  0.00  0.00     0.116 A 
ATOM     25  F   UNL d   1      35.517 -18.415   2.341  0.00  0.00    -0.206 F 
ATOM     26  C   UNL d   1      33.884 -19.015   0.758  0.00  0.00     0.044 A 
ATOM     27  C   UNL d   1      32.670 -18.745   0.135  0.00  0.00     0.033 A 
ENDBRANCH   6  21
BRANCH   1  28
ATOM     28  C   UNL d   1      26.433 -17.049  -0.873  0.00  0.00     0.040 A 
ATOM     29  C   UNL d   1      25.473 -17.826  -0.213  0.00  0.00     0.054 A 
ATOM     30  C   UNL d   1      24.115 -17.593  -0.412  0.00  0.00     0.071 A 
ATOM     31  C   UNL d   1      23.721 -16.644  -1.359  0.00  0.00     0.073 A 
ATOM     32  C   UNL d   1      24.670 -15.855  -2.020  0.00  0.00     0.071 A 
ATOM     33  C   UNL d   1      26.029 -16.061  -1.780  0.00  0.00     0.054 A 
BRANCH  30  34
ATOM     34  O   UNL d   1      23.113 -18.196   0.300  0.00  0.00    -0.356 OA
ATOM     35  C   UNL d   1      22.005 -18.678  -0.464  0.00  0.00     0.210 C 
ENDBRANCH  30  34
BRANCH  32  36
ATOM     36  O   UNL d   1      24.158 -14.825  -2.764  0.00  0.00    -0.356 OA
ATOM     37  C   UNL d   1      25.075 -14.072  -3.543  0.00  0.00     0.210 C 
ENDBRANCH  32  36
ENDBRANCH   1  28
TORSDOF 7
ENDMDL
MODEL 6
REMARK VINA RESULT:    -8.107      3.218      6.188
REMARK INTER + INTRA:         -11.843
REMARK INTER:                 -10.195
REMARK INTRA:                  -1.648
REMARK CONF_INDEPENDENT:        2.088
REMARK UNBOUND:                -1.648
REMARK  7 active torsions:
REMARK  status: ('A' for Active; 'I' for Inactive)
REMARK    1  A    between atoms: O_2  and  C_3 
REMARK    2  A    between atoms: C_5  and  O_6 
REMARK    3  A    between atoms: C_9  and  C_10 
REMARK       I    between atoms: C_10  and  N_12 
REMARK       I    between atoms: C_13  and  N_14 
REMARK       I    between atoms: C_13  and  N_26 
REMARK    4  A    between atoms: N_14  and  C_15 
REMARK    5  A    between atoms: C_15  and  C_16 
REMARK    6  A    between atoms: C_16  and  C_17 
REMARK    7  A    between atoms: N_26  and  C_27 
ROOT
ATOM      1  C   UNL d   1      27.870 -17.163  -0.363  0.00  0.00     0.294 C 
ATOM      2  O   UNL d   1      28.225 -18.286  -0.045  0.00  0.00    -0.265 OA
ATOM      3  N   UNL d   1      28.702 -16.067  -0.472  0.00  0.00    -0.023 NA
ATOM      4  C   UNL d   1      29.983 -16.229  -0.302  0.00  0.00     0.704 C 
ATOM      5  N   UNL d   1      30.805 -15.138  -0.430  0.00  0.00    -0.224 N 
ATOM      6  N   UNL d   1      30.628 -17.417  -0.058  0.00  0.00    -0.190 N 
ATOM      7  H   UNL d   1      31.800 -15.321  -0.475  0.00  0.00     0.177 HD
ATOM      8  H   UNL d   1      29.993 -18.211   0.070  0.00  0.00     0.184 HD
ENDROOT
BRANCH   5   9
ATOM      9  C   UNL d   1      30.339 -13.833  -0.824  0.00  0.00     0.142 C 
BRANCH   9  10
ATOM     10  C   UNL d   1      29.754 -13.095   0.366  0.00  0.00     0.057 C 
BRANCH  10  11
ATOM     11  C   UNL d   1      30.135 -13.610   1.719  0.00  0.00    -0.048 A 
ATOM     12  C   UNL d   1      29.201 -13.808   2.648  0.00  0.00    -0.006 A 
ATOM     13  C   UNL d   1      27.799 -13.602   2.608  0.00  0.00     0.014 A 
ATOM     14  C   UNL d   1      29.900 -14.254   3.857  0.00  0.00     0.038 A 
ATOM     15  C   UNL d   1      27.116 -13.707   3.750  0.00  0.00     0.001 A 
ATOM     16  C   UNL d   1      27.758 -14.167   4.972  0.00  0.00     0.002 A 
ATOM     17  C   UNL d   1      29.076 -14.449   5.069  0.00  0.00     0.030 A 
ATOM     18  N   UNL d   1      31.156 -14.389   3.648  0.00  0.00    -0.385 N 
ATOM     19  C   UNL d   1      31.498 -13.936   2.261  0.00  0.00     0.155 A 
ATOM     20  H   UNL d   1      31.793 -14.757   4.354  0.00  0.00     0.160 HD
ENDBRANCH  10  11
ENDBRANCH   9  10
ENDBRANCH   5   9
BRANCH   6  21
ATOM     21  C   UNL d   1      31.935 -17.684   0.381  0.00  0.00     0.049 A 
ATOM     22  C   UNL d   1      32.808 -18.407  -0.450  0.00  0.00     0.033 A 
ATOM     23  C   UNL d   1      34.129 -18.644  -0.055  0.00  0.00     0.044 A 
ATOM     24  C   UNL d   1      34.598 -18.095   1.132  0.00  0.00     0.116 A 
ATOM     25  F   UNL d   1      35.884 -18.244   1.471  0.00  0.00    -0.206 F 
ATOM     26  C   UNL d   1      33.753 -17.381   1.968  0.00  0.00     0.044 A 
ATOM     27  C   UNL d   1      32.421 -17.209   1.606  0.00  0.00     0.033 A 
ENDBRANCH   6  21
BRANCH   1  28
ATOM     28  C   UNL d   1      26.421 -16.910  -0.634  0.00  0.00     0.040 A 
ATOM     29  C   UNL d   1      26.096 -15.886  -1.533  0.00  0.00     0.054 A 
ATOM     30  C   UNL d   1      24.777 -15.686  -1.930  0.00  0.00     0.071 A 
ATOM     31  C   UNL d   1      23.766 -16.450  -1.340  0.00  0.00     0.073 A 
ATOM     32  C   UNL d   1      24.078 -17.481  -0.446  0.00  0.00     0.071 A 
ATOM     33  C   UNL d   1      25.408 -17.709  -0.089  0.00  0.00     0.054 A 
BRANCH  30  34
ATOM     34  O   UNL d   1      24.388 -14.815  -2.913  0.00  0.00    -0.356 OA
ATOM     35  C   UNL d   1      25.401 -14.433  -3.847  0.00  0.00     0.210 C 
ENDBRANCH  30  34
BRANCH  32  36
ATOM     36  O   UNL d   1      23.028 -18.290  -0.097  0.00  0.00    -0.356 OA
ATOM     37  C   UNL d   1      21.857 -18.207  -0.895  0.00  0.00     0.210 C 
ENDBRANCH  32  36
ENDBRANCH   1  28
TORSDOF 7
ENDMDL
MODEL 7
REMARK VINA RESULT:    -7.830      3.571      7.792
REMARK INTER + INTRA:         -12.037
REMARK INTER:                  -9.918
REMARK INTRA:                  -2.119
REMARK CONF_INDEPENDENT:        2.088
REMARK UNBOUND:                -2.119
REMARK  7 active torsions:
REMARK  status: ('A' for Active; 'I' for Inactive)
REMARK    1  A    between atoms: O_2  and  C_3 
REMARK    2  A    between atoms: C_5  and  O_6 
REMARK    3  A    between atoms: C_9  and  C_10 
REMARK       I    between atoms: C_10  and  N_12 
REMARK       I    between atoms: C_13  and  N_14 
REMARK       I    between atoms: C_13  and  N_26 
REMARK    4  A    between atoms: N_14  and  C_15 
REMARK    5  A    between atoms: C_15  and  C_16 
REMARK    6  A    between atoms: C_16  and  C_17 
REMARK    7  A    between atoms: N_26  and  C_27 
ROOT
ATOM      1  C   UNL d   1      25.205 -14.293  -2.841  0.00  0.00     0.294 C 
ATOM      2  O   UNL d   1      24.351 -14.072  -3.684  0.00  0.00    -0.265 OA
ATOM      3  N   UNL d   1      26.323 -13.516  -2.620  0.00  0.00    -0.023 NA
ATOM      4  C   UNL d   1      26.468 -12.411  -3.295  0.00  0.00     0.704 C 
ATOM      5  N   UNL d   1      27.573 -11.635  -3.056  0.00  0.00    -0.224 N 
ATOM      6  N   UNL d   1      25.580 -11.893  -4.206  0.00  0.00    -0.190 N 
ATOM      7  H   UNL d   1      27.570 -10.704  -3.454  0.00  0.00     0.177 HD
ATOM      8  H   UNL d   1      24.781 -12.505  -4.397  0.00  0.00     0.184 HD
ENDROOT
BRANCH   5   9
ATOM      9  C   UNL d   1      28.548 -11.932  -2.036  0.00  0.00     0.142 C 
BRANCH   9  10
ATOM     10  C   UNL d   1      27.889 -11.982  -0.670  0.00  0.00     0.057 C 
BRANCH  10  11
ATOM     11  C   UNL d   1      28.104 -13.230   0.128  0.00  0.00    -0.048 A 
ATOM     12  C   UNL d   1      27.854 -13.240   1.436  0.00  0.00    -0.006 A 
ATOM     13  C   UNL d   1      27.392 -12.214   2.298  0.00  0.00     0.014 A 
ATOM     14  C   UNL d   1      28.215 -14.576   1.920  0.00  0.00     0.038 A 
ATOM     15  C   UNL d   1      27.405 -12.445   3.612  0.00  0.00     0.001 A 
ATOM     16  C   UNL d   1      27.735 -13.758   4.143  0.00  0.00     0.002 A 
ATOM     17  C   UNL d   1      28.116 -14.805   3.378  0.00  0.00     0.030 A 
ATOM     18  N   UNL d   1      28.584 -15.338   0.960  0.00  0.00    -0.385 N 
ATOM     19  C   UNL d   1      28.624 -14.565  -0.323  0.00  0.00     0.155 A 
ATOM     20  H   UNL d   1      28.807 -16.324   1.096  0.00  0.00     0.160 HD
ENDBRANCH  10  11
ENDBRANCH   9  10
ENDBRANCH   5   9
BRANCH   6  21
ATOM     21  C   UNL d   1      25.727 -10.872  -5.160  0.00  0.00     0.049 A 
ATOM     22  C   UNL d   1      25.276  -9.576  -4.858  0.00  0.00     0.033 A 
ATOM     23  C   UNL d   1      25.454  -8.532  -5.771  0.00  0.00     0.044 A 
ATOM     24  C   UNL d   1      26.150  -8.766  -6.951  0.00  0.00     0.116 A 
ATOM     25  F   UNL d   1      26.401  -7.752  -7.787  0.00  0.00    -0.206 F 
ATOM     26  C   UNL d   1      26.601 -10.038  -7.270  0.00  0.00     0.044 A 
ATOM     27  C   UNL d   1      26.358 -11.089  -6.391  0.00  0.00     0.033 A 
ENDBRANCH   6  21
BRANCH   1  28
ATOM     28  C   UNL d   1      25.078 -15.512  -1.984  0.00  0.00     0.040 A 
ATOM     29  C   UNL d   1      26.253 -16.057  -1.451  0.00  0.00     0.054 A 
ATOM     30  C   UNL d   1      26.196 -17.109  -0.541  0.00  0.00     0.071 A 
ATOM     31  C   UNL d   1      24.957 -17.685  -0.245  0.00  0.00     0.073 A 
ATOM     32  C   UNL d   1      23.775 -17.145  -0.765  0.00  0.00     0.071 A 
ATOM     33  C   UNL d   1      23.836 -16.059  -1.640  0.00  0.00     0.054 A 
BRANCH  30  34
ATOM     34  O   UNL d   1      27.276 -17.601   0.144  0.00  0.00    -0.356 OA
ATOM     35  C   UNL d   1      27.030 -18.752   0.955  0.00  0.00     0.210 C 
ENDBRANCH  30  34
BRANCH  32  36
ATOM     36  O   UNL d   1      22.618 -17.661  -0.243  0.00  0.00    -0.356 OA
ATOM     37  C   UNL d   1      22.256 -18.972  -0.647  0.00  0.00     0.210 C 
ENDBRANCH  32  36
ENDBRANCH   1  28
TORSDOF 7
ENDMDL
MODEL 8
REMARK VINA RESULT:    -7.380      3.675      7.612
REMARK INTER + INTRA:         -11.699
REMARK INTER:                  -9.468
REMARK INTRA:                  -2.231
REMARK CONF_INDEPENDENT:        2.088
REMARK UNBOUND:                -2.231
REMARK  7 active torsions:
REMARK  status: ('A' for Active; 'I' for Inactive)
REMARK    1  A    between atoms: O_2  and  C_3 
REMARK    2  A    between atoms: C_5  and  O_6 
REMARK    3  A    between atoms: C_9  and  C_10 
REMARK       I    between atoms: C_10  and  N_12 
REMARK       I    between atoms: C_13  and  N_14 
REMARK       I    between atoms: C_13  and  N_26 
REMARK    4  A    between atoms: N_14  and  C_15 
REMARK    5  A    between atoms: C_15  and  C_16 
REMARK    6  A    between atoms: C_16  and  C_17 
REMARK    7  A    between atoms: N_26  and  C_27 
ROOT
ATOM      1  C   UNL d   1      25.140 -14.446  -2.775  0.00  0.00     0.294 C 
ATOM      2  O   UNL d   1      24.675 -14.450  -3.904  0.00  0.00    -0.265 OA
ATOM      3  N   UNL d   1      25.906 -13.433  -2.235  0.00  0.00    -0.023 NA
ATOM      4  C   UNL d   1      26.101 -12.349  -2.931  0.00  0.00     0.704 C 
ATOM      5  N   UNL d   1      26.848 -11.340  -2.379  0.00  0.00    -0.224 N 
ATOM      6  N   UNL d   1      25.578 -12.075  -4.171  0.00  0.00    -0.190 N 
ATOM      7  H   UNL d   1      26.831 -10.448  -2.858  0.00  0.00     0.177 HD
ATOM      8  H   UNL d   1      25.055 -12.855  -4.580  0.00  0.00     0.184 HD
ENDROOT
BRANCH   5   9
ATOM      9  C   UNL d   1      27.362 -11.376  -1.033  0.00  0.00     0.142 C 
BRANCH   9  10
ATOM     10  C   UNL d   1      28.779 -11.922  -1.021  0.00  0.00     0.057 C 
BRANCH  10  11
ATOM     11  C   UNL d   1      28.947 -13.325  -0.530  0.00  0.00    -0.048 A 
ATOM     12  C   UNL d   1      29.064 -14.329  -1.397  0.00  0.00    -0.006 A 
ATOM     13  C   UNL d   1      29.052 -14.333  -2.815  0.00  0.00     0.014 A 
ATOM     14  C   UNL d   1      29.156 -15.559  -0.605  0.00  0.00     0.038 A 
ATOM     15  C   UNL d   1      29.003 -15.512  -3.439  0.00  0.00     0.001 A 
ATOM     16  C   UNL d   1      29.112 -16.760  -2.701  0.00  0.00     0.002 A 
ATOM     17  C   UNL d   1      29.197 -16.833  -1.355  0.00  0.00     0.030 A 
ATOM     18  N   UNL d   1      29.170 -15.306   0.651  0.00  0.00    -0.385 N 
ATOM     19  C   UNL d   1      28.976 -13.839   0.882  0.00  0.00     0.155 A 
ATOM     20  H   UNL d   1      29.299 -16.033   1.355  0.00  0.00     0.160 HD
ENDBRANCH  10  11
ENDBRANCH   9  10
ENDBRANCH   5   9
BRANCH   6  21
ATOM     21  C   UNL d   1      25.905 -11.082  -5.110  0.00  0.00     0.049 A 
ATOM     22  C   UNL d   1      26.557 -11.446  -6.301  0.00  0.00     0.033 A 
ATOM     23  C   UNL d   1      26.849 -10.484  -7.272  0.00  0.00     0.044 A 
ATOM     24  C   UNL d   1      26.423  -9.174  -7.089  0.00  0.00     0.116 A 
ATOM     25  F   UNL d   1      26.622  -8.269  -8.054  0.00  0.00    -0.206 F 
ATOM     26  C   UNL d   1      25.782  -8.792  -5.921  0.00  0.00     0.044 A 
ATOM     27  C   UNL d   1      25.557  -9.738  -4.925  0.00  0.00     0.033 A 
ENDBRANCH   6  21
BRANCH   1  28
ATOM     28  C   UNL d   1      24.908 -15.630  -1.892  0.00  0.00     0.040 A 
ATOM     29  C   UNL d   1      23.584 -15.950  -1.568  0.00  0.00     0.054 A 
ATOM     30  C   UNL d   1      23.289 -17.113  -0.861  0.00  0.00     0.071 A 
ATOM     31  C   UNL d   1      24.340 -17.904  -0.387  0.00  0.00     0.073 A 
ATOM     32  C   UNL d   1      25.668 -17.600  -0.711  0.00  0.00     0.071 A 
ATOM     33  C   UNL d   1      25.953 -16.458  -1.461  0.00  0.00     0.054 A 
BRANCH  30  34
ATOM     34  O   UNL d   1      22.023 -17.581  -0.634  0.00  0.00    -0.356 OA
ATOM     35  C   UNL d   1      21.917 -18.973  -0.325  0.00  0.00     0.210 C 
ENDBRANCH  30  34
BRANCH  32  36
ATOM     36  O   UNL d   1      26.586 -18.556  -0.368  0.00  0.00    -0.356 OA
ATOM     37  C   UNL d   1      27.030 -18.571   0.980  0.00  0.00     0.210 C 
ENDBRANCH  32  36
ENDBRANCH   1  28
TORSDOF 7
ENDMDL
MODEL 9
REMARK VINA RESULT:    -6.866      3.961      7.744
REMARK INTER + INTRA:         -11.772
REMARK INTER:                  -8.954
REMARK INTRA:                  -2.818
REMARK CONF_INDEPENDENT:        2.088
REMARK UNBOUND:                -2.818
REMARK  7 active torsions:
REMARK  status: ('A' for Active; 'I' for Inactive)
REMARK    1  A    between atoms: O_2  and  C_3 
REMARK    2  A    between atoms: C_5  and  O_6 
REMARK    3  A    between atoms: C_9  and  C_10 
REMARK       I    between atoms: C_10  and  N_12 
REMARK       I    between atoms: C_13  and  N_14 
REMARK       I    between atoms: C_13  and  N_26 
REMARK    4  A    between atoms: N_14  and  C_15 
REMARK    5  A    between atoms: C_15  and  C_16 
REMARK    6  A    between atoms: C_16  and  C_17 
REMARK    7  A    between atoms: N_26  and  C_27 
ROOT
ATOM      1  C   UNL d   1      25.053 -14.238  -2.872  0.00  0.00     0.294 C 
ATOM      2  O   UNL d   1      24.443 -14.100  -3.920  0.00  0.00    -0.265 OA
ATOM      3  N   UNL d   1      25.915 -13.309  -2.327  0.00  0.00    -0.023 NA
ATOM      4  C   UNL d   1      26.051 -12.154  -2.912  0.00  0.00     0.704 C 
ATOM      5  N   UNL d   1      26.897 -11.229  -2.353  0.00  0.00    -0.224 N 
ATOM      6  N   UNL d   1      25.378 -11.725  -4.030  0.00  0.00    -0.190 N 
ATOM      7  H   UNL d   1      26.845 -10.287  -2.720  0.00  0.00     0.177 HD
ATOM      8  H   UNL d   1      24.781 -12.443  -4.452  0.00  0.00     0.184 HD
ENDROOT
BRANCH   5   9
ATOM      9  C   UNL d   1      27.583 -11.434  -1.103  0.00  0.00     0.142 C 
BRANCH   9  10
ATOM     10  C   UNL d   1      28.935 -12.081  -1.340  0.00  0.00     0.057 C 
BRANCH  10  11
ATOM     11  C   UNL d   1      28.937 -13.564  -1.541  0.00  0.00    -0.048 A 
ATOM     12  C   UNL d   1      29.013 -14.074  -2.769  0.00  0.00    -0.006 A 
ATOM     13  C   UNL d   1      29.091 -13.435  -4.032  0.00  0.00     0.014 A 
ATOM     14  C   UNL d   1      28.936 -15.530  -2.624  0.00  0.00     0.038 A 
ATOM     15  C   UNL d   1      28.969 -14.190  -5.126  0.00  0.00     0.001 A 
ATOM     16  C   UNL d   1      28.911 -15.641  -5.037  0.00  0.00     0.002 A 
ATOM     17  C   UNL d   1      28.902 -16.324  -3.872  0.00  0.00     0.030 A 
ATOM     18  N   UNL d   1      28.894 -15.876  -1.391  0.00  0.00    -0.385 N 
ATOM     19  C   UNL d   1      28.827 -14.660  -0.519  0.00  0.00     0.155 A 
ATOM     20  H   UNL d   1      28.907 -16.852  -1.094  0.00  0.00     0.160 HD
ENDBRANCH  10  11
ENDBRANCH   9  10
ENDBRANCH   5   9
BRANCH   6  21
ATOM     21  C   UNL d   1      25.609 -10.633  -4.884  0.00  0.00     0.049 A 
ATOM     22  C   UNL d   1      26.127 -10.861  -6.171  0.00  0.00     0.033 A 
ATOM     23  C   UNL d   1      26.320  -9.796  -7.056  0.00  0.00     0.044 A 
ATOM     24  C   UNL d   1      25.925  -8.516  -6.684  0.00  0.00     0.116 A 
ATOM     25  F   UNL d   1      26.026  -7.509  -7.559  0.00  0.00    -0.206 F 
ATOM     26  C   UNL d   1      25.415  -8.269  -5.419  0.00  0.00     0.044 A 
ATOM     27  C   UNL d   1      25.292  -9.320  -4.515  0.00  0.00     0.033 A 
ENDBRANCH   6  21
BRANCH   1  28
ATOM     28  C   UNL d   1      24.903 -15.515  -2.108  0.00  0.00     0.040 A 
ATOM     29  C   UNL d   1      26.068 -16.222  -1.788  0.00  0.00     0.054 A 
ATOM     30  C   UNL d   1      26.012 -17.345  -0.967  0.00  0.00     0.071 A 
ATOM     31  C   UNL d   1      24.765 -17.822  -0.553  0.00  0.00     0.073 A 
ATOM     32  C   UNL d   1      23.592 -17.121  -0.860  0.00  0.00     0.071 A 
ATOM     33  C   UNL d   1      23.661 -15.967  -1.643  0.00  0.00     0.054 A 
BRANCH  30  34
ATOM     34  O   UNL d   1      27.108 -18.005  -0.480  0.00  0.00    -0.356 OA
ATOM     35  C   UNL d   1      26.969 -18.572   0.825  0.00  0.00     0.210 C 
ENDBRANCH  30  34
BRANCH  32  36
ATOM     36  O   UNL d   1      22.462 -17.567  -0.229  0.00  0.00    -0.356 OA
ATOM     37  C   UNL d   1      21.701 -18.563  -0.894  0.00  0.00     0.210 C 
ENDBRANCH  32  36
ENDBRANCH   1  28
TORSDOF 7
ENDMDL
