MODEL 1
REMARK VINA RESULT:   -28.699      0.000      0.000
REMARK INTER + INTRA:         -30.868
REMARK INTER:                 -30.489
REMARK INTRA:                  -0.379
REMARK CONF_INDEPENDENT:        1.790
REMARK UNBOUND:                -0.379
REMARK  6 active torsions:
REMARK  status: ('A' for Active; 'I' for Inactive)
REMARK    1  A    between atoms: C_2  and  C_3 
REMARK    2  A    between atoms: C_3  and  N_4 
REMARK    3  A    between atoms: C_5  and  S_6 
REMARK    4  A    between atoms: S_6  and  C_7 
REMARK    5  A    between atoms: C_7  and  C_8 
REMARK       I    between atoms: C_8  and  N_10 
REMARK       I    between atoms: N_10  and  C_11 
REMARK       I    between atoms: C_11  and  N_13 
REMARK    6  A    between atoms: C_22  and  N_23 
ROOT
ATOM      1  N   UNL d   1      24.185 -18.182  -0.639  0.00  0.00    -0.308 N 
ATOM      2  C   UNL d   1      23.825 -16.820  -1.077  0.00  0.00     0.173 A 
ATOM      3  N   UNL d   1      22.575 -16.504  -1.277  0.00  0.00    -0.197 NA
ATOM      4  C   UNL d   1      21.661 -17.488  -1.058  0.00  0.00     0.212 A 
ATOM      5  O   UNL d   1      20.302 -17.369  -1.200  0.00  0.00    -0.192 OA
ATOM      6  N   UNL d   1      19.677 -18.577  -0.897  0.00  0.00    -0.130 NA
ATOM      7  C   UNL d   1      20.648 -19.441  -0.570  0.00  0.00     0.076 A 
ATOM      8  C   UNL d   1      20.280 -20.840  -0.191  0.00  0.00     0.074 C 
ATOM      9  C   UNL d   1      21.892 -18.778  -0.669  0.00  0.00     0.089 A 
ATOM     10  C   UNL d   1      23.257 -19.138  -0.476  0.00  0.00     0.120 A 
ENDROOT
BRANCH   2  11
ATOM     11  S   UNL d   1      25.012 -15.510  -1.397  0.00  0.00    -0.082 SA
BRANCH  11  12
ATOM     12  C   UNL d   1      24.736 -14.488  -2.917  0.00  0.00     0.185 C 
BRANCH  12  13
ATOM     13  C   UNL d   1      25.634 -14.783  -4.109  0.00  0.00     0.235 C 
ATOM     14  O   UNL d   1      25.132 -14.913  -5.222  0.00  0.00    -0.272 OA
ATOM     15  N   UNL d   1      27.014 -14.865  -3.832  0.00  0.00    -0.279 N 
ATOM     16  C   UNL d   1      27.917 -15.089  -4.847  0.00  0.00     0.322 C 
ATOM     17  H   UNL d   1      27.382 -14.738  -2.902  0.00  0.00     0.173 HD
ATOM     18  O   UNL d   1      27.582 -15.230  -6.022  0.00  0.00    -0.247 OA
ATOM     19  N   UNL d   1      29.248 -15.158  -4.498  0.00  0.00    -0.347 N 
ATOM     20  C   UNL d   1      30.238 -15.410  -5.547  0.00  0.00     0.151 C 
ATOM     21  H   UNL d   1      29.598 -15.048  -3.559  0.00  0.00     0.163 HD
ENDBRANCH  12  13
ENDBRANCH  11  12
ENDBRANCH   2  11
BRANCH   1  22
ATOM     22  C   UNL d   1      25.560 -18.565  -0.445  0.00  0.00     0.159 C 
BRANCH  22  23
ATOM     23  C   UNL d   1      26.255 -17.829   0.647  0.00  0.00    -0.017 C 
ATOM     24  C   UNL d   1      27.195 -16.912   0.381  0.00  0.00     0.008 C 
ENDBRANCH  22  23
ENDBRANCH   1  22
BRANCH  10  25
ATOM     25  N   UNL d   1      23.523 -20.387  -0.145  0.00  0.00    -0.384 N 
ATOM     26  H   UNL d   1      24.210 -20.942  -0.630  0.00  0.00     0.157 HD
ATOM     27  H   UNL d   1      23.037 -20.864   0.602  0.00  0.00     0.157 HD
ENDBRANCH  10  25
TORSDOF 6
ENDMDL
MODEL 2
REMARK VINA RESULT:   -28.060      2.051      2.409
REMARK INTER + INTRA:         -29.717
REMARK INTER:                 -29.850
REMARK INTRA:                   0.133
REMARK CONF_INDEPENDENT:        1.790
REMARK UNBOUND:                 0.133
REMARK  6 active torsions:
REMARK  status: ('A' for Active; 'I' for Inactive)
REMARK    1  A    between atoms: C_2  and  C_3 
REMARK    2  A    between atoms: C_3  and  N_4 
REMARK    3  A    between atoms: C_5  and  S_6 
REMARK    4  A    between atoms: S_6  and  C_7 
REMARK    5  A    between atoms: C_7  and  C_8 
REMARK       I    between atoms: C_8  and  N_10 
REMARK       I    between atoms: N_10  and  C_11 
REMARK       I    between atoms: C_11  and  N_13 
REMARK    6  A    between atoms: C_22  and  N_23 
ROOT
ATOM      1  N   UNL d   1      24.109 -18.075  -0.637  0.00  0.00    -0.308 N 
ATOM      2  C   UNL d   1      23.718 -16.721  -1.074  0.00  0.00     0.173 A 
ATOM      3  N   UNL d   1      22.460 -16.434  -1.274  0.00  0.00    -0.197 NA
ATOM      4  C   UNL d   1      21.569 -17.440  -1.055  0.00  0.00     0.212 A 
ATOM      5  O   UNL d   1      20.208 -17.353  -1.197  0.00  0.00    -0.192 OA
ATOM      6  N   UNL d   1      19.612 -18.575  -0.895  0.00  0.00    -0.130 NA
ATOM      7  C   UNL d   1      20.602 -19.416  -0.569  0.00  0.00     0.076 A 
ATOM      8  C   UNL d   1      20.267 -20.824  -0.191  0.00  0.00     0.074 C 
ATOM      9  C   UNL d   1      21.830 -18.725  -0.667  0.00  0.00     0.089 A 
ATOM     10  C   UNL d   1      23.204 -19.053  -0.475  0.00  0.00     0.120 A 
ENDROOT
BRANCH   2  11
ATOM     11  S   UNL d   1      24.873 -15.384  -1.393  0.00  0.00    -0.082 SA
BRANCH  11  12
ATOM     12  C   UNL d   1      25.444 -15.175  -3.142  0.00  0.00     0.185 C 
BRANCH  12  13
ATOM     13  C   UNL d   1      26.235 -13.913  -3.455  0.00  0.00     0.235 C 
ATOM     14  O   UNL d   1      27.374 -13.792  -3.011  0.00  0.00    -0.272 OA
ATOM     15  N   UNL d   1      25.582 -12.968  -4.272  0.00  0.00    -0.279 N 
ATOM     16  C   UNL d   1      26.224 -11.809  -4.647  0.00  0.00     0.322 C 
ATOM     17  H   UNL d   1      24.650 -13.118  -4.625  0.00  0.00     0.173 HD
ATOM     18  O   UNL d   1      27.372 -11.536  -4.299  0.00  0.00    -0.247 OA
ATOM     19  N   UNL d   1      25.521 -10.932  -5.445  0.00  0.00    -0.347 N 
ATOM     20  C   UNL d   1      26.164  -9.682  -5.853  0.00  0.00     0.151 C 
ATOM     21  H   UNL d   1      24.581 -11.089  -5.773  0.00  0.00     0.163 HD
ENDBRANCH  12  13
ENDBRANCH  11  12
ENDBRANCH   2  11
BRANCH   1  22
ATOM     22  C   UNL d   1      25.492 -18.426  -0.443  0.00  0.00     0.159 C 
BRANCH  22  23
ATOM     23  C   UNL d   1      26.349 -17.307   0.036  0.00  0.00    -0.017 C 
ATOM     24  C   UNL d   1      27.685 -17.379  -0.015  0.00  0.00     0.008 C 
ENDBRANCH  22  23
ENDBRANCH   1  22
BRANCH  10  25
ATOM     25  N   UNL d   1      23.499 -20.296  -0.145  0.00  0.00    -0.384 N 
ATOM     26  H   UNL d   1      24.357 -20.743  -0.427  0.00  0.00     0.157 HD
ATOM     27  H   UNL d   1      22.870 -20.876   0.393  0.00  0.00     0.157 HD
ENDBRANCH  10  25
TORSDOF 6
ENDMDL
