MODEL 1
REMARK VINA RESULT:    -9.096      0.000      0.000
REMARK INTER + INTRA:         -11.936
REMARK INTER:                 -10.885
REMARK INTRA:                  -1.051
REMARK CONF_INDEPENDENT:        1.790
REMARK UNBOUND:                -1.051
REMARK  6 active torsions:
REMARK  status: ('A' for Active; 'I' for Inactive)
REMARK    1  A    between atoms: C_11  and  C_12 
REMARK       I    between atoms: C_12  and  N_14 
REMARK    2  A    between atoms: N_14  and  C_15 
REMARK    3  A    between atoms: C_15  and  C_16 
REMARK    4  A    between atoms: C_22  and  N_23 
REMARK    5  A    between atoms: N_24  and  C_25 
REMARK    6  A    between atoms: C_25  and  C_26 
ROOT
ATOM      1  C   UNL d   1      30.468 -12.464  -8.766  0.00  0.00     0.052 C 
ATOM      2  C   UNL d   1      30.806 -13.700  -8.001  0.00  0.00    -0.015 A 
ATOM      3  C   UNL d   1      31.905 -14.426  -8.268  0.00  0.00     0.012 A 
ATOM      4  C   UNL d   1      32.217 -15.612  -7.524  0.00  0.00     0.018 A 
ATOM      5  C   UNL d   1      31.401 -16.010  -6.547  0.00  0.00     0.102 A 
ATOM      6  N   UNL d   1      30.245 -15.307  -6.217  0.00  0.00    -0.272 N 
ATOM      7  C   UNL d   1      29.465 -15.796  -5.185  0.00  0.00     0.267 A 
ATOM      8  O   UNL d   1      29.702 -16.816  -4.527  0.00  0.00    -0.267 OA
ATOM      9  C   UNL d   1      28.260 -15.036  -4.847  0.00  0.00     0.080 A 
ATOM     10  C   UNL d   1      27.443 -15.472  -3.811  0.00  0.00     0.042 C 
ATOM     11  C   UNL d   1      26.290 -14.762  -3.540  0.00  0.00     0.076 C 
ATOM     12  C   UNL d   1      25.945 -13.656  -4.356  0.00  0.00     0.118 C 
ATOM     13  N   UNL d   1      26.818 -13.175  -5.306  0.00  0.00    -0.312 N 
ATOM     14  C   UNL d   1      27.968 -13.883  -5.576  0.00  0.00     0.149 A 
ATOM     15  N   UNL d   1      28.807 -13.443  -6.612  0.00  0.00    -0.211 NA
ATOM     16  C   UNL d   1      29.879 -14.138  -6.896  0.00  0.00     0.145 A 
ENDROOT
BRANCH  11  17
ATOM     17  C   UNL d   1      25.329 -15.118  -2.428  0.00  0.00     0.255 C 
ATOM     18  O   UNL d   1      24.116 -14.984  -2.560  0.00  0.00    -0.268 OA
ATOM     19  N   UNL d   1      25.849 -15.557  -1.256  0.00  0.00    -0.353 N 
ATOM     20  H   UNL d   1      26.832 -15.716  -1.174  0.00  0.00     0.163 HD
BRANCH  19  21
ATOM     21  C   UNL d   1      24.993 -15.933  -0.146  0.00  0.00     0.161 C 
BRANCH  21  22
ATOM     22  C   UNL d   1      23.986 -16.988  -0.524  0.00  0.00    -0.041 C 
ATOM     23  C   UNL d   1      22.633 -16.690  -0.765  0.00  0.00     0.009 C 
ATOM     24  C   UNL d   1      21.688 -17.695  -0.895  0.00  0.00     0.001 C 
ATOM     25  C   UNL d   1      22.100 -19.016  -0.960  0.00  0.00     0.000 C 
ATOM     26  C   UNL d   1      23.457 -19.325  -0.895  0.00  0.00     0.001 C 
ATOM     27  C   UNL d   1      24.392 -18.325  -0.617  0.00  0.00     0.009 C 
ENDBRANCH  21  22
ENDBRANCH  19  21
ENDBRANCH  11  17
BRANCH  12  28
ATOM     28  N   UNL d   1      24.618 -13.265  -4.263  0.00  0.00    -0.384 N 
ATOM     29  H   UNL d   1      24.451 -12.300  -4.598  0.00  0.00     0.157 HD
ATOM     30  H   UNL d   1      23.813 -13.827  -4.432  0.00  0.00     0.157 HD
ENDBRANCH  12  28
BRANCH  13  31
ATOM     31  C   UNL d   1      26.583 -11.882  -6.095  0.00  0.00     0.171 C 
BRANCH  31  32
ATOM     32  C   UNL d   1      25.906 -10.728  -5.349  0.00  0.00    -0.040 C 
ATOM     33  C   UNL d   1      25.273  -9.684  -6.065  0.00  0.00     0.012 C 
ATOM     34  C   UNL d   1      25.170  -8.407  -5.481  0.00  0.00     0.043 C 
ATOM     35  C   UNL d   1      25.485  -8.228  -4.138  0.00  0.00     0.116 C 
ATOM     36  F   UNL d   1      25.491  -6.995  -3.617  0.00  0.00    -0.206 F 
ATOM     37  C   UNL d   1      25.900  -9.303  -3.360  0.00  0.00     0.043 C 
ATOM     38  C   UNL d   1      26.160 -10.539  -3.969  0.00  0.00     0.012 C 
ENDBRANCH  31  32
ENDBRANCH  13  31
TORSDOF 6
ENDMDL
MODEL 2
REMARK VINA RESULT:    -8.683      6.518      9.514
REMARK INTER + INTRA:         -12.078
REMARK INTER:                 -10.472
REMARK INTRA:                  -1.606
REMARK CONF_INDEPENDENT:        1.790
REMARK UNBOUND:                -1.606
REMARK  6 active torsions:
REMARK  status: ('A' for Active; 'I' for Inactive)
REMARK    1  A    between atoms: C_11  and  C_12 
REMARK       I    between atoms: C_12  and  N_14 
REMARK    2  A    between atoms: N_14  and  C_15 
REMARK    3  A    between atoms: C_15  and  C_16 
REMARK    4  A    between atoms: C_22  and  N_23 
REMARK    5  A    between atoms: N_24  and  C_25 
REMARK    6  A    between atoms: C_25  and  C_26 
ROOT
ATOM      1  C   UNL d   1      29.538  -9.995   8.146  0.00  0.00     0.052 C 
ATOM      2  C   UNL d   1      29.319 -11.470   8.211  0.00  0.00    -0.015 A 
ATOM      3  C   UNL d   1      29.419 -12.156   9.362  0.00  0.00     0.012 A 
ATOM      4  C   UNL d   1      29.206 -13.573   9.409  0.00  0.00     0.018 A 
ATOM      5  C   UNL d   1      28.905 -14.232   8.288  0.00  0.00     0.102 A 
ATOM      6  N   UNL d   1      28.786 -13.584   7.060  0.00  0.00    -0.272 N 
ATOM      7  C   UNL d   1      28.466 -14.352   5.956  0.00  0.00     0.267 A 
ATOM      8  O   UNL d   1      28.281 -15.575   5.959  0.00  0.00    -0.267 OA
ATOM      9  C   UNL d   1      28.334 -13.651   4.676  0.00  0.00     0.080 A 
ATOM     10  C   UNL d   1      28.003 -14.367   3.533  0.00  0.00     0.042 C 
ATOM     11  C   UNL d   1      27.927 -13.690   2.332  0.00  0.00     0.076 C 
ATOM     12  C   UNL d   1      28.246 -12.310   2.289  0.00  0.00     0.118 C 
ATOM     13  N   UNL d   1      28.467 -11.596   3.446  0.00  0.00    -0.312 N 
ATOM     14  C   UNL d   1      28.542 -12.272   4.644  0.00  0.00     0.149 A 
ATOM     15  N   UNL d   1      28.863 -11.555   5.807  0.00  0.00    -0.211 NA
ATOM     16  C   UNL d   1      28.975 -12.202   6.939  0.00  0.00     0.145 A 
ENDROOT
BRANCH  11  17
ATOM     17  C   UNL d   1      27.555 -14.347   1.022  0.00  0.00     0.255 C 
ATOM     18  O   UNL d   1      26.787 -13.810   0.229  0.00  0.00    -0.268 OA
ATOM     19  N   UNL d   1      28.066 -15.576   0.761  0.00  0.00    -0.353 N 
ATOM     20  H   UNL d   1      28.732 -15.982   1.384  0.00  0.00     0.163 HD
BRANCH  19  21
ATOM     21  C   UNL d   1      27.769 -16.266  -0.481  0.00  0.00     0.161 C 
BRANCH  21  22
ATOM     22  C   UNL d   1      26.337 -16.728  -0.558  0.00  0.00    -0.041 C 
ATOM     23  C   UNL d   1      25.383 -16.099  -1.376  0.00  0.00     0.009 C 
ATOM     24  C   UNL d   1      24.033 -16.397  -1.267  0.00  0.00     0.001 C 
ATOM     25  C   UNL d   1      23.630 -17.450  -0.462  0.00  0.00     0.000 C 
ATOM     26  C   UNL d   1      24.579 -18.200   0.230  0.00  0.00     0.001 C 
ATOM     27  C   UNL d   1      25.919 -17.805   0.233  0.00  0.00     0.009 C 
ENDBRANCH  21  22
ENDBRANCH  19  21
ENDBRANCH  11  17
BRANCH  12  28
ATOM     28  N   UNL d   1      28.521 -11.823   1.020  0.00  0.00    -0.384 N 
ATOM     29  H   UNL d   1      29.534 -11.703   0.839  0.00  0.00     0.157 HD
ATOM     30  H   UNL d   1      28.049 -12.051   0.174  0.00  0.00     0.157 HD
ENDBRANCH  12  28
BRANCH  13  31
ATOM     31  C   UNL d   1      28.639 -10.074   3.482  0.00  0.00     0.171 C 
BRANCH  31  32
ATOM     32  C   UNL d   1      27.512  -9.234   2.873  0.00  0.00    -0.040 C 
ATOM     33  C   UNL d   1      26.158  -9.602   3.065  0.00  0.00     0.012 C 
ATOM     34  C   UNL d   1      25.198  -9.232   2.105  0.00  0.00     0.043 C 
ATOM     35  C   UNL d   1      25.530  -8.332   1.098  0.00  0.00     0.116 C 
ATOM     36  F   UNL d   1      24.647  -8.069   0.126  0.00  0.00    -0.206 F 
ATOM     37  C   UNL d   1      26.807  -7.787   1.030  0.00  0.00     0.043 C 
ATOM     38  C   UNL d   1      27.812  -8.271   1.880  0.00  0.00     0.012 C 
ENDBRANCH  31  32
ENDBRANCH  13  31
TORSDOF 6
ENDMDL
MODEL 3
REMARK VINA RESULT:    -8.592      3.757      6.089
REMARK INTER + INTRA:         -11.597
REMARK INTER:                 -10.382
REMARK INTRA:                  -1.215
REMARK CONF_INDEPENDENT:        1.790
REMARK UNBOUND:                -1.215
REMARK  6 active torsions:
REMARK  status: ('A' for Active; 'I' for Inactive)
REMARK    1  A    between atoms: C_11  and  C_12 
REMARK       I    between atoms: C_12  and  N_14 
REMARK    2  A    between atoms: N_14  and  C_15 
REMARK    3  A    between atoms: C_15  and  C_16 
REMARK    4  A    between atoms: C_22  and  N_23 
REMARK    5  A    between atoms: N_24  and  C_25 
REMARK    6  A    between atoms: C_25  and  C_26 
ROOT
ATOM      1  C   UNL d   1      33.958 -14.637  -8.124  0.00  0.00     0.052 C 
ATOM      2  C   UNL d   1      32.878 -13.700  -8.555  0.00  0.00    -0.015 A 
ATOM      3  C   UNL d   1      33.072 -12.784  -9.519  0.00  0.00     0.012 A 
ATOM      4  C   UNL d   1      32.025 -11.890  -9.922  0.00  0.00     0.018 A 
ATOM      5  C   UNL d   1      30.831 -11.964  -9.331  0.00  0.00     0.102 A 
ATOM      6  N   UNL d   1      30.561 -12.889  -8.324  0.00  0.00    -0.272 N 
ATOM      7  C   UNL d   1      29.292 -12.892  -7.776  0.00  0.00     0.267 A 
ATOM      8  O   UNL d   1      28.369 -12.133  -8.096  0.00  0.00    -0.267 OA
ATOM      9  C   UNL d   1      29.025 -13.879  -6.727  0.00  0.00     0.080 A 
ATOM     10  C   UNL d   1      27.765 -13.937  -6.146  0.00  0.00     0.042 C 
ATOM     11  C   UNL d   1      27.551 -14.849  -5.130  0.00  0.00     0.076 C 
ATOM     12  C   UNL d   1      28.629 -15.647  -4.672  0.00  0.00     0.118 C 
ATOM     13  N   UNL d   1      29.838 -15.652  -5.331  0.00  0.00    -0.312 N 
ATOM     14  C   UNL d   1      30.051 -14.743  -6.344  0.00  0.00     0.149 A 
ATOM     15  N   UNL d   1      31.317 -14.686  -6.948  0.00  0.00    -0.211 NA
ATOM     16  C   UNL d   1      31.533 -13.796  -7.882  0.00  0.00     0.145 A 
ENDROOT
BRANCH  11  17
ATOM     17  C   UNL d   1      26.222 -15.027  -4.431  0.00  0.00     0.255 C 
ATOM     18  O   UNL d   1      25.246 -15.486  -5.016  0.00  0.00    -0.268 OA
ATOM     19  N   UNL d   1      26.125 -14.625  -3.140  0.00  0.00    -0.353 N 
ATOM     20  H   UNL d   1      26.937 -14.304  -2.655  0.00  0.00     0.163 HD
BRANCH  19  21
ATOM     21  C   UNL d   1      24.889 -14.776  -2.395  0.00  0.00     0.161 C 
BRANCH  21  22
ATOM     22  C   UNL d   1      24.865 -16.032  -1.563  0.00  0.00    -0.041 C 
ATOM     23  C   UNL d   1      23.675 -16.720  -1.267  0.00  0.00     0.009 C 
ATOM     24  C   UNL d   1      23.649 -17.739  -0.327  0.00  0.00     0.001 C 
ATOM     25  C   UNL d   1      24.838 -18.206   0.208  0.00  0.00     0.000 C 
ATOM     26  C   UNL d   1      26.050 -17.651  -0.201  0.00  0.00     0.001 C 
ATOM     27  C   UNL d   1      26.062 -16.530  -1.035  0.00  0.00     0.009 C 
ENDBRANCH  21  22
ENDBRANCH  19  21
ENDBRANCH  11  17
BRANCH  12  28
ATOM     28  N   UNL d   1      28.428 -16.225  -3.428  0.00  0.00    -0.384 N 
ATOM     29  H   UNL d   1      28.819 -15.665  -2.650  0.00  0.00     0.157 HD
ATOM     30  H   UNL d   1      27.622 -16.720  -3.119  0.00  0.00     0.157 HD
ENDBRANCH  12  28
BRANCH  13  31
ATOM     31  C   UNL d   1      30.980 -16.619  -4.999  0.00  0.00     0.171 C 
BRANCH  31  32
ATOM     32  C   UNL d   1      31.237 -17.756  -5.993  0.00  0.00    -0.040 C 
ATOM     33  C   UNL d   1      31.976 -17.521  -7.178  0.00  0.00     0.012 C 
ATOM     34  C   UNL d   1      31.742 -18.323  -8.310  0.00  0.00     0.043 C 
ATOM     35  C   UNL d   1      30.960 -19.468  -8.204  0.00  0.00     0.116 C 
ATOM     36  F   UNL d   1      30.651 -20.165  -9.304  0.00  0.00    -0.206 F 
ATOM     37  C   UNL d   1      30.405 -19.834  -6.982  0.00  0.00     0.043 C 
ATOM     38  C   UNL d   1      30.497 -18.958  -5.890  0.00  0.00     0.012 C 
ENDBRANCH  31  32
ENDBRANCH  13  31
TORSDOF 6
ENDMDL
MODEL 4
REMARK VINA RESULT:    -8.516      1.470      2.177
REMARK INTER + INTRA:         -11.738
REMARK INTER:                 -10.306
REMARK INTRA:                  -1.432
REMARK CONF_INDEPENDENT:        1.790
REMARK UNBOUND:                -1.432
REMARK  6 active torsions:
REMARK  status: ('A' for Active; 'I' for Inactive)
REMARK    1  A    between atoms: C_11  and  C_12 
REMARK       I    between atoms: C_12  and  N_14 
REMARK    2  A    between atoms: N_14  and  C_15 
REMARK    3  A    between atoms: C_15  and  C_16 
REMARK    4  A    between atoms: C_22  and  N_23 
REMARK    5  A    between atoms: N_24  and  C_25 
REMARK    6  A    between atoms: C_25  and  C_26 
ROOT
ATOM      1  C   UNL d   1      31.824 -11.427  -9.087  0.00  0.00     0.052 C 
ATOM      2  C   UNL d   1      31.846 -12.851  -8.640  0.00  0.00    -0.015 A 
ATOM      3  C   UNL d   1      32.828 -13.695  -8.999  0.00  0.00     0.012 A 
ATOM      4  C   UNL d   1      32.837 -15.061  -8.563  0.00  0.00     0.018 A 
ATOM      5  C   UNL d   1      31.851 -15.511  -7.785  0.00  0.00     0.102 A 
ATOM      6  N   UNL d   1      30.801 -14.691  -7.375  0.00  0.00    -0.272 N 
ATOM      7  C   UNL d   1      29.828 -15.246  -6.565  0.00  0.00     0.267 A 
ATOM      8  O   UNL d   1      29.802 -16.420  -6.174  0.00  0.00    -0.267 OA
ATOM      9  C   UNL d   1      28.739 -14.365  -6.136  0.00  0.00     0.080 A 
ATOM     10  C   UNL d   1      27.738 -14.864  -5.312  0.00  0.00     0.042 C 
ATOM     11  C   UNL d   1      26.701 -14.024  -4.956  0.00  0.00     0.076 C 
ATOM     12  C   UNL d   1      26.655 -12.711  -5.486  0.00  0.00     0.118 C 
ATOM     13  N   UNL d   1      27.708 -12.201  -6.212  0.00  0.00    -0.312 N 
ATOM     14  C   UNL d   1      28.743 -13.038  -6.566  0.00  0.00     0.149 A 
ATOM     15  N   UNL d   1      29.767 -12.540  -7.388  0.00  0.00    -0.211 NA
ATOM     16  C   UNL d   1      30.729 -13.345  -7.758  0.00  0.00     0.145 A 
ENDROOT
BRANCH  11  17
ATOM     17  C   UNL d   1      25.563 -14.437  -4.049  0.00  0.00     0.255 C 
ATOM     18  O   UNL d   1      24.393 -14.216  -4.346  0.00  0.00    -0.268 OA
ATOM     19  N   UNL d   1      25.875 -15.028  -2.869  0.00  0.00    -0.353 N 
ATOM     20  H   UNL d   1      26.825 -15.253  -2.660  0.00  0.00     0.163 HD
BRANCH  19  21
ATOM     21  C   UNL d   1      24.840 -15.466  -1.951  0.00  0.00     0.161 C 
BRANCH  21  22
ATOM     22  C   UNL d   1      25.337 -16.496  -0.969  0.00  0.00    -0.041 C 
ATOM     23  C   UNL d   1      26.619 -16.439  -0.398  0.00  0.00     0.009 C 
ATOM     24  C   UNL d   1      27.132 -17.504   0.326  0.00  0.00     0.001 C 
ATOM     25  C   UNL d   1      26.312 -18.575   0.639  0.00  0.00     0.000 C 
ATOM     26  C   UNL d   1      24.981 -18.575   0.226  0.00  0.00     0.001 C 
ATOM     27  C   UNL d   1      24.510 -17.572  -0.626  0.00  0.00     0.009 C 
ENDBRANCH  21  22
ENDBRANCH  19  21
ENDBRANCH  11  17
BRANCH  12  28
ATOM     28  N   UNL d   1      25.414 -12.099  -5.397  0.00  0.00    -0.384 N 
ATOM     29  H   UNL d   1      24.643 -12.681  -5.769  0.00  0.00     0.157 HD
ATOM     30  H   UNL d   1      25.079 -11.525  -4.655  0.00  0.00     0.157 HD
ENDBRANCH  12  28
BRANCH  13  31
ATOM     31  C   UNL d   1      27.799 -10.738  -6.659  0.00  0.00     0.171 C 
BRANCH  31  32
ATOM     32  C   UNL d   1      27.269  -9.681  -5.684  0.00  0.00    -0.040 C 
ATOM     33  C   UNL d   1      27.923  -9.450  -4.450  0.00  0.00     0.012 C 
ATOM     34  C   UNL d   1      27.186  -8.955  -3.358  0.00  0.00     0.043 C 
ATOM     35  C   UNL d   1      25.888  -8.491  -3.546  0.00  0.00     0.116 C 
ATOM     36  F   UNL d   1      25.155  -8.124  -2.488  0.00  0.00    -0.206 F 
ATOM     37  C   UNL d   1      25.308  -8.508  -4.810  0.00  0.00     0.043 C 
ATOM     38  C   UNL d   1      25.971  -9.146  -5.868  0.00  0.00     0.012 C 
ENDBRANCH  31  32
ENDBRANCH  13  31
TORSDOF 6
ENDMDL
MODEL 5
REMARK VINA RESULT:    -8.512      5.297      8.255
REMARK INTER + INTRA:         -11.862
REMARK INTER:                 -10.302
REMARK INTRA:                  -1.560
REMARK CONF_INDEPENDENT:        1.790
REMARK UNBOUND:                -1.560
REMARK  6 active torsions:
REMARK  status: ('A' for Active; 'I' for Inactive)
REMARK    1  A    between atoms: C_11  and  C_12 
REMARK       I    between atoms: C_12  and  N_14 
REMARK    2  A    between atoms: N_14  and  C_15 
REMARK    3  A    between atoms: C_15  and  C_16 
REMARK    4  A    between atoms: C_22  and  N_23 
REMARK    5  A    between atoms: N_24  and  C_25 
REMARK    6  A    between atoms: C_25  and  C_26 
ROOT
ATOM      1  C   UNL d   1      25.962 -12.452  -5.011  0.00  0.00     0.052 C 
ATOM      2  C   UNL d   1      26.157 -11.344  -4.030  0.00  0.00    -0.015 A 
ATOM      3  C   UNL d   1      25.906 -10.062  -4.342  0.00  0.00     0.012 A 
ATOM      4  C   UNL d   1      26.098  -9.008  -3.388  0.00  0.00     0.018 A 
ATOM      5  C   UNL d   1      26.537  -9.300  -2.163  0.00  0.00     0.102 A 
ATOM      6  N   UNL d   1      26.818 -10.608  -1.771  0.00  0.00    -0.272 N 
ATOM      7  C   UNL d   1      27.263 -10.812  -0.478  0.00  0.00     0.267 A 
ATOM      8  O   UNL d   1      27.445  -9.927   0.367  0.00  0.00    -0.267 OA
ATOM      9  C   UNL d   1      27.542 -12.194  -0.083  0.00  0.00     0.080 A 
ATOM     10  C   UNL d   1      27.981 -12.462   1.208  0.00  0.00     0.042 C 
ATOM     11  C   UNL d   1      28.277 -13.769   1.543  0.00  0.00     0.076 C 
ATOM     12  C   UNL d   1      28.184 -14.780   0.554  0.00  0.00     0.118 C 
ATOM     13  N   UNL d   1      27.645 -14.514  -0.685  0.00  0.00    -0.312 N 
ATOM     14  C   UNL d   1      27.350 -13.210  -1.019  0.00  0.00     0.149 A 
ATOM     15  N   UNL d   1      26.892 -12.930  -2.316  0.00  0.00    -0.211 NA
ATOM     16  C   UNL d   1      26.649 -11.688  -2.647  0.00  0.00     0.145 A 
ENDROOT
BRANCH  11  17
ATOM     17  C   UNL d   1      28.743 -14.197   2.917  0.00  0.00     0.255 C 
ATOM     18  O   UNL d   1      29.934 -14.347   3.172  0.00  0.00    -0.268 OA
ATOM     19  N   UNL d   1      27.800 -14.450   3.856  0.00  0.00    -0.353 N 
ATOM     20  H   UNL d   1      26.837 -14.273   3.658  0.00  0.00     0.163 HD
BRANCH  19  21
ATOM     21  C   UNL d   1      28.166 -14.849   5.203  0.00  0.00     0.161 C 
BRANCH  21  22
ATOM     22  C   UNL d   1      28.407 -13.671   6.110  0.00  0.00    -0.041 C 
ATOM     23  C   UNL d   1      28.995 -13.802   7.380  0.00  0.00     0.009 C 
ATOM     24  C   UNL d   1      29.006 -12.747   8.280  0.00  0.00     0.001 C 
ATOM     25  C   UNL d   1      28.585 -11.494   7.868  0.00  0.00     0.000 C 
ATOM     26  C   UNL d   1      28.156 -11.301   6.556  0.00  0.00     0.001 C 
ATOM     27  C   UNL d   1      28.007 -12.394   5.698  0.00  0.00     0.009 C 
ENDBRANCH  21  22
ENDBRANCH  19  21
ENDBRANCH  11  17
BRANCH  12  28
ATOM     28  N   UNL d   1      28.861 -15.950   0.863  0.00  0.00    -0.384 N 
ATOM     29  H   UNL d   1      29.633 -15.810   1.537  0.00  0.00     0.157 HD
ATOM     30  H   UNL d   1      28.468 -16.858   0.980  0.00  0.00     0.157 HD
ENDBRANCH  12  28
BRANCH  13  31
ATOM     31  C   UNL d   1      27.352 -15.594  -1.732  0.00  0.00     0.171 C 
BRANCH  31  32
ATOM     32  C   UNL d   1      26.229 -16.585  -1.409  0.00  0.00    -0.040 C 
ATOM     33  C   UNL d   1      24.917 -16.367  -1.894  0.00  0.00     0.012 C 
ATOM     34  C   UNL d   1      23.820 -16.888  -1.183  0.00  0.00     0.043 C 
ATOM     35  C   UNL d   1      24.029 -17.790  -0.144  0.00  0.00     0.116 C 
ATOM     36  F   UNL d   1      22.991 -18.197   0.598  0.00  0.00    -0.206 F 
ATOM     37  C   UNL d   1      25.316 -18.187   0.199  0.00  0.00     0.043 C 
ATOM     38  C   UNL d   1      26.418 -17.552  -0.393  0.00  0.00     0.012 C 
ENDBRANCH  31  32
ENDBRANCH  13  31
TORSDOF 6
ENDMDL
MODEL 6
REMARK VINA RESULT:    -8.470      5.124      7.923
REMARK INTER + INTRA:         -11.861
REMARK INTER:                 -10.260
REMARK INTRA:                  -1.601
REMARK CONF_INDEPENDENT:        1.790
REMARK UNBOUND:                -1.601
REMARK  6 active torsions:
REMARK  status: ('A' for Active; 'I' for Inactive)
REMARK    1  A    between atoms: C_11  and  C_12 
REMARK       I    between atoms: C_12  and  N_14 
REMARK    2  A    between atoms: N_14  and  C_15 
REMARK    3  A    between atoms: C_15  and  C_16 
REMARK    4  A    between atoms: C_22  and  N_23 
REMARK    5  A    between atoms: N_24  and  C_25 
REMARK    6  A    between atoms: C_25  and  C_26 
ROOT
ATOM      1  C   UNL d   1      27.221 -15.211  -5.076  0.00  0.00     0.052 C 
ATOM      2  C   UNL d   1      27.124 -13.761  -4.737  0.00  0.00    -0.015 A 
ATOM      3  C   UNL d   1      27.035 -12.811  -5.684  0.00  0.00     0.012 A 
ATOM      4  C   UNL d   1      26.942 -11.421  -5.343  0.00  0.00     0.018 A 
ATOM      5  C   UNL d   1      26.946 -11.056  -4.059  0.00  0.00     0.102 A 
ATOM      6  N   UNL d   1      27.036 -11.987  -3.026  0.00  0.00    -0.272 N 
ATOM      7  C   UNL d   1      27.028 -11.512  -1.728  0.00  0.00     0.267 A 
ATOM      8  O   UNL d   1      26.954 -10.321  -1.399  0.00  0.00    -0.267 OA
ATOM      9  C   UNL d   1      27.112 -12.507  -0.657  0.00  0.00     0.080 A 
ATOM     10  C   UNL d   1      27.097 -12.090   0.668  0.00  0.00     0.042 C 
ATOM     11  C   UNL d   1      27.221 -13.045   1.659  0.00  0.00     0.076 C 
ATOM     12  C   UNL d   1      27.420 -14.401   1.298  0.00  0.00     0.118 C 
ATOM     13  N   UNL d   1      27.325 -14.808  -0.014  0.00  0.00    -0.312 N 
ATOM     14  C   UNL d   1      27.201 -13.856  -1.002  0.00  0.00     0.149 A 
ATOM     15  N   UNL d   1      27.202 -14.267  -2.344  0.00  0.00    -0.211 NA
ATOM     16  C   UNL d   1      27.125 -13.361  -3.283  0.00  0.00     0.145 A 
ENDROOT
BRANCH  11  17
ATOM     17  C   UNL d   1      27.197 -12.726   3.137  0.00  0.00     0.255 C 
ATOM     18  O   UNL d   1      26.658 -13.475   3.946  0.00  0.00    -0.268 OA
ATOM     19  N   UNL d   1      27.757 -11.560   3.544  0.00  0.00    -0.353 N 
ATOM     20  H   UNL d   1      28.240 -10.983   2.888  0.00  0.00     0.163 HD
BRANCH  19  21
ATOM     21  C   UNL d   1      27.787 -11.189   4.947  0.00  0.00     0.161 C 
BRANCH  21  22
ATOM     22  C   UNL d   1      28.588 -12.154   5.782  0.00  0.00    -0.041 C 
ATOM     23  C   UNL d   1      29.319 -13.214   5.221  0.00  0.00     0.009 C 
ATOM     24  C   UNL d   1      29.864 -14.211   6.015  0.00  0.00     0.001 C 
ATOM     25  C   UNL d   1      29.837 -14.078   7.393  0.00  0.00     0.000 C 
ATOM     26  C   UNL d   1      29.265 -12.947   7.971  0.00  0.00     0.001 C 
ATOM     27  C   UNL d   1      28.589 -12.018   7.176  0.00  0.00     0.009 C 
ENDBRANCH  21  22
ENDBRANCH  19  21
ENDBRANCH  11  17
BRANCH  12  28
ATOM     28  N   UNL d   1      27.916 -15.199   2.317  0.00  0.00    -0.384 N 
ATOM     29  H   UNL d   1      28.951 -15.215   2.358  0.00  0.00     0.157 HD
ATOM     30  H   UNL d   1      27.539 -15.308   3.232  0.00  0.00     0.157 HD
ENDBRANCH  12  28
BRANCH  13  31
ATOM     31  C   UNL d   1      27.352 -16.277  -0.449  0.00  0.00     0.171 C 
BRANCH  31  32
ATOM     32  C   UNL d   1      25.999 -16.950  -0.701  0.00  0.00    -0.040 C 
ATOM     33  C   UNL d   1      25.014 -16.308  -1.490  0.00  0.00     0.012 C 
ATOM     34  C   UNL d   1      23.654 -16.596  -1.270  0.00  0.00     0.043 C 
ATOM     35  C   UNL d   1      23.291 -17.656  -0.444  0.00  0.00     0.116 C 
ATOM     36  F   UNL d   1      22.000 -17.856  -0.152  0.00  0.00    -0.206 F 
ATOM     37  C   UNL d   1      24.263 -18.440   0.166  0.00  0.00     0.043 C 
ATOM     38  C   UNL d   1      25.611 -18.063   0.083  0.00  0.00     0.012 C 
ENDBRANCH  31  32
ENDBRANCH  13  31
TORSDOF 6
ENDMDL
MODEL 7
REMARK VINA RESULT:    -8.348      6.900      9.927
REMARK INTER + INTRA:         -11.577
REMARK INTER:                 -10.138
REMARK INTRA:                  -1.439
REMARK CONF_INDEPENDENT:        1.790
REMARK UNBOUND:                -1.439
REMARK  6 active torsions:
REMARK  status: ('A' for Active; 'I' for Inactive)
REMARK    1  A    between atoms: C_11  and  C_12 
REMARK       I    between atoms: C_12  and  N_14 
REMARK    2  A    between atoms: N_14  and  C_15 
REMARK    3  A    between atoms: C_15  and  C_16 
REMARK    4  A    between atoms: C_22  and  N_23 
REMARK    5  A    between atoms: N_24  and  C_25 
REMARK    6  A    between atoms: C_25  and  C_26 
ROOT
ATOM      1  C   UNL d   1      26.723  -9.463  -1.787  0.00  0.00     0.052 C 
ATOM      2  C   UNL d   1      26.554  -8.845  -0.439  0.00  0.00    -0.015 A 
ATOM      3  C   UNL d   1      26.104  -7.588  -0.282  0.00  0.00     0.012 A 
ATOM      4  C   UNL d   1      25.946  -7.007   1.020  0.00  0.00     0.018 A 
ATOM      5  C   UNL d   1      26.254  -7.724   2.102  0.00  0.00     0.102 A 
ATOM      6  N   UNL d   1      26.726  -9.032   2.013  0.00  0.00    -0.272 N 
ATOM      7  C   UNL d   1      27.012  -9.695   3.192  0.00  0.00     0.267 A 
ATOM      8  O   UNL d   1      26.893  -9.223   4.330  0.00  0.00    -0.267 OA
ATOM      9  C   UNL d   1      27.496 -11.073   3.077  0.00  0.00     0.080 A 
ATOM     10  C   UNL d   1      27.790 -11.794   4.228  0.00  0.00     0.042 C 
ATOM     11  C   UNL d   1      28.285 -13.076   4.091  0.00  0.00     0.076 C 
ATOM     12  C   UNL d   1      28.535 -13.592   2.795  0.00  0.00     0.118 C 
ATOM     13  N   UNL d   1      28.138 -12.905   1.669  0.00  0.00    -0.312 N 
ATOM     14  C   UNL d   1      27.644 -11.627   1.806  0.00  0.00     0.149 A 
ATOM     15  N   UNL d   1      27.331 -10.894   0.650  0.00  0.00    -0.211 NA
ATOM     16  C   UNL d   1      26.900  -9.666   0.777  0.00  0.00     0.145 A 
ENDROOT
BRANCH  11  17
ATOM     17  C   UNL d   1      28.624 -13.972   5.262  0.00  0.00     0.255 C 
ATOM     18  O   UNL d   1      28.043 -15.038   5.442  0.00  0.00    -0.268 OA
ATOM     19  N   UNL d   1      29.567 -13.544   6.137  0.00  0.00    -0.353 N 
ATOM     20  H   UNL d   1      30.073 -12.703   5.953  0.00  0.00     0.163 HD
BRANCH  19  21
ATOM     21  C   UNL d   1      29.958 -14.353   7.277  0.00  0.00     0.161 C 
BRANCH  21  22
ATOM     22  C   UNL d   1      29.276 -13.926   8.550  0.00  0.00    -0.041 C 
ATOM     23  C   UNL d   1      29.015 -14.818   9.604  0.00  0.00     0.009 C 
ATOM     24  C   UNL d   1      28.198 -14.458  10.665  0.00  0.00     0.001 C 
ATOM     25  C   UNL d   1      27.767 -13.147  10.781  0.00  0.00     0.000 C 
ATOM     26  C   UNL d   1      28.155 -12.201   9.835  0.00  0.00     0.001 C 
ATOM     27  C   UNL d   1      28.854 -12.598   8.692  0.00  0.00     0.009 C 
ENDBRANCH  21  22
ENDBRANCH  19  21
ENDBRANCH  11  17
BRANCH  12  28
ATOM     28  N   UNL d   1      29.377 -14.693   2.768  0.00  0.00    -0.384 N 
ATOM     29  H   UNL d   1      29.276 -15.306   3.596  0.00  0.00     0.157 HD
ATOM     30  H   UNL d   1      29.628 -15.237   1.972  0.00  0.00     0.157 HD
ENDBRANCH  12  28
BRANCH  13  31
ATOM     31  C   UNL d   1      28.216 -13.485   0.253  0.00  0.00     0.171 C 
BRANCH  31  32
ATOM     32  C   UNL d   1      27.049 -14.368  -0.200  0.00  0.00    -0.040 C 
ATOM     33  C   UNL d   1      26.885 -15.669   0.333  0.00  0.00     0.012 C 
ATOM     34  C   UNL d   1      26.232 -16.654  -0.432  0.00  0.00     0.043 C 
ATOM     35  C   UNL d   1      25.564 -16.299  -1.599  0.00  0.00     0.116 C 
ATOM     36  F   UNL d   1      25.039 -17.253  -2.378  0.00  0.00    -0.206 F 
ATOM     37  C   UNL d   1      25.531 -14.975  -2.020  0.00  0.00     0.043 C 
ATOM     38  C   UNL d   1      26.311 -14.017  -1.355  0.00  0.00     0.012 C 
ENDBRANCH  31  32
ENDBRANCH  13  31
TORSDOF 6
ENDMDL
MODEL 8
REMARK VINA RESULT:    -8.165      3.121      8.540
REMARK INTER + INTRA:         -11.520
REMARK INTER:                  -9.954
REMARK INTRA:                  -1.565
REMARK CONF_INDEPENDENT:        1.790
REMARK UNBOUND:                -1.565
REMARK  6 active torsions:
REMARK  status: ('A' for Active; 'I' for Inactive)
REMARK    1  A    between atoms: C_11  and  C_12 
REMARK       I    between atoms: C_12  and  N_14 
REMARK    2  A    between atoms: N_14  and  C_15 
REMARK    3  A    between atoms: C_15  and  C_16 
REMARK    4  A    between atoms: C_22  and  N_23 
REMARK    5  A    between atoms: N_24  and  C_25 
REMARK    6  A    between atoms: C_25  and  C_26 
ROOT
ATOM      1  C   UNL d   1      27.596 -18.201  -0.128  0.00  0.00     0.052 C 
ATOM      2  C   UNL d   1      26.237 -17.660  -0.425  0.00  0.00    -0.015 A 
ATOM      3  C   UNL d   1      25.128 -18.171   0.135  0.00  0.00     0.012 A 
ATOM      4  C   UNL d   1      23.828 -17.642  -0.160  0.00  0.00     0.018 A 
ATOM      5  C   UNL d   1      23.710 -16.620  -1.010  0.00  0.00     0.102 A 
ATOM      6  N   UNL d   1      24.818 -16.042  -1.627  0.00  0.00    -0.272 N 
ATOM      7  C   UNL d   1      24.595 -14.984  -2.489  0.00  0.00     0.267 A 
ATOM      8  O   UNL d   1      23.489 -14.506  -2.770  0.00  0.00    -0.267 OA
ATOM      9  C   UNL d   1      25.772 -14.383  -3.120  0.00  0.00     0.080 A 
ATOM     10  C   UNL d   1      25.612 -13.309  -3.987  0.00  0.00     0.042 C 
ATOM     11  C   UNL d   1      26.734 -12.788  -4.601  0.00  0.00     0.076 C 
ATOM     12  C   UNL d   1      27.996 -13.395  -4.379  0.00  0.00     0.118 C 
ATOM     13  N   UNL d   1      28.150 -14.386  -3.436  0.00  0.00    -0.312 N 
ATOM     14  C   UNL d   1      27.031 -14.906  -2.824  0.00  0.00     0.149 A 
ATOM     15  N   UNL d   1      27.183 -15.982  -1.935  0.00  0.00    -0.211 NA
ATOM     16  C   UNL d   1      26.117 -16.503  -1.384  0.00  0.00     0.145 A 
ENDROOT
BRANCH  11  17
ATOM     17  C   UNL d   1      26.699 -11.608  -5.547  0.00  0.00     0.255 C 
ATOM     18  O   UNL d   1      27.645 -11.350  -6.285  0.00  0.00    -0.268 OA
ATOM     19  N   UNL d   1      25.601 -10.814  -5.530  0.00  0.00    -0.353 N 
ATOM     20  H   UNL d   1      24.814 -11.062  -4.967  0.00  0.00     0.163 HD
BRANCH  19  21
ATOM     21  C   UNL d   1      25.484  -9.672  -6.418  0.00  0.00     0.161 C 
BRANCH  21  22
ATOM     22  C   UNL d   1      24.776  -8.509  -5.775  0.00  0.00    -0.041 C 
ATOM     23  C   UNL d   1      23.477  -8.117  -6.141  0.00  0.00     0.009 C 
ATOM     24  C   UNL d   1      22.934  -6.921  -5.697  0.00  0.00     0.001 C 
ATOM     25  C   UNL d   1      23.608  -6.179  -4.742  0.00  0.00     0.000 C 
ATOM     26  C   UNL d   1      24.823  -6.636  -4.235  0.00  0.00     0.001 C 
ATOM     27  C   UNL d   1      25.436  -7.761  -4.791  0.00  0.00     0.009 C 
ENDBRANCH  21  22
ENDBRANCH  19  21
ENDBRANCH  11  17
BRANCH  12  28
ATOM     28  N   UNL d   1      28.964 -13.066  -5.315  0.00  0.00    -0.384 N 
ATOM     29  H   UNL d   1      28.697 -13.312  -6.284  0.00  0.00     0.157 HD
ATOM     30  H   UNL d   1      29.546 -12.258  -5.318  0.00  0.00     0.157 HD
ENDBRANCH  12  28
BRANCH  13  31
ATOM     31  C   UNL d   1      29.511 -14.957  -3.022  0.00  0.00     0.171 C 
BRANCH  31  32
ATOM     32  C   UNL d   1      30.139 -15.996  -3.957  0.00  0.00    -0.040 C 
ATOM     33  C   UNL d   1      30.272 -15.730  -5.341  0.00  0.00     0.012 C 
ATOM     34  C   UNL d   1      30.292 -16.801  -6.253  0.00  0.00     0.043 C 
ATOM     35  C   UNL d   1      30.403 -18.109  -5.790  0.00  0.00     0.116 C 
ATOM     36  F   UNL d   1      30.311 -19.128  -6.654  0.00  0.00    -0.206 F 
ATOM     37  C   UNL d   1      30.498 -18.370  -4.428  0.00  0.00     0.043 C 
ATOM     38  C   UNL d   1      30.316 -17.327  -3.508  0.00  0.00     0.012 C 
ENDBRANCH  31  32
ENDBRANCH  13  31
TORSDOF 6
ENDMDL
MODEL 9
REMARK VINA RESULT:    -7.816      7.225     10.037
REMARK INTER + INTRA:         -11.532
REMARK INTER:                  -9.606
REMARK INTRA:                  -1.926
REMARK CONF_INDEPENDENT:        1.790
REMARK UNBOUND:                -1.926
REMARK  6 active torsions:
REMARK  status: ('A' for Active; 'I' for Inactive)
REMARK    1  A    between atoms: C_11  and  C_12 
REMARK       I    between atoms: C_12  and  N_14 
REMARK    2  A    between atoms: N_14  and  C_15 
REMARK    3  A    between atoms: C_15  and  C_16 
REMARK    4  A    between atoms: C_22  and  N_23 
REMARK    5  A    between atoms: N_24  and  C_25 
REMARK    6  A    between atoms: C_25  and  C_26 
ROOT
ATOM      1  C   UNL d   1      28.905  -9.826   7.909  0.00  0.00     0.052 C 
ATOM      2  C   UNL d   1      28.988 -11.314   7.982  0.00  0.00    -0.015 A 
ATOM      3  C   UNL d   1      29.334 -11.955   9.111  0.00  0.00     0.012 A 
ATOM      4  C   UNL d   1      29.410 -13.386   9.166  0.00  0.00     0.018 A 
ATOM      5  C   UNL d   1      29.134 -14.103   8.075  0.00  0.00     0.102 A 
ATOM      6  N   UNL d   1      28.768 -13.505   6.871  0.00  0.00    -0.272 N 
ATOM      7  C   UNL d   1      28.497 -14.332   5.797  0.00  0.00     0.267 A 
ATOM      8  O   UNL d   1      28.557 -15.568   5.808  0.00  0.00    -0.267 OA
ATOM      9  C   UNL d   1      28.104 -13.684   4.543  0.00  0.00     0.080 A 
ATOM     10  C   UNL d   1      27.807 -14.464   3.433  0.00  0.00     0.042 C 
ATOM     11  C   UNL d   1      27.481 -13.828   2.251  0.00  0.00     0.076 C 
ATOM     12  C   UNL d   1      27.518 -12.412   2.189  0.00  0.00     0.118 C 
ATOM     13  N   UNL d   1      27.708 -11.657   3.324  0.00  0.00    -0.312 N 
ATOM     14  C   UNL d   1      28.033 -12.291   4.503  0.00  0.00     0.149 A 
ATOM     15  N   UNL d   1      28.321 -11.513   5.635  0.00  0.00    -0.211 NA
ATOM     16  C   UNL d   1      28.669 -12.113   6.744  0.00  0.00     0.145 A 
ENDROOT
BRANCH  11  17
ATOM     17  C   UNL d   1      27.117 -14.560   0.978  0.00  0.00     0.255 C 
ATOM     18  O   UNL d   1      26.305 -14.098   0.183  0.00  0.00    -0.268 OA
ATOM     19  N   UNL d   1      27.688 -15.769   0.757  0.00  0.00    -0.353 N 
ATOM     20  H   UNL d   1      28.388 -16.112   1.381  0.00  0.00     0.163 HD
BRANCH  19  21
ATOM     21  C   UNL d   1      27.402 -16.527  -0.448  0.00  0.00     0.161 C 
BRANCH  21  22
ATOM     22  C   UNL d   1      25.964 -16.968  -0.526  0.00  0.00    -0.041 C 
ATOM     23  C   UNL d   1      25.009 -16.298  -1.310  0.00  0.00     0.009 C 
ATOM     24  C   UNL d   1      23.657 -16.583  -1.197  0.00  0.00     0.001 C 
ATOM     25  C   UNL d   1      23.248 -17.659  -0.427  0.00  0.00     0.000 C 
ATOM     26  C   UNL d   1      24.195 -18.446   0.226  0.00  0.00     0.001 C 
ATOM     27  C   UNL d   1      25.540 -18.068   0.230  0.00  0.00     0.009 C 
ENDBRANCH  21  22
ENDBRANCH  19  21
ENDBRANCH  11  17
BRANCH  12  28
ATOM     28  N   UNL d   1      27.564 -11.895   0.904  0.00  0.00    -0.384 N 
ATOM     29  H   UNL d   1      28.516 -11.899   0.495  0.00  0.00     0.157 HD
ATOM     30  H   UNL d   1      26.885 -12.011   0.185  0.00  0.00     0.157 HD
ENDBRANCH  12  28
BRANCH  13  31
ATOM     31  C   UNL d   1      27.581 -10.130   3.357  0.00  0.00     0.171 C 
BRANCH  31  32
ATOM     32  C   UNL d   1      28.818  -9.341   3.797  0.00  0.00    -0.040 C 
ATOM     33  C   UNL d   1      30.118  -9.839   3.536  0.00  0.00     0.012 C 
ATOM     34  C   UNL d   1      31.182  -9.473   4.380  0.00  0.00     0.043 C 
ATOM     35  C   UNL d   1      31.009  -8.463   5.322  0.00  0.00     0.116 C 
ATOM     36  F   UNL d   1      31.988  -8.195   6.194  0.00  0.00    -0.206 F 
ATOM     37  C   UNL d   1      29.789  -7.807   5.437  0.00  0.00     0.043 C 
ATOM     38  C   UNL d   1      28.680  -8.274   4.716  0.00  0.00     0.012 C 
ENDBRANCH  31  32
ENDBRANCH  13  31
TORSDOF 6
ENDMDL
