MODEL 1
REMARK VINA RESULT:    -8.903      0.000      0.000
REMARK INTER + INTRA:         -11.772
REMARK INTER:                 -10.395
REMARK INTRA:                  -1.377
REMARK CONF_INDEPENDENT:        1.492
REMARK UNBOUND:                -1.377
REMARK  5 active torsions:
REMARK  status: ('A' for Active; 'I' for Inactive)
REMARK    1  A    between atoms: O_2  and  C_3 
REMARK    2  A    between atoms: C_3  and  C_5 
REMARK    3  A    between atoms: C_13  and  N_14 
REMARK       I    between atoms: N_14  and  C_15 
REMARK       I    between atoms: C_15  and  N_17 
REMARK    4  A    between atoms: N_17  and  C_18 
REMARK    5  A    between atoms: C_22  and  C_21 
ROOT
ATOM      1  N   UNL d   1      27.948 -14.992   0.909  0.00  0.00    -0.325 N 
ATOM      2  C   UNL d   1      28.261 -14.211   2.013  0.00  0.00     0.321 C 
ATOM      3  O   UNL d   1      28.633 -13.046   1.898  0.00  0.00    -0.247 OA
ATOM      4  N   UNL d   1      28.157 -14.828   3.257  0.00  0.00    -0.309 N 
ATOM      5  H   UNL d   1      27.706 -15.969   0.967  0.00  0.00     0.165 HD
ATOM      6  H   UNL d   1      28.168 -15.840   3.255  0.00  0.00     0.170 HD
ENDROOT
BRANCH   4   7
ATOM      7  C   UNL d   1      28.443 -14.095   4.482  0.00  0.00     0.036 C 
ATOM      8  C   UNL d   1      29.696 -14.032   5.071  0.00  0.00     0.030 C 
ATOM      9  C   UNL d   1      29.916 -13.291   6.323  0.00  0.00     0.011 C 
ATOM     10  C   UNL d   1      28.948 -12.414   7.001  0.00  0.00    -0.036 C 
ATOM     11  C   UNL d   1      27.679 -12.637   6.435  0.00  0.00     0.011 C 
ATOM     12  C   UNL d   1      27.446 -13.437   5.220  0.00  0.00     0.030 C 
BRANCH  10  13
ATOM     13  C   UNL d   1      29.207 -11.502   8.476  0.00  0.00     0.117 C 
ATOM     14  C   UNL d   1      30.168 -11.560   9.980  0.00  0.00     0.011 C 
ATOM     15  C   UNL d   1      30.066 -12.724  10.665  0.00  0.00    -0.015 C 
ATOM     16  C   UNL d   1      30.349 -13.659  11.757  0.00  0.00     0.036 C 
ATOM     17  C   UNL d   1      28.984 -13.155   9.810  0.00  0.00     0.019 C 
ATOM     18  C   UNL d   1      30.409 -14.955  11.336  0.00  0.00     0.035 C 
ATOM     19 CL   UNL d   1      31.109 -16.250  12.229  0.00  0.00    -0.084 Cl
ATOM     20  C   UNL d   1      30.052 -15.292   9.970  0.00  0.00     0.026 C 
ATOM     21  C   UNL d   1      29.405 -14.417   9.198  0.00  0.00     0.026 C 
ATOM     22  N   UNL d   1      28.238 -12.221   9.320  0.00  0.00    -0.280 NA
ATOM     23  H   UNL d   1      27.963 -11.414   9.907  0.00  0.00     0.128 HD
ENDBRANCH  10  13
ENDBRANCH   4   7
BRANCH   1  24
ATOM     24  C   UNL d   1      28.070 -14.421  -0.431  0.00  0.00     0.189 A 
ATOM     25  S   UNL d   1      26.914 -13.002  -0.536  0.00  0.00    -0.129 SA
ATOM     26  C   UNL d   1      25.906 -13.705  -1.831  0.00  0.00     0.079 A 
ATOM     27  C   UNL d   1      25.818 -12.670  -2.944  0.00  0.00     0.020 C 
ATOM     28  C   UNL d   1      26.590 -14.968  -2.284  0.00  0.00    -0.051 A 
ATOM     29  C   UNL d   1      25.099 -13.293  -4.129  0.00  0.00     0.002 C 
ATOM     30  C   UNL d   1      25.891 -14.498  -4.638  0.00  0.00     0.004 C 
ATOM     31  C   UNL d   1      26.041 -15.574  -3.553  0.00  0.00     0.036 C 
ATOM     32  C   UNL d   1      27.658 -15.350  -1.545  0.00  0.00     0.053 A 
BRANCH  32  33
ATOM     33  C   UNL d   1      28.512 -16.491  -1.922  0.00  0.00     0.292 C 
ATOM     34  O   UNL d   1      28.985 -16.669  -3.061  0.00  0.00    -0.260 OA
BRANCH  33  35
ATOM     35  O   UNL d   1      28.671 -17.340  -0.885  0.00  0.00    -0.323 OA
ATOM     36  C   UNL d   1      27.441 -17.825  -0.322  0.00  0.00     0.213 C 
ENDBRANCH  33  35
ENDBRANCH  32  33
ENDBRANCH   1  24
TORSDOF 5
ENDMDL
MODEL 2
REMARK VINA RESULT:    -8.791      7.889     10.661
REMARK INTER + INTRA:         -11.483
REMARK INTER:                 -10.283
REMARK INTRA:                  -1.200
REMARK CONF_INDEPENDENT:        1.492
REMARK UNBOUND:                -1.200
REMARK  5 active torsions:
REMARK  status: ('A' for Active; 'I' for Inactive)
REMARK    1  A    between atoms: O_2  and  C_3 
REMARK    2  A    between atoms: C_3  and  C_5 
REMARK    3  A    between atoms: C_13  and  N_14 
REMARK       I    between atoms: N_14  and  C_15 
REMARK       I    between atoms: C_15  and  N_17 
REMARK    4  A    between atoms: N_17  and  C_18 
REMARK    5  A    between atoms: C_22  and  C_21 
ROOT
ATOM      1  N   UNL d   1      25.679 -10.047  -6.110  0.00  0.00    -0.325 N 
ATOM      2  C   UNL d   1      25.903 -10.917  -5.052  0.00  0.00     0.321 C 
ATOM      3  O   UNL d   1      25.952 -10.524  -3.889  0.00  0.00    -0.247 OA
ATOM      4  N   UNL d   1      26.095 -12.257  -5.381  0.00  0.00    -0.309 N 
ATOM      5  H   UNL d   1      25.700 -10.329  -7.077  0.00  0.00     0.165 HD
ATOM      6  H   UNL d   1      26.362 -12.447  -6.338  0.00  0.00     0.170 HD
ENDROOT
BRANCH   4   7
ATOM      7  C   UNL d   1      26.317 -13.258  -4.346  0.00  0.00     0.036 C 
ATOM      8  C   UNL d   1      26.067 -14.610  -4.514  0.00  0.00     0.030 C 
ATOM      9  C   UNL d   1      26.291 -15.571  -3.421  0.00  0.00     0.011 C 
ATOM     10  C   UNL d   1      26.942 -15.290  -2.131  0.00  0.00    -0.036 C 
ATOM     11  C   UNL d   1      27.036 -13.894  -1.980  0.00  0.00     0.011 C 
ATOM     12  C   UNL d   1      26.744 -12.926  -3.052  0.00  0.00     0.030 C 
BRANCH  10  13
ATOM     13  C   UNL d   1      27.243 -16.431  -0.835  0.00  0.00     0.117 C 
ATOM     14  C   UNL d   1      26.623 -17.976  -0.188  0.00  0.00     0.011 C 
ATOM     15  C   UNL d   1      25.289 -17.988   0.051  0.00  0.00    -0.015 C 
ATOM     16  C   UNL d   1      24.014 -18.575   0.472  0.00  0.00     0.036 C 
ATOM     17  C   UNL d   1      25.217 -16.561  -0.170  0.00  0.00     0.019 C 
ATOM     18  C   UNL d   1      22.964 -18.146  -0.286  0.00  0.00     0.035 C 
ATOM     19 CL   UNL d   1      21.423 -18.911  -0.355  0.00  0.00    -0.084 Cl
ATOM     20  C   UNL d   1      23.159 -17.097  -1.270  0.00  0.00     0.026 C 
ATOM     21  C   UNL d   1      24.265 -16.350  -1.262  0.00  0.00     0.026 C 
ATOM     22  N   UNL d   1      26.275 -15.884   0.132  0.00  0.00    -0.280 NA
ATOM     23  H   UNL d   1      26.812 -16.112   0.987  0.00  0.00     0.128 HD
ENDBRANCH  10  13
ENDBRANCH   4   7
BRANCH   1  24
ATOM     24  C   UNL d   1      25.505  -8.622  -5.841  0.00  0.00     0.189 A 
ATOM     25  S   UNL d   1      24.128  -8.447  -4.645  0.00  0.00    -0.129 SA
ATOM     26  C   UNL d   1      23.070  -7.520  -5.744  0.00  0.00     0.079 A 
ATOM     27  C   UNL d   1      22.648  -6.258  -5.004  0.00  0.00     0.020 C 
ATOM     28  C   UNL d   1      23.879  -7.211  -6.975  0.00  0.00    -0.051 A 
ATOM     29  C   UNL d   1      21.875  -5.369  -5.963  0.00  0.00     0.002 C 
ATOM     30  C   UNL d   1      22.771  -4.975  -7.138  0.00  0.00     0.004 C 
ATOM     31  C   UNL d   1      23.256  -6.208  -7.916  0.00  0.00     0.036 C 
ATOM     32  C   UNL d   1      25.092  -7.807  -7.042  0.00  0.00     0.053 A 
BRANCH  32  33
ATOM     33  C   UNL d   1      26.058  -7.517  -8.116  0.00  0.00     0.292 C 
ATOM     34  O   UNL d   1      26.381  -6.369  -8.481  0.00  0.00    -0.260 OA
BRANCH  33  35
ATOM     35  O   UNL d   1      26.508  -8.656  -8.685  0.00  0.00    -0.323 OA
ATOM     36  C   UNL d   1      26.802  -8.541 -10.087  0.00  0.00     0.213 C 
ENDBRANCH  33  35
ENDBRANCH  32  33
ENDBRANCH   1  24
TORSDOF 5
ENDMDL
MODEL 3
REMARK VINA RESULT:    -8.685      1.924      2.619
REMARK INTER + INTRA:         -11.559
REMARK INTER:                 -10.176
REMARK INTRA:                  -1.383
REMARK CONF_INDEPENDENT:        1.492
REMARK UNBOUND:                -1.383
REMARK  5 active torsions:
REMARK  status: ('A' for Active; 'I' for Inactive)
REMARK    1  A    between atoms: O_2  and  C_3 
REMARK    2  A    between atoms: C_3  and  C_5 
REMARK    3  A    between atoms: C_13  and  N_14 
REMARK       I    between atoms: N_14  and  C_15 
REMARK       I    between atoms: C_15  and  N_17 
REMARK    4  A    between atoms: N_17  and  C_18 
REMARK    5  A    between atoms: C_22  and  C_21 
ROOT
ATOM      1  N   UNL d   1      28.496 -16.398  -0.852  0.00  0.00    -0.325 N 
ATOM      2  C   UNL d   1      28.374 -15.357   0.058  0.00  0.00     0.321 C 
ATOM      3  O   UNL d   1      27.674 -14.374  -0.171  0.00  0.00    -0.247 OA
ATOM      4  N   UNL d   1      29.110 -15.474   1.235  0.00  0.00    -0.309 N 
ATOM      5  H   UNL d   1      29.114 -17.184  -0.722  0.00  0.00     0.165 HD
ATOM      6  H   UNL d   1      29.888 -16.121   1.211  0.00  0.00     0.170 HD
ENDROOT
BRANCH   4   7
ATOM      7  C   UNL d   1      29.039 -14.450   2.267  0.00  0.00     0.036 C 
ATOM      8  C   UNL d   1      30.148 -13.927   2.914  0.00  0.00     0.030 C 
ATOM      9  C   UNL d   1      30.009 -12.907   3.966  0.00  0.00     0.011 C 
ATOM     10  C   UNL d   1      28.773 -12.202   4.342  0.00  0.00    -0.036 C 
ATOM     11  C   UNL d   1      27.686 -12.875   3.754  0.00  0.00     0.011 C 
ATOM     12  C   UNL d   1      27.822 -13.946   2.751  0.00  0.00     0.030 C 
BRANCH  10  13
ATOM     13  C   UNL d   1      28.600 -10.964   5.571  0.00  0.00     0.117 C 
ATOM     14  C   UNL d   1      29.148 -10.581   7.227  0.00  0.00     0.011 C 
ATOM     15  C   UNL d   1      28.936 -11.569   8.129  0.00  0.00    -0.015 C 
ATOM     16  C   UNL d   1      28.981 -12.203   9.450  0.00  0.00     0.036 C 
ATOM     17  C   UNL d   1      28.132 -12.296   7.173  0.00  0.00     0.019 C 
ATOM     18  C   UNL d   1      29.213 -13.545   9.380  0.00  0.00     0.035 C 
ATOM     19 CL   UNL d   1      29.729 -14.524  10.698  0.00  0.00    -0.084 Cl
ATOM     20  C   UNL d   1      29.234 -14.213   8.092  0.00  0.00     0.026 C 
ATOM     21  C   UNL d   1      28.760 -13.607   7.001  0.00  0.00     0.026 C 
ATOM     22  N   UNL d   1      27.487 -11.581   6.312  0.00  0.00    -0.280 NA
ATOM     23  H   UNL d   1      27.030 -10.700   6.604  0.00  0.00     0.128 HD
ENDBRANCH  10  13
ENDBRANCH   4   7
BRANCH   1  24
ATOM     24  C   UNL d   1      27.782 -16.325  -2.125  0.00  0.00     0.189 A 
ATOM     25  S   UNL d   1      28.568 -15.007  -3.127  0.00  0.00    -0.129 SA
ATOM     26  C   UNL d   1      27.118 -13.968  -3.204  0.00  0.00     0.079 A 
ATOM     27  C   UNL d   1      26.867 -13.656  -4.673  0.00  0.00     0.020 C 
ATOM     28  C   UNL d   1      25.987 -14.748  -2.589  0.00  0.00    -0.051 A 
ATOM     29  C   UNL d   1      25.551 -12.904  -4.790  0.00  0.00     0.002 C 
ATOM     30  C   UNL d   1      24.409 -13.778  -4.270  0.00  0.00     0.004 C 
ATOM     31  C   UNL d   1      24.614 -14.155  -2.795  0.00  0.00     0.036 C 
ATOM     32  C   UNL d   1      26.334 -15.919  -2.005  0.00  0.00     0.053 A 
BRANCH  32  33
ATOM     33  C   UNL d   1      25.336 -16.859  -1.465  0.00  0.00     0.292 C 
ATOM     34  O   UNL d   1      24.481 -17.450  -2.154  0.00  0.00    -0.260 OA
BRANCH  33  35
ATOM     35  O   UNL d   1      25.438 -16.958  -0.122  0.00  0.00    -0.323 OA
ATOM     36  C   UNL d   1      26.084 -18.157   0.335  0.00  0.00     0.213 C 
ENDBRANCH  33  35
ENDBRANCH  32  33
ENDBRANCH   1  24
TORSDOF 5
ENDMDL
MODEL 4
REMARK VINA RESULT:    -8.664      1.666      2.165
REMARK INTER + INTRA:         -11.523
REMARK INTER:                 -10.156
REMARK INTRA:                  -1.367
REMARK CONF_INDEPENDENT:        1.492
REMARK UNBOUND:                -1.367
REMARK  5 active torsions:
REMARK  status: ('A' for Active; 'I' for Inactive)
REMARK    1  A    between atoms: O_2  and  C_3 
REMARK    2  A    between atoms: C_3  and  C_5 
REMARK    3  A    between atoms: C_13  and  N_14 
REMARK       I    between atoms: N_14  and  C_15 
REMARK       I    between atoms: C_15  and  N_17 
REMARK    4  A    between atoms: N_17  and  C_18 
REMARK    5  A    between atoms: C_22  and  C_21 
ROOT
ATOM      1  N   UNL d   1      27.351 -15.025   1.057  0.00  0.00    -0.325 N 
ATOM      2  C   UNL d   1      27.538 -14.246   2.191  0.00  0.00     0.321 C 
ATOM      3  O   UNL d   1      27.036 -13.130   2.301  0.00  0.00    -0.247 OA
ATOM      4  N   UNL d   1      28.349 -14.786   3.186  0.00  0.00    -0.309 N 
ATOM      5  H   UNL d   1      27.803 -15.913   0.910  0.00  0.00     0.165 HD
ATOM      6  H   UNL d   1      28.971 -15.531   2.899  0.00  0.00     0.170 HD
ENDROOT
BRANCH   4   7
ATOM      7  C   UNL d   1      28.595 -14.063   4.426  0.00  0.00     0.036 C 
ATOM      8  C   UNL d   1      29.855 -13.873   4.972  0.00  0.00     0.030 C 
ATOM      9  C   UNL d   1      30.037 -13.150   6.241  0.00  0.00     0.011 C 
ATOM     10  C   UNL d   1      29.002 -12.412   6.983  0.00  0.00    -0.036 C 
ATOM     11  C   UNL d   1      27.746 -12.764   6.454  0.00  0.00     0.011 C 
ATOM     12  C   UNL d   1      27.560 -13.547   5.220  0.00  0.00     0.030 C 
BRANCH  10  13
ATOM     13  C   UNL d   1      29.212 -11.522   8.478  0.00  0.00     0.117 C 
ATOM     14  C   UNL d   1      30.119 -11.605  10.015  0.00  0.00     0.011 C 
ATOM     15  C   UNL d   1      29.988 -12.778  10.679  0.00  0.00    -0.015 C 
ATOM     16  C   UNL d   1      30.229 -13.730  11.767  0.00  0.00     0.036 C 
ATOM     17  C   UNL d   1      28.936 -13.193   9.780  0.00  0.00     0.019 C 
ATOM     18  C   UNL d   1      30.299 -15.020  11.330  0.00  0.00     0.035 C 
ATOM     19 CL   UNL d   1      30.963 -16.330  12.229  0.00  0.00    -0.084 Cl
ATOM     20  C   UNL d   1      29.990 -15.336   9.948  0.00  0.00     0.026 C 
ATOM     21  C   UNL d   1      29.374 -14.448   9.165  0.00  0.00     0.026 C 
ATOM     22  N   UNL d   1      28.211 -12.249   9.278  0.00  0.00    -0.280 NA
ATOM     23  H   UNL d   1      27.918 -11.449   9.866  0.00  0.00     0.128 HD
ENDBRANCH  10  13
ENDBRANCH   4   7
BRANCH   1  24
ATOM     24  C   UNL d   1      26.542 -14.505  -0.043  0.00  0.00     0.189 A 
ATOM     25  S   UNL d   1      25.792 -15.939  -0.905  0.00  0.00    -0.129 SA
ATOM     26  C   UNL d   1      26.609 -15.641  -2.465  0.00  0.00     0.079 A 
ATOM     27  C   UNL d   1      25.529 -15.608  -3.538  0.00  0.00     0.020 C 
ATOM     28  C   UNL d   1      27.324 -14.322  -2.340  0.00  0.00    -0.051 A 
ATOM     29  C   UNL d   1      26.169 -15.201  -4.855  0.00  0.00     0.002 C 
ATOM     30  C   UNL d   1      26.776 -13.804  -4.724  0.00  0.00     0.004 C 
ATOM     31  C   UNL d   1      27.858 -13.758  -3.635  0.00  0.00     0.036 C 
ATOM     32  C   UNL d   1      27.327 -13.773  -1.103  0.00  0.00     0.053 A 
BRANCH  32  33
ATOM     33  C   UNL d   1      27.875 -12.432  -0.834  0.00  0.00     0.292 C 
ATOM     34  O   UNL d   1      27.181 -11.421  -0.609  0.00  0.00    -0.260 OA
BRANCH  33  35
ATOM     35  O   UNL d   1      29.223 -12.434  -0.914  0.00  0.00    -0.323 OA
ATOM     36  C   UNL d   1      29.877 -13.123   0.164  0.00  0.00     0.213 C 
ENDBRANCH  33  35
ENDBRANCH  32  33
ENDBRANCH   1  24
TORSDOF 5
ENDMDL
MODEL 5
REMARK VINA RESULT:    -8.618      4.227     11.197
REMARK INTER + INTRA:         -11.562
REMARK INTER:                 -10.110
REMARK INTRA:                  -1.452
REMARK CONF_INDEPENDENT:        1.492
REMARK UNBOUND:                -1.452
REMARK  5 active torsions:
REMARK  status: ('A' for Active; 'I' for Inactive)
REMARK    1  A    between atoms: O_2  and  C_3 
REMARK    2  A    between atoms: C_3  and  C_5 
REMARK    3  A    between atoms: C_13  and  N_14 
REMARK       I    between atoms: N_14  and  C_15 
REMARK       I    between atoms: C_15  and  N_17 
REMARK    4  A    between atoms: N_17  and  C_18 
REMARK    5  A    between atoms: C_22  and  C_21 
ROOT
ATOM      1  N   UNL d   1      28.866 -13.186   7.370  0.00  0.00    -0.325 N 
ATOM      2  C   UNL d   1      28.537 -13.064   6.027  0.00  0.00     0.321 C 
ATOM      3  O   UNL d   1      28.000 -12.053   5.581  0.00  0.00    -0.247 OA
ATOM      4  N   UNL d   1      28.826 -14.159   5.216  0.00  0.00    -0.309 N 
ATOM      5  H   UNL d   1      29.246 -14.027   7.777  0.00  0.00     0.165 HD
ATOM      6  H   UNL d   1      28.955 -15.043   5.691  0.00  0.00     0.170 HD
ENDROOT
BRANCH   4   7
ATOM      7  C   UNL d   1      28.541 -14.129   3.788  0.00  0.00     0.036 C 
ATOM      8  C   UNL d   1      29.468 -14.449   2.809  0.00  0.00     0.030 C 
ATOM      9  C   UNL d   1      29.125 -14.379   1.379  0.00  0.00     0.011 C 
ATOM     10  C   UNL d   1      27.786 -14.149   0.812  0.00  0.00    -0.036 C 
ATOM     11  C   UNL d   1      26.942 -13.699   1.844  0.00  0.00     0.011 C 
ATOM     12  C   UNL d   1      27.308 -13.703   3.271  0.00  0.00     0.030 C 
BRANCH  10  13
ATOM     13  C   UNL d   1      27.359 -14.094  -0.887  0.00  0.00     0.117 C 
ATOM     14  C   UNL d   1      26.022 -14.533  -1.986  0.00  0.00     0.011 C 
ATOM     15  C   UNL d   1      25.607 -15.818  -1.878  0.00  0.00    -0.015 C 
ATOM     16  C   UNL d   1      24.780 -16.985  -2.198  0.00  0.00     0.036 C 
ATOM     17  C   UNL d   1      26.737 -16.132  -1.033  0.00  0.00     0.019 C 
ATOM     18  C   UNL d   1      24.504 -17.748  -1.101  0.00  0.00     0.035 C 
ATOM     19 CL   UNL d   1      23.257 -18.931  -1.014  0.00  0.00    -0.084 Cl
ATOM     20  C   UNL d   1      25.141 -17.452   0.169  0.00  0.00     0.026 C 
ATOM     21  C   UNL d   1      26.193 -16.633   0.231  0.00  0.00     0.026 C 
ATOM     22  N   UNL d   1      27.813 -15.449  -1.244  0.00  0.00    -0.280 NA
ATOM     23  H   UNL d   1      28.108 -15.230  -2.211  0.00  0.00     0.128 HD
ENDBRANCH  10  13
ENDBRANCH   4   7
BRANCH   1  24
ATOM     24  C   UNL d   1      28.559 -12.090   8.285  0.00  0.00     0.189 A 
ATOM     25  S   UNL d   1      29.473 -10.610   7.706  0.00  0.00    -0.129 SA
ATOM     26  C   UNL d   1      30.478 -10.450   9.173  0.00  0.00     0.079 A 
ATOM     27  C   UNL d   1      30.323  -9.020   9.670  0.00  0.00     0.020 C 
ATOM     28  C   UNL d   1      29.963 -11.455  10.169  0.00  0.00    -0.051 A 
ATOM     29  C   UNL d   1      31.039  -8.890  11.004  0.00  0.00     0.002 C 
ATOM     30  C   UNL d   1      30.405  -9.837  12.024  0.00  0.00     0.004 C 
ATOM     31  C   UNL d   1      30.503 -11.302  11.571  0.00  0.00     0.036 C 
ATOM     32  C   UNL d   1      29.025 -12.312   9.703  0.00  0.00     0.053 A 
BRANCH  32  33
ATOM     33  C   UNL d   1      28.330 -13.275  10.576  0.00  0.00     0.292 C 
ATOM     34  O   UNL d   1      27.781 -12.977  11.654  0.00  0.00    -0.260 OA
BRANCH  33  35
ATOM     35  O   UNL d   1      28.411 -14.527  10.077  0.00  0.00    -0.323 OA
ATOM     36  C   UNL d   1      29.644 -15.203  10.374  0.00  0.00     0.213 C 
ENDBRANCH  33  35
ENDBRANCH  32  33
ENDBRANCH   1  24
TORSDOF 5
ENDMDL
MODEL 6
REMARK VINA RESULT:    -8.552      8.056     10.400
REMARK INTER + INTRA:         -11.388
REMARK INTER:                 -10.043
REMARK INTRA:                  -1.345
REMARK CONF_INDEPENDENT:        1.492
REMARK UNBOUND:                -1.345
REMARK  5 active torsions:
REMARK  status: ('A' for Active; 'I' for Inactive)
REMARK    1  A    between atoms: O_2  and  C_3 
REMARK    2  A    between atoms: C_3  and  C_5 
REMARK    3  A    between atoms: C_13  and  N_14 
REMARK       I    between atoms: N_14  and  C_15 
REMARK       I    between atoms: C_15  and  N_17 
REMARK    4  A    between atoms: N_17  and  C_18 
REMARK    5  A    between atoms: C_22  and  C_21 
ROOT
ATOM      1  N   UNL d   1      26.205 -10.353  -6.485  0.00  0.00    -0.325 N 
ATOM      2  C   UNL d   1      26.502 -11.494  -5.752  0.00  0.00     0.321 C 
ATOM      3  O   UNL d   1      27.423 -12.244  -6.065  0.00  0.00    -0.247 OA
ATOM      4  N   UNL d   1      25.684 -11.756  -4.655  0.00  0.00    -0.309 N 
ATOM      5  H   UNL d   1      25.416  -9.756  -6.292  0.00  0.00     0.165 HD
ATOM      6  H   UNL d   1      24.781 -11.299  -4.654  0.00  0.00     0.170 HD
ENDROOT
BRANCH   4   7
ATOM      7  C   UNL d   1      25.920 -12.915  -3.806  0.00  0.00     0.036 C 
ATOM      8  C   UNL d   1      25.775 -14.226  -4.230  0.00  0.00     0.030 C 
ATOM      9  C   UNL d   1      26.007 -15.356  -3.315  0.00  0.00     0.011 C 
ATOM     10  C   UNL d   1      26.566 -15.278  -1.955  0.00  0.00    -0.036 C 
ATOM     11  C   UNL d   1      26.554 -13.931  -1.550  0.00  0.00     0.011 C 
ATOM     12  C   UNL d   1      26.253 -12.801  -2.447  0.00  0.00     0.030 C 
BRANCH  10  13
ATOM     13  C   UNL d   1      26.877 -16.618  -0.868  0.00  0.00     0.117 C 
ATOM     14  C   UNL d   1      26.228 -18.227  -0.444  0.00  0.00     0.011 C 
ATOM     15  C   UNL d   1      24.905 -18.237  -0.151  0.00  0.00    -0.015 C 
ATOM     16  C   UNL d   1      23.627 -18.846   0.229  0.00  0.00     0.036 C 
ATOM     17  C   UNL d   1      24.875 -16.793  -0.143  0.00  0.00     0.019 C 
ATOM     18  C   UNL d   1      22.564 -18.273  -0.406  0.00  0.00     0.035 C 
ATOM     19 CL   UNL d   1      20.996 -18.972  -0.525  0.00  0.00    -0.084 Cl
ATOM     20  C   UNL d   1      22.758 -17.088  -1.221  0.00  0.00     0.026 C 
ATOM     21  C   UNL d   1      23.889 -16.384  -1.145  0.00  0.00     0.026 C 
ATOM     22  N   UNL d   1      25.968 -16.203   0.214  0.00  0.00    -0.280 NA
ATOM     23  H   UNL d   1      26.529 -16.578   0.998  0.00  0.00     0.128 HD
ENDBRANCH  10  13
ENDBRANCH   4   7
BRANCH   1  24
ATOM     24  C   UNL d   1      26.999 -10.035  -7.669  0.00  0.00     0.189 A 
ATOM     25  S   UNL d   1      26.843 -11.441  -8.835  0.00  0.00    -0.129 SA
ATOM     26  C   UNL d   1      28.576 -11.871  -8.810  0.00  0.00     0.079 A 
ATOM     27  C   UNL d   1      29.046 -11.923 -10.257  0.00  0.00     0.020 C 
ATOM     28  C   UNL d   1      29.282 -10.800  -8.023  0.00  0.00    -0.051 A 
ATOM     29  C   UNL d   1      30.552 -12.132 -10.270  0.00  0.00     0.002 C 
ATOM     30  C   UNL d   1      31.241 -10.960  -9.570  0.00  0.00     0.004 C 
ATOM     31  C   UNL d   1      30.789 -10.831  -8.107  0.00  0.00     0.036 C 
ATOM     32  C   UNL d   1      28.479  -9.899  -7.410  0.00  0.00     0.053 A 
BRANCH  32  33
ATOM     33  C   UNL d   1      29.008  -8.720  -6.703  0.00  0.00     0.292 C 
ATOM     34  O   UNL d   1      29.490  -8.747  -5.554  0.00  0.00    -0.260 OA
BRANCH  33  35
ATOM     35  O   UNL d   1      28.857  -7.601  -7.444  0.00  0.00    -0.323 OA
ATOM     36  C   UNL d   1      29.299  -7.729  -8.805  0.00  0.00     0.213 C 
ENDBRANCH  33  35
ENDBRANCH  32  33
ENDBRANCH   1  24
TORSDOF 5
ENDMDL
MODEL 7
REMARK VINA RESULT:    -8.464      4.181     11.185
REMARK INTER + INTRA:         -10.991
REMARK INTER:                  -9.956
REMARK INTRA:                  -1.035
REMARK CONF_INDEPENDENT:        1.492
REMARK UNBOUND:                -1.035
REMARK  5 active torsions:
REMARK  status: ('A' for Active; 'I' for Inactive)
REMARK    1  A    between atoms: O_2  and  C_3 
REMARK    2  A    between atoms: C_3  and  C_5 
REMARK    3  A    between atoms: C_13  and  N_14 
REMARK       I    between atoms: N_14  and  C_15 
REMARK       I    between atoms: C_15  and  N_17 
REMARK    4  A    between atoms: N_17  and  C_18 
REMARK    5  A    between atoms: C_22  and  C_21 
ROOT
ATOM      1  N   UNL d   1      28.380 -12.117   5.839  0.00  0.00    -0.325 N 
ATOM      2  C   UNL d   1      28.384 -12.866   4.671  0.00  0.00     0.321 C 
ATOM      3  O   UNL d   1      29.212 -13.750   4.471  0.00  0.00    -0.247 OA
ATOM      4  N   UNL d   1      27.413 -12.544   3.725  0.00  0.00    -0.309 N 
ATOM      5  H   UNL d   1      27.756 -11.342   6.003  0.00  0.00     0.165 HD
ATOM      6  H   UNL d   1      26.995 -11.626   3.810  0.00  0.00     0.170 HD
ENDROOT
BRANCH   4   7
ATOM      7  C   UNL d   1      27.314 -13.280   2.473  0.00  0.00     0.036 C 
ATOM      8  C   UNL d   1      27.782 -14.573   2.298  0.00  0.00     0.030 C 
ATOM      9  C   UNL d   1      27.671 -15.257   0.999  0.00  0.00     0.011 C 
ATOM     10  C   UNL d   1      26.937 -14.776  -0.182  0.00  0.00    -0.036 C 
ATOM     11  C   UNL d   1      26.617 -13.420   0.020  0.00  0.00     0.011 C 
ATOM     12  C   UNL d   1      26.791 -12.713   1.300  0.00  0.00     0.030 C 
BRANCH  10  13
ATOM     13  C   UNL d   1      26.772 -15.595  -1.723  0.00  0.00     0.117 C 
ATOM     14  C   UNL d   1      25.522 -16.325  -2.769  0.00  0.00     0.011 C 
ATOM     15  C   UNL d   1      24.738 -17.240  -2.149  0.00  0.00    -0.015 C 
ATOM     16  C   UNL d   1      23.655 -18.222  -2.051  0.00  0.00     0.036 C 
ATOM     17  C   UNL d   1      25.605 -17.227  -0.992  0.00  0.00     0.019 C 
ATOM     18  C   UNL d   1      23.026 -18.190  -0.840  0.00  0.00     0.035 C 
ATOM     19 CL   UNL d   1      21.486 -18.887  -0.513  0.00  0.00    -0.084 Cl
ATOM     20  C   UNL d   1      23.549 -17.359   0.228  0.00  0.00     0.026 C 
ATOM     21  C   UNL d   1      24.777 -16.842   0.153  0.00  0.00     0.026 C 
ATOM     22  N   UNL d   1      26.851 -16.976  -1.218  0.00  0.00    -0.280 NA
ATOM     23  H   UNL d   1      27.323 -17.383  -2.044  0.00  0.00     0.128 HD
ENDBRANCH  10  13
ENDBRANCH   4   7
BRANCH   1  24
ATOM     24  C   UNL d   1      29.393 -12.376   6.860  0.00  0.00     0.189 A 
ATOM     25  S   UNL d   1      29.380 -14.175   7.210  0.00  0.00    -0.129 SA
ATOM     26  C   UNL d   1      28.894 -14.008   8.920  0.00  0.00     0.079 A 
ATOM     27  C   UNL d   1      29.901 -14.792   9.751  0.00  0.00     0.020 C 
ATOM     28  C   UNL d   1      28.916 -12.538   9.240  0.00  0.00    -0.051 A 
ATOM     29  C   UNL d   1      29.611 -14.544  11.222  0.00  0.00     0.002 C 
ATOM     30  C   UNL d   1      29.766 -13.055  11.535  0.00  0.00     0.004 C 
ATOM     31  C   UNL d   1      28.795 -12.200  10.707  0.00  0.00     0.036 C 
ATOM     32  C   UNL d   1      29.124 -11.713   8.188  0.00  0.00     0.053 A 
BRANCH  32  33
ATOM     33  C   UNL d   1      29.296 -10.258   8.345  0.00  0.00     0.292 C 
ATOM     34  O   UNL d   1      28.905  -9.410   7.519  0.00  0.00    -0.260 OA
BRANCH  33  35
ATOM     35  O   UNL d   1      29.974  -9.968   9.476  0.00  0.00    -0.323 OA
ATOM     36  C   UNL d   1      31.403 -10.028   9.339  0.00  0.00     0.213 C 
ENDBRANCH  33  35
ENDBRANCH  32  33
ENDBRANCH   1  24
TORSDOF 5
ENDMDL
MODEL 8
REMARK VINA RESULT:    -8.431      7.358     12.252
REMARK INTER + INTRA:         -11.089
REMARK INTER:                  -9.922
REMARK INTRA:                  -1.167
REMARK CONF_INDEPENDENT:        1.492
REMARK UNBOUND:                -1.167
REMARK  5 active torsions:
REMARK  status: ('A' for Active; 'I' for Inactive)
REMARK    1  A    between atoms: O_2  and  C_3 
REMARK    2  A    between atoms: C_3  and  C_5 
REMARK    3  A    between atoms: C_13  and  N_14 
REMARK       I    between atoms: N_14  and  C_15 
REMARK       I    between atoms: C_15  and  N_17 
REMARK    4  A    between atoms: N_17  and  C_18 
REMARK    5  A    between atoms: C_22  and  C_21 
ROOT
ATOM      1  N   UNL d   1      28.631 -16.680   0.252  0.00  0.00    -0.325 N 
ATOM      2  C   UNL d   1      28.836 -16.881  -1.106  0.00  0.00     0.321 C 
ATOM      3  O   UNL d   1      27.901 -17.041  -1.886  0.00  0.00    -0.247 OA
ATOM      4  N   UNL d   1      30.161 -16.918  -1.534  0.00  0.00    -0.309 N 
ATOM      5  H   UNL d   1      29.378 -16.613   0.925  0.00  0.00     0.165 HD
ATOM      6  H   UNL d   1      30.854 -17.104  -0.820  0.00  0.00     0.170 HD
ENDROOT
BRANCH   4   7
ATOM      7  C   UNL d   1      30.489 -17.103  -2.940  0.00  0.00     0.036 C 
ATOM      8  C   UNL d   1      31.674 -17.664  -3.389  0.00  0.00     0.030 C 
ATOM      9  C   UNL d   1      31.957 -17.804  -4.827  0.00  0.00     0.011 C 
ATOM     10  C   UNL d   1      31.016 -17.554  -5.931  0.00  0.00    -0.036 C 
ATOM     11  C   UNL d   1      29.904 -16.863  -5.414  0.00  0.00     0.011 C 
ATOM     12  C   UNL d   1      29.653 -16.661  -3.977  0.00  0.00     0.030 C 
BRANCH  10  13
ATOM     13  C   UNL d   1      31.330 -17.746  -7.645  0.00  0.00     0.117 C 
ATOM     14  C   UNL d   1      31.156 -18.952  -8.950  0.00  0.00     0.011 C 
ATOM     15  C   UNL d   1      31.697 -20.163  -8.670  0.00  0.00    -0.015 C 
ATOM     16  C   UNL d   1      32.048 -21.561  -8.934  0.00  0.00     0.036 C 
ATOM     17  C   UNL d   1      32.328 -19.628  -7.485  0.00  0.00     0.019 C 
ATOM     18  C   UNL d   1      31.968 -22.341  -7.818  0.00  0.00     0.035 C 
ATOM     19 CL   UNL d   1      31.906 -24.062  -7.822  0.00  0.00    -0.084 Cl
ATOM     20  C   UNL d   1      31.717 -21.734  -6.524  0.00  0.00     0.026 C 
ATOM     21  C   UNL d   1      31.838 -20.416  -6.352  0.00  0.00     0.026 C 
ATOM     22  N   UNL d   1      32.655 -18.379  -7.528  0.00  0.00    -0.280 NA
ATOM     23  H   UNL d   1      33.060 -17.977  -8.392  0.00  0.00     0.128 HD
ENDBRANCH  10  13
ENDBRANCH   4   7
BRANCH   1  24
ATOM     24  C   UNL d   1      27.267 -16.666   0.776  0.00  0.00     0.189 A 
ATOM     25  S   UNL d   1      26.638 -18.387   0.729  0.00  0.00    -0.129 SA
ATOM     26  C   UNL d   1      25.312 -18.047  -0.419  0.00  0.00     0.079 A 
ATOM     27  C   UNL d   1      24.029 -18.575   0.208  0.00  0.00     0.020 C 
ATOM     28  C   UNL d   1      25.274 -16.555  -0.615  0.00  0.00    -0.051 A 
ATOM     29  C   UNL d   1      22.857 -18.164  -0.668  0.00  0.00     0.002 C 
ATOM     30  C   UNL d   1      22.778 -16.639  -0.742  0.00  0.00     0.004 C 
ATOM     31  C   UNL d   1      24.057 -16.035  -1.342  0.00  0.00     0.036 C 
ATOM     32  C   UNL d   1      26.290 -15.864  -0.047  0.00  0.00     0.053 A 
BRANCH  32  33
ATOM     33  C   UNL d   1      26.339 -14.391  -0.040  0.00  0.00     0.292 C 
ATOM     34  O   UNL d   1      26.375 -13.694   0.993  0.00  0.00    -0.260 OA
BRANCH  33  35
ATOM     35  O   UNL d   1      26.288 -13.898  -1.296  0.00  0.00    -0.323 OA
ATOM     36  C   UNL d   1      27.574 -13.621  -1.874  0.00  0.00     0.213 C 
ENDBRANCH  33  35
ENDBRANCH  32  33
ENDBRANCH   1  24
TORSDOF 5
ENDMDL
MODEL 9
REMARK VINA RESULT:    -8.116      4.055     10.448
REMARK INTER + INTRA:         -10.898
REMARK INTER:                  -9.607
REMARK INTRA:                  -1.291
REMARK CONF_INDEPENDENT:        1.492
REMARK UNBOUND:                -1.291
REMARK  5 active torsions:
REMARK  status: ('A' for Active; 'I' for Inactive)
REMARK    1  A    between atoms: O_2  and  C_3 
REMARK    2  A    between atoms: C_3  and  C_5 
REMARK    3  A    between atoms: C_13  and  N_14 
REMARK       I    between atoms: N_14  and  C_15 
REMARK       I    between atoms: C_15  and  N_17 
REMARK    4  A    between atoms: N_17  and  C_18 
REMARK    5  A    between atoms: C_22  and  C_21 
ROOT
ATOM      1  N   UNL d   1      31.162 -12.583   5.413  0.00  0.00    -0.325 N 
ATOM      2  C   UNL d   1      30.517 -12.911   4.228  0.00  0.00     0.321 C 
ATOM      3  O   UNL d   1      29.330 -12.654   4.044  0.00  0.00    -0.247 OA
ATOM      4  N   UNL d   1      31.282 -13.571   3.269  0.00  0.00    -0.309 N 
ATOM      5  H   UNL d   1      32.114 -12.839   5.619  0.00  0.00     0.165 HD
ATOM      6  H   UNL d   1      32.121 -14.026   3.605  0.00  0.00     0.170 HD
ENDROOT
BRANCH   4   7
ATOM      7  C   UNL d   1      30.711 -13.943   1.983  0.00  0.00     0.036 C 
ATOM      8  C   UNL d   1      30.934 -15.162   1.362  0.00  0.00     0.030 C 
ATOM      9  C   UNL d   1      30.345 -15.471   0.049  0.00  0.00     0.011 C 
ATOM     10  C   UNL d   1      29.351 -14.662  -0.675  0.00  0.00    -0.036 C 
ATOM     11  C   UNL d   1      29.283 -13.396  -0.063  0.00  0.00     0.011 C 
ATOM     12  C   UNL d   1      29.930 -13.063   1.218  0.00  0.00     0.030 C 
BRANCH  10  13
ATOM     13  C   UNL d   1      28.619 -15.033  -2.224  0.00  0.00     0.117 C 
ATOM     14  C   UNL d   1      27.015 -15.308  -2.959  0.00  0.00     0.011 C 
ATOM     15  C   UNL d   1      26.263 -16.243  -2.329  0.00  0.00    -0.015 C 
ATOM     16  C   UNL d   1      25.075 -17.071  -2.106  0.00  0.00     0.036 C 
ATOM     17  C   UNL d   1      27.394 -16.636  -1.520  0.00  0.00     0.019 C 
ATOM     18  C   UNL d   1      24.815 -17.269  -0.781  0.00  0.00     0.035 C 
ATOM     19 CL   UNL d   1      23.315 -17.824  -0.145  0.00  0.00    -0.084 Cl
ATOM     20  C   UNL d   1      25.759 -16.811   0.221  0.00  0.00     0.026 C 
ATOM     21  C   UNL d   1      26.999 -16.452  -0.122  0.00  0.00     0.026 C 
ATOM     22  N   UNL d   1      28.558 -16.496  -2.062  0.00  0.00    -0.280 NA
ATOM     23  H   UNL d   1      28.700 -16.736  -3.059  0.00  0.00     0.128 HD
ENDBRANCH  10  13
ENDBRANCH   4   7
BRANCH   1  24
ATOM     24  C   UNL d   1      30.411 -11.922   6.478  0.00  0.00     0.189 A 
ATOM     25  S   UNL d   1      31.606 -11.436   7.780  0.00  0.00    -0.129 SA
ATOM     26  C   UNL d   1      30.892 -12.466   9.052  0.00  0.00     0.079 A 
ATOM     27  C   UNL d   1      30.629 -11.574  10.257  0.00  0.00     0.020 C 
ATOM     28  C   UNL d   1      29.623 -13.045   8.487  0.00  0.00    -0.051 A 
ATOM     29  C   UNL d   1      29.878 -12.381  11.303  0.00  0.00     0.002 C 
ATOM     30  C   UNL d   1      28.538 -12.846  10.732  0.00  0.00     0.004 C 
ATOM     31  C   UNL d   1      28.730 -13.733   9.492  0.00  0.00     0.036 C 
ATOM     32  C   UNL d   1      29.405 -12.805   7.174  0.00  0.00     0.053 A 
BRANCH  32  33
ATOM     33  C   UNL d   1      28.156 -13.195   6.495  0.00  0.00     0.292 C 
ATOM     34  O   UNL d   1      27.216 -12.414   6.251  0.00  0.00    -0.260 OA
BRANCH  33  35
ATOM     35  O   UNL d   1      28.147 -14.516   6.217  0.00  0.00    -0.323 OA
ATOM     36  C   UNL d   1      27.771 -14.834   4.867  0.00  0.00     0.213 C 
ENDBRANCH  33  35
ENDBRANCH  32  33
ENDBRANCH   1  24
TORSDOF 5
ENDMDL
