MODEL 1
REMARK VINA RESULT:    -7.138      0.000      0.000
REMARK INTER + INTRA:          -8.875
REMARK INTER:                  -8.331
REMARK INTRA:                  -0.544
REMARK CONF_INDEPENDENT:        1.193
REMARK UNBOUND:                -0.544
REMARK  4 active torsions:
REMARK  status: ('A' for Active; 'I' for Inactive)
REMARK    1  A    between atoms: O_2  and  N_3 
REMARK       I    between atoms: N_3  and  C_4 
REMARK       I    between atoms: C_4  and  N_6 
REMARK    2  A    between atoms: N_6  and  C_7 
REMARK    3  A    between atoms: C_7  and  C_8 
REMARK    4  A    between atoms: C_8  and  C_9 
ROOT
ATOM      1  C   UNL d   1      23.534 -17.500  -0.934  0.00  0.00     0.003 A 
ATOM      2  C   UNL d   1      22.908 -16.157  -1.270  0.00  0.00     0.017 A 
ATOM      3  C   UNL d   1      22.720 -16.737   0.101  0.00  0.00     0.017 A 
ENDROOT
BRANCH   1   4
ATOM      4  C   UNL d   1      22.908 -18.765  -1.506  0.00  0.00     0.138 C 
BRANCH   4   5
ATOM      5  N   UNL d   1      22.258 -19.541  -0.471  0.00  0.00    -0.340 N 
ATOM      6  C   UNL d   1      20.928 -19.317  -0.214  0.00  0.00     0.339 C 
ATOM      7  N   UNL d   1      20.438 -20.069   0.821  0.00  0.00    -0.217 N 
ATOM      8  O   UNL d   1      20.254 -18.541  -0.895  0.00  0.00    -0.245 OA
ATOM      9  H   UNL d   1      20.994 -20.696   1.381  0.00  0.00     0.199 HD
ATOM     10  H   UNL d   1      22.834 -19.981   0.230  0.00  0.00     0.164 HD
BRANCH   7  11
ATOM     11  O   UNL d   1      19.046 -19.969   1.052  0.00  0.00    -0.281 OA
ATOM     12  C   UNL d   1      18.406 -21.205   0.772  0.00  0.00     0.237 C 
ENDBRANCH   7  11
ENDBRANCH   4   5
ENDBRANCH   1   4
BRANCH   1  13
ATOM     13  C   UNL d   1      25.041 -17.717  -0.806  0.00  0.00    -0.048 C 
ATOM     14  C   UNL d   1      25.569 -18.529   0.214  0.00  0.00     0.008 C 
ATOM     15  C   UNL d   1      26.831 -18.262   0.760  0.00  0.00     0.001 C 
ATOM     16  C   UNL d   1      27.633 -17.255   0.228  0.00  0.00     0.000 C 
ATOM     17  C   UNL d   1      27.169 -16.501  -0.843  0.00  0.00     0.001 C 
ATOM     18  C   UNL d   1      25.899 -16.747  -1.369  0.00  0.00     0.008 C 
ENDBRANCH   1  13
TORSDOF 4
ENDMDL
MODEL 2
REMARK VINA RESULT:    -7.033      4.342      6.828
REMARK INTER + INTRA:          -8.815
REMARK INTER:                  -8.226
REMARK INTRA:                  -0.589
REMARK CONF_INDEPENDENT:        1.193
REMARK UNBOUND:                -0.589
REMARK  4 active torsions:
REMARK  status: ('A' for Active; 'I' for Inactive)
REMARK    1  A    between atoms: O_2  and  N_3 
REMARK       I    between atoms: N_3  and  C_4 
REMARK       I    between atoms: C_4  and  N_6 
REMARK    2  A    between atoms: N_6  and  C_7 
REMARK    3  A    between atoms: C_7  and  C_8 
REMARK    4  A    between atoms: C_8  and  C_9 
ROOT
ATOM      1  C   UNL d   1      25.790 -16.678  -0.613  0.00  0.00     0.003 A 
ATOM      2  C   UNL d   1      27.101 -17.442  -0.537  0.00  0.00     0.017 A 
ATOM      3  C   UNL d   1      26.823 -16.349   0.454  0.00  0.00     0.017 A 
ENDROOT
BRANCH   1   4
ATOM      4  C   UNL d   1      25.599 -15.656  -1.726  0.00  0.00     0.138 C 
BRANCH   4   5
ATOM      5  N   UNL d   1      26.705 -15.688  -2.661  0.00  0.00    -0.340 N 
ATOM      6  C   UNL d   1      26.456 -15.445  -3.988  0.00  0.00     0.339 C 
ATOM      7  N   UNL d   1      27.567 -15.557  -4.781  0.00  0.00    -0.217 N 
ATOM      8  O   UNL d   1      25.339 -15.116  -4.393  0.00  0.00    -0.245 OA
ATOM      9  H   UNL d   1      28.478 -15.834  -4.448  0.00  0.00     0.199 HD
ATOM     10  H   UNL d   1      27.543 -16.180  -2.392  0.00  0.00     0.164 HD
BRANCH   7  11
ATOM     11  O   UNL d   1      27.396 -15.200  -6.139  0.00  0.00    -0.281 OA
ATOM     12  C   UNL d   1      28.480 -14.397  -6.583  0.00  0.00     0.237 C 
ENDBRANCH   7  11
ENDBRANCH   4   5
ENDBRANCH   1   4
BRANCH   1  13
ATOM     13  C   UNL d   1      24.434 -17.302  -0.288  0.00  0.00    -0.048 C 
ATOM     14  C   UNL d   1      24.288 -18.697  -0.180  0.00  0.00     0.008 C 
ATOM     15  C   UNL d   1      23.081 -19.320  -0.523  0.00  0.00     0.001 C 
ATOM     16  C   UNL d   1      21.968 -18.560  -0.873  0.00  0.00     0.000 C 
ATOM     17  C   UNL d   1      22.062 -17.173  -0.895  0.00  0.00     0.001 C 
ATOM     18  C   UNL d   1      23.273 -16.553  -0.581  0.00  0.00     0.008 C 
ENDBRANCH   1  13
TORSDOF 4
ENDMDL
MODEL 3
REMARK VINA RESULT:    -7.028      1.714      2.924
REMARK INTER + INTRA:          -8.677
REMARK INTER:                  -8.222
REMARK INTRA:                  -0.456
REMARK CONF_INDEPENDENT:        1.193
REMARK UNBOUND:                -0.456
REMARK  4 active torsions:
REMARK  status: ('A' for Active; 'I' for Inactive)
REMARK    1  A    between atoms: O_2  and  N_3 
REMARK       I    between atoms: N_3  and  C_4 
REMARK       I    between atoms: C_4  and  N_6 
REMARK    2  A    between atoms: N_6  and  C_7 
REMARK    3  A    between atoms: C_7  and  C_8 
REMARK    4  A    between atoms: C_8  and  C_9 
ROOT
ATOM      1  C   UNL d   1      25.223 -17.184  -0.511  0.00  0.00     0.003 A 
ATOM      2  C   UNL d   1      26.251 -17.270   0.605  0.00  0.00     0.017 A 
ATOM      3  C   UNL d   1      25.885 -18.508  -0.161  0.00  0.00     0.017 A 
ENDROOT
BRANCH   1   4
ATOM      4  C   UNL d   1      23.753 -17.030  -0.145  0.00  0.00     0.138 C 
BRANCH   4   5
ATOM      5  N   UNL d   1      23.108 -18.321  -0.020  0.00  0.00    -0.340 N 
ATOM      6  C   UNL d   1      21.831 -18.472  -0.501  0.00  0.00     0.339 C 
ATOM      7  N   UNL d   1      21.308 -19.717  -0.277  0.00  0.00    -0.217 N 
ATOM      8  O   UNL d   1      21.253 -17.570  -1.111  0.00  0.00    -0.245 OA
ATOM      9  H   UNL d   1      21.780 -20.450   0.230  0.00  0.00     0.199 HD
ATOM     10  H   UNL d   1      23.461 -18.966   0.670  0.00  0.00     0.164 HD
BRANCH   7  11
ATOM     11  O   UNL d   1      20.042 -19.969  -0.856  0.00  0.00    -0.281 OA
ATOM     12  C   UNL d   1      19.071 -20.204   0.153  0.00  0.00     0.237 C 
ENDBRANCH   7  11
ENDBRANCH   4   5
ENDBRANCH   1   4
BRANCH   1  13
ATOM     13  C   UNL d   1      25.475 -16.456  -1.830  0.00  0.00    -0.048 C 
ATOM     14  C   UNL d   1      26.783 -16.272  -2.315  0.00  0.00     0.008 C 
ATOM     15  C   UNL d   1      27.111 -15.147  -3.083  0.00  0.00     0.001 C 
ATOM     16  C   UNL d   1      26.125 -14.245  -3.472  0.00  0.00     0.000 C 
ATOM     17  C   UNL d   1      24.806 -14.457  -3.083  0.00  0.00     0.001 C 
ATOM     18  C   UNL d   1      24.484 -15.563  -2.294  0.00  0.00     0.008 C 
ENDBRANCH   1  13
TORSDOF 4
ENDMDL
MODEL 4
REMARK VINA RESULT:    -6.923      1.436      2.560
REMARK INTER + INTRA:          -8.665
REMARK INTER:                  -8.116
REMARK INTRA:                  -0.549
REMARK CONF_INDEPENDENT:        1.193
REMARK UNBOUND:                -0.549
REMARK  4 active torsions:
REMARK  status: ('A' for Active; 'I' for Inactive)
REMARK    1  A    between atoms: O_2  and  N_3 
REMARK       I    between atoms: N_3  and  C_4 
REMARK       I    between atoms: C_4  and  N_6 
REMARK    2  A    between atoms: N_6  and  C_7 
REMARK    3  A    between atoms: C_7  and  C_8 
REMARK    4  A    between atoms: C_8  and  C_9 
ROOT
ATOM      1  C   UNL d   1      24.764 -17.684  -0.453  0.00  0.00     0.003 A 
ATOM      2  C   UNL d   1      25.007 -18.201   0.955  0.00  0.00     0.017 A 
ATOM      3  C   UNL d   1      25.962 -18.569  -0.143  0.00  0.00     0.017 A 
ENDROOT
BRANCH   1   4
ATOM      4  C   UNL d   1      23.645 -18.303  -1.280  0.00  0.00     0.138 C 
BRANCH   4   5
ATOM      5  N   UNL d   1      22.808 -19.161  -0.468  0.00  0.00    -0.340 N 
ATOM      6  C   UNL d   1      21.470 -18.872  -0.361  0.00  0.00     0.339 C 
ATOM      7  N   UNL d   1      20.795 -19.720   0.475  0.00  0.00    -0.217 N 
ATOM      8  O   UNL d   1      20.947 -17.959  -1.003  0.00  0.00    -0.245 OA
ATOM      9  H   UNL d   1      21.227 -20.461   1.005  0.00  0.00     0.199 HD
ATOM     10  H   UNL d   1      23.251 -19.738   0.231  0.00  0.00     0.164 HD
BRANCH   7  11
ATOM     11  O   UNL d   1      19.392 -19.545   0.530  0.00  0.00    -0.281 OA
ATOM     12  C   UNL d   1      18.761 -20.729   0.994  0.00  0.00     0.237 C 
ENDBRANCH   7  11
ENDBRANCH   4   5
ENDBRANCH   1   4
BRANCH   1  13
ATOM     13  C   UNL d   1      24.901 -16.213  -0.842  0.00  0.00    -0.048 C 
ATOM     14  C   UNL d   1      24.392 -15.740  -2.066  0.00  0.00     0.008 C 
ATOM     15  C   UNL d   1      25.008 -14.673  -2.733  0.00  0.00     0.001 C 
ATOM     16  C   UNL d   1      26.068 -13.989  -2.145  0.00  0.00     0.000 C 
ATOM     17  C   UNL d   1      26.527 -14.379  -0.892  0.00  0.00     0.001 C 
ATOM     18  C   UNL d   1      25.933 -15.461  -0.239  0.00  0.00     0.008 C 
ENDBRANCH   1  13
TORSDOF 4
ENDMDL
MODEL 5
REMARK VINA RESULT:    -6.691      4.464      6.985
REMARK INTER + INTRA:          -8.531
REMARK INTER:                  -7.885
REMARK INTRA:                  -0.646
REMARK CONF_INDEPENDENT:        1.193
REMARK UNBOUND:                -0.646
REMARK  4 active torsions:
REMARK  status: ('A' for Active; 'I' for Inactive)
REMARK    1  A    between atoms: O_2  and  N_3 
REMARK       I    between atoms: N_3  and  C_4 
REMARK       I    between atoms: C_4  and  N_6 
REMARK    2  A    between atoms: N_6  and  C_7 
REMARK    3  A    between atoms: C_7  and  C_8 
REMARK    4  A    between atoms: C_8  and  C_9 
ROOT
ATOM      1  C   UNL d   1      25.980 -16.439  -0.824  0.00  0.00     0.003 A 
ATOM      2  C   UNL d   1      27.288 -17.199  -0.694  0.00  0.00     0.017 A 
ATOM      3  C   UNL d   1      26.750 -16.448   0.488  0.00  0.00     0.017 A 
ENDROOT
BRANCH   1   4
ATOM      4  C   UNL d   1      25.965 -15.131  -1.605  0.00  0.00     0.138 C 
BRANCH   4   5
ATOM      5  N   UNL d   1      27.018 -15.103  -2.598  0.00  0.00    -0.340 N 
ATOM      6  C   UNL d   1      26.678 -15.199  -3.925  0.00  0.00     0.339 C 
ATOM      7  N   UNL d   1      27.759 -15.217  -4.765  0.00  0.00    -0.217 N 
ATOM      8  O   UNL d   1      25.502 -15.220  -4.297  0.00  0.00    -0.245 OA
ATOM      9  H   UNL d   1      28.719 -15.209  -4.457  0.00  0.00     0.199 HD
ATOM     10  H   UNL d   1      27.956 -15.329  -2.306  0.00  0.00     0.164 HD
BRANCH   7  11
ATOM     11  O   UNL d   1      27.466 -15.193  -6.149  0.00  0.00    -0.281 OA
ATOM     12  C   UNL d   1      28.519 -14.567  -6.868  0.00  0.00     0.237 C 
ENDBRANCH   7  11
ENDBRANCH   4   5
ENDBRANCH   1   4
BRANCH   1  13
ATOM     13  C   UNL d   1      24.624 -17.122  -0.992  0.00  0.00    -0.048 C 
ATOM     14  C   UNL d   1      23.438 -16.368  -1.048  0.00  0.00     0.008 C 
ATOM     15  C   UNL d   1      22.231 -16.894  -0.568  0.00  0.00     0.001 C 
ATOM     16  C   UNL d   1      22.161 -18.213  -0.127  0.00  0.00     0.000 C 
ATOM     17  C   UNL d   1      23.302 -19.008  -0.151  0.00  0.00     0.001 C 
ATOM     18  C   UNL d   1      24.511 -18.475  -0.603  0.00  0.00     0.008 C 
ENDBRANCH   1  13
TORSDOF 4
ENDMDL
MODEL 6
REMARK VINA RESULT:    -6.436      3.258      6.385
REMARK INTER + INTRA:          -8.192
REMARK INTER:                  -7.629
REMARK INTRA:                  -0.562
REMARK CONF_INDEPENDENT:        1.193
REMARK UNBOUND:                -0.562
REMARK  4 active torsions:
REMARK  status: ('A' for Active; 'I' for Inactive)
REMARK    1  A    between atoms: O_2  and  N_3 
REMARK       I    between atoms: N_3  and  C_4 
REMARK       I    between atoms: C_4  and  N_6 
REMARK    2  A    between atoms: N_6  and  C_7 
REMARK    3  A    between atoms: C_7  and  C_8 
REMARK    4  A    between atoms: C_8  and  C_9 
ROOT
ATOM      1  C   UNL d   1      22.299 -18.636  -0.375  0.00  0.00     0.003 A 
ATOM      2  C   UNL d   1      22.816 -19.038  -1.745  0.00  0.00     0.017 A 
ATOM      3  C   UNL d   1      23.376 -19.700  -0.521  0.00  0.00     0.017 A 
ENDROOT
BRANCH   1   4
ATOM      4  C   UNL d   1      22.729 -17.296   0.209  0.00  0.00     0.138 C 
BRANCH   4   5
ATOM      5  N   UNL d   1      22.883 -16.299  -0.829  0.00  0.00    -0.340 N 
ATOM      6  C   UNL d   1      24.090 -16.195  -1.473  0.00  0.00     0.339 C 
ATOM      7  N   UNL d   1      24.132 -15.182  -2.394  0.00  0.00    -0.217 N 
ATOM      8  O   UNL d   1      25.016 -16.980  -1.255  0.00  0.00    -0.245 OA
ATOM      9  H   UNL d   1      23.376 -14.537  -2.564  0.00  0.00     0.199 HD
ATOM     10  H   UNL d   1      22.242 -15.520  -0.842  0.00  0.00     0.164 HD
BRANCH   7  11
ATOM     11  O   UNL d   1      25.310 -15.105  -3.174  0.00  0.00    -0.281 OA
ATOM     12  C   UNL d   1      25.148 -14.166  -4.227  0.00  0.00     0.237 C 
ENDBRANCH   7  11
ENDBRANCH   4   5
ENDBRANCH   1   4
BRANCH   1  13
ATOM     13  C   UNL d   1      20.887 -18.949   0.116  0.00  0.00    -0.048 C 
ATOM     14  C   UNL d   1      20.655 -19.339   1.447  0.00  0.00     0.008 C 
ATOM     15  C   UNL d   1      19.603 -20.208   1.766  0.00  0.00     0.001 C 
ATOM     16  C   UNL d   1      18.701 -20.616   0.787  0.00  0.00     0.000 C 
ATOM     17  C   UNL d   1      18.856 -20.167  -0.520  0.00  0.00     0.001 C 
ATOM     18  C   UNL d   1      19.921 -19.324  -0.844  0.00  0.00     0.008 C 
ENDBRANCH   1  13
TORSDOF 4
ENDMDL
MODEL 7
REMARK VINA RESULT:    -6.374      4.384      6.722
REMARK INTER + INTRA:          -8.083
REMARK INTER:                  -7.567
REMARK INTRA:                  -0.516
REMARK CONF_INDEPENDENT:        1.193
REMARK UNBOUND:                -0.516
REMARK  4 active torsions:
REMARK  status: ('A' for Active; 'I' for Inactive)
REMARK    1  A    between atoms: O_2  and  N_3 
REMARK       I    between atoms: N_3  and  C_4 
REMARK       I    between atoms: C_4  and  N_6 
REMARK    2  A    between atoms: N_6  and  C_7 
REMARK    3  A    between atoms: C_7  and  C_8 
REMARK    4  A    between atoms: C_8  and  C_9 
ROOT
ATOM      1  C   UNL d   1      25.507 -16.637  -1.001  0.00  0.00     0.003 A 
ATOM      2  C   UNL d   1      26.882 -17.045  -0.502  0.00  0.00     0.017 A 
ATOM      3  C   UNL d   1      26.355 -15.678  -0.180  0.00  0.00     0.017 A 
ENDROOT
BRANCH   1   4
ATOM      4  C   UNL d   1      25.329 -16.308  -2.478  0.00  0.00     0.138 C 
BRANCH   4   5
ATOM      5  N   UNL d   1      25.207 -14.880  -2.685  0.00  0.00    -0.340 N 
ATOM      6  C   UNL d   1      25.361 -14.379  -3.954  0.00  0.00     0.339 C 
ATOM      7  N   UNL d   1      25.279 -13.014  -4.015  0.00  0.00    -0.217 N 
ATOM      8  O   UNL d   1      25.513 -15.116  -4.931  0.00  0.00    -0.245 OA
ATOM      9  H   UNL d   1      25.163 -12.414  -3.213  0.00  0.00     0.199 HD
ATOM     10  H   UNL d   1      25.327 -14.270  -1.890  0.00  0.00     0.164 HD
BRANCH   7  11
ATOM     11  O   UNL d   1      25.310 -12.451  -5.313  0.00  0.00    -0.281 OA
ATOM     12  C   UNL d   1      26.274 -11.411  -5.381  0.00  0.00     0.237 C 
ENDBRANCH   7  11
ENDBRANCH   4   5
ENDBRANCH   1   4
BRANCH   1  13
ATOM     13  C   UNL d   1      24.208 -17.248  -0.479  0.00  0.00    -0.048 C 
ATOM     14  C   UNL d   1      24.129 -18.617  -0.167  0.00  0.00     0.008 C 
ATOM     15  C   UNL d   1      22.924 -19.318  -0.317  0.00  0.00     0.001 C 
ATOM     16  C   UNL d   1      21.757 -18.648  -0.673  0.00  0.00     0.000 C 
ATOM     17  C   UNL d   1      21.792 -17.275  -0.894  0.00  0.00     0.001 C 
ATOM     18  C   UNL d   1      22.998 -16.582  -0.773  0.00  0.00     0.008 C 
ENDBRANCH   1  13
TORSDOF 4
ENDMDL
MODEL 8
REMARK VINA RESULT:    -6.352      5.025      7.083
REMARK INTER + INTRA:          -8.067
REMARK INTER:                  -7.546
REMARK INTRA:                  -0.522
REMARK CONF_INDEPENDENT:        1.193
REMARK UNBOUND:                -0.522
REMARK  4 active torsions:
REMARK  status: ('A' for Active; 'I' for Inactive)
REMARK    1  A    between atoms: O_2  and  N_3 
REMARK       I    between atoms: N_3  and  C_4 
REMARK       I    between atoms: C_4  and  N_6 
REMARK    2  A    between atoms: N_6  and  C_7 
REMARK    3  A    between atoms: C_7  and  C_8 
REMARK    4  A    between atoms: C_8  and  C_9 
ROOT
ATOM      1  C   UNL d   1      27.397 -16.312  -0.444  0.00  0.00     0.003 A 
ATOM      2  C   UNL d   1      28.134 -16.562  -1.749  0.00  0.00     0.017 A 
ATOM      3  C   UNL d   1      28.517 -17.338  -0.523  0.00  0.00     0.017 A 
ENDROOT
BRANCH   1   4
ATOM      4  C   UNL d   1      27.688 -15.033   0.330  0.00  0.00     0.138 C 
BRANCH   4   5
ATOM      5  N   UNL d   1      28.129 -15.326   1.678  0.00  0.00    -0.340 N 
ATOM      6  C   UNL d   1      27.783 -14.465   2.689  0.00  0.00     0.339 C 
ATOM      7  N   UNL d   1      28.302 -14.817   3.906  0.00  0.00    -0.217 N 
ATOM      8  O   UNL d   1      27.040 -13.500   2.499  0.00  0.00    -0.245 OA
ATOM      9  H   UNL d   1      28.917 -15.602   4.057  0.00  0.00     0.199 HD
ATOM     10  H   UNL d   1      28.912 -15.949   1.799  0.00  0.00     0.164 HD
BRANCH   7  11
ATOM     11  O   UNL d   1      27.881 -14.033   5.007  0.00  0.00    -0.281 OA
ATOM     12  C   UNL d   1      28.999 -13.625   5.783  0.00  0.00     0.237 C 
ENDBRANCH   7  11
ENDBRANCH   4   5
ENDBRANCH   1   4
BRANCH   1  13
ATOM     13  C   UNL d   1      25.936 -16.697  -0.217  0.00  0.00    -0.048 C 
ATOM     14  C   UNL d   1      25.591 -17.984   0.234  0.00  0.00     0.008 C 
ATOM     15  C   UNL d   1      24.378 -18.574  -0.144  0.00  0.00     0.001 C 
ATOM     16  C   UNL d   1      23.442 -17.854  -0.882  0.00  0.00     0.000 C 
ATOM     17  C   UNL d   1      23.722 -16.545  -1.259  0.00  0.00     0.001 C 
ATOM     18  C   UNL d   1      24.944 -15.967  -0.907  0.00  0.00     0.008 C 
ENDBRANCH   1  13
TORSDOF 4
ENDMDL
MODEL 9
REMARK VINA RESULT:    -6.141      1.540      2.277
REMARK INTER + INTRA:          -7.974
REMARK INTER:                  -7.335
REMARK INTRA:                  -0.640
REMARK CONF_INDEPENDENT:        1.193
REMARK UNBOUND:                -0.640
REMARK  4 active torsions:
REMARK  status: ('A' for Active; 'I' for Inactive)
REMARK    1  A    between atoms: O_2  and  N_3 
REMARK       I    between atoms: N_3  and  C_4 
REMARK       I    between atoms: C_4  and  N_6 
REMARK    2  A    between atoms: N_6  and  C_7 
REMARK    3  A    between atoms: C_7  and  C_8 
REMARK    4  A    between atoms: C_8  and  C_9 
ROOT
ATOM      1  C   UNL d   1      24.678 -16.417  -1.067  0.00  0.00     0.003 A 
ATOM      2  C   UNL d   1      24.753 -17.170  -2.384  0.00  0.00     0.017 A 
ATOM      3  C   UNL d   1      24.546 -15.684  -2.393  0.00  0.00     0.017 A 
ENDROOT
BRANCH   1   4
ATOM      4  C   UNL d   1      23.417 -16.541  -0.220  0.00  0.00     0.138 C 
BRANCH   4   5
ATOM      5  N   UNL d   1      23.019 -17.926  -0.077  0.00  0.00    -0.340 N 
ATOM      6  C   UNL d   1      21.780 -18.308  -0.531  0.00  0.00     0.339 C 
ATOM      7  N   UNL d   1      21.495 -19.625  -0.291  0.00  0.00    -0.217 N 
ATOM      8  O   UNL d   1      21.037 -17.529  -1.131  0.00  0.00    -0.245 OA
ATOM      9  H   UNL d   1      22.102 -20.258   0.208  0.00  0.00     0.199 HD
ATOM     10  H   UNL d   1      23.496 -18.492   0.607  0.00  0.00     0.164 HD
BRANCH   7  11
ATOM     11  O   UNL d   1      20.283 -20.105  -0.843  0.00  0.00    -0.281 OA
ATOM     12  C   UNL d   1      19.173 -19.618  -0.103  0.00  0.00     0.237 C 
ENDBRANCH   7  11
ENDBRANCH   4   5
ENDBRANCH   1   4
BRANCH   1  13
ATOM     13  C   UNL d   1      25.874 -16.232  -0.134  0.00  0.00    -0.048 C 
ATOM     14  C   UNL d   1      26.295 -14.947   0.253  0.00  0.00     0.008 C 
ATOM     15  C   UNL d   1      27.645 -14.687   0.523  0.00  0.00     0.001 C 
ATOM     16  C   UNL d   1      28.579 -15.721   0.519  0.00  0.00     0.000 C 
ATOM     17  C   UNL d   1      28.167 -17.018   0.231  0.00  0.00     0.001 C 
ATOM     18  C   UNL d   1      26.827 -17.272  -0.066  0.00  0.00     0.008 C 
ENDBRANCH   1  13
TORSDOF 4
ENDMDL
