MODEL 1
REMARK VINA RESULT:    -6.701      0.000      0.000
REMARK INTER + INTRA:         -15.380
REMARK INTER:                 -10.579
REMARK INTRA:                  -4.801
REMARK CONF_INDEPENDENT:        3.878
REMARK UNBOUND:                -4.801
REMARK  13 active torsions:
REMARK  status: ('A' for Active; 'I' for Inactive)
REMARK    1  A    between atoms: C_2  and  C_3 
REMARK    2  A    between atoms: C_3  and  C_4 
REMARK       I    between atoms: C_4  and  N_6 
REMARK    3  A    between atoms: N_6  and  C_7 
REMARK    4  A    between atoms: C_14  and  N_6 
REMARK    5  A    between atoms: C_7  and  C_8 
REMARK    6  A    between atoms: C_14  and  C_26 
REMARK    7  A    between atoms: C_14  and  C_15 
REMARK       I    between atoms: C_15  and  N_17 
REMARK    8  A    between atoms: N_17  and  C_18 
REMARK    9  A    between atoms: C_18  and  C_21 
REMARK   10  A    between atoms: C_21  and  C_22 
REMARK   11  A    between atoms: C_27  and  O_28 
REMARK   12  A    between atoms: C_30  and  O_31 
REMARK   13  A    between atoms: C_33  and  O_34 
ROOT
ATOM      1  C   UNL d   1      27.689 -16.041   0.034  0.00  0.00     0.218 C 
ENDROOT
BRANCH   1   2
ATOM      2  C   UNL d   1      28.594 -16.131  -1.211  0.00  0.00     0.040 C 
ATOM      3  C   UNL d   1      29.425 -17.263  -1.388  0.00  0.00     0.080 C 
ATOM      4  C   UNL d   1      30.334 -17.349  -2.462  0.00  0.00     0.073 C 
ATOM      5  C   UNL d   1      30.378 -16.353  -3.424  0.00  0.00     0.071 C 
ATOM      6  C   UNL d   1      29.570 -15.265  -3.313  0.00  0.00     0.073 C 
ATOM      7  C   UNL d   1      28.792 -15.129  -2.182  0.00  0.00     0.080 C 
BRANCH   3   8
ATOM      8  O   UNL d   1      29.513 -18.326  -0.522  0.00  0.00    -0.360 OA
ATOM      9  H   UNL d   1      28.857 -18.323   0.196  0.00  0.00     0.217 HD
ENDBRANCH   3   8
BRANCH   5  10
ATOM     10  O   UNL d   1      31.246 -16.312  -4.464  0.00  0.00    -0.361 OA
ATOM     11  H   UNL d   1      31.730 -15.477  -4.431  0.00  0.00     0.217 HD
ENDBRANCH   5  10
BRANCH   7  12
ATOM     12  O   UNL d   1      28.503 -13.815  -2.039  0.00  0.00    -0.360 OA
ATOM     13  H   UNL d   1      27.574 -13.698  -1.775  0.00  0.00     0.217 HD
ENDBRANCH   7  12
ENDBRANCH   1   2
BRANCH   1  14
ATOM     14  C   UNL d   1      27.774 -14.644   0.688  0.00  0.00     0.246 C 
ATOM     15  O   UNL d   1      27.270 -13.671   0.119  0.00  0.00    -0.271 OA
ATOM     16  N   UNL d   1      28.494 -14.531   1.874  0.00  0.00    -0.351 N 
ATOM     17  H   UNL d   1      28.945 -15.366   2.242  0.00  0.00     0.163 HD
BRANCH  16  18
ATOM     18  C   UNL d   1      28.776 -13.220   2.508  0.00  0.00     0.026 C 
ATOM     19  C   UNL d   1      29.497 -12.263   1.525  0.00  0.00     0.038 C 
ATOM     20  C   UNL d   1      27.408 -12.595   2.782  0.00  0.00     0.038 C 
BRANCH  18  21
ATOM     21  C   UNL d   1      29.597 -13.442   3.852  0.00  0.00     0.038 C 
BRANCH  21  22
ATOM     22  C   UNL d   1      28.832 -13.945   5.127  0.00  0.00    -0.049 C 
ATOM     23  C   UNL d   1      27.778 -15.025   4.826  0.00  0.00     0.014 C 
ATOM     24  C   UNL d   1      29.806 -14.448   6.197  0.00  0.00     0.014 C 
ATOM     25  C   UNL d   1      28.048 -12.791   5.779  0.00  0.00     0.014 C 
ENDBRANCH  21  22
ENDBRANCH  18  21
ENDBRANCH  16  18
ENDBRANCH   1  14
BRANCH   1  26
ATOM     26  N   UNL d   1      26.258 -16.524   0.029  0.00  0.00    -0.328 N 
ATOM     27  C   UNL d   1      25.947 -17.831   0.398  0.00  0.00     0.221 C 
ATOM     28  O   UNL d   1      26.797 -18.657   0.785  0.00  0.00    -0.273 OA
BRANCH  27  29
ATOM     29  C   UNL d   1      24.483 -18.218   0.232  0.00  0.00     0.103 C 
BRANCH  29  30
ATOM     30  C   UNL d   1      24.026 -18.347  -1.200  0.00  0.00     0.005 C 
ATOM     31  C   UNL d   1      22.553 -18.720  -1.257  0.00  0.00     0.005 C 
ENDBRANCH  29  30
ENDBRANCH  27  29
BRANCH  26  32
ATOM     32  C   UNL d   1      25.174 -15.663  -0.445  0.00  0.00     0.192 C 
BRANCH  32  33
ATOM     33  C   UNL d   1      25.381 -15.204  -1.844  0.00  0.00     0.071 A 
ATOM     34  C   UNL d   1      25.539 -15.954  -2.978  0.00  0.00     0.037 A 
ATOM     35  C   UNL d   1      25.645 -15.078  -4.055  0.00  0.00     0.035 A 
ATOM     36  C   UNL d   1      25.699 -13.823  -3.527  0.00  0.00     0.049 A 
ATOM     37  C   UNL d   1      25.973 -12.579  -4.259  0.00  0.00     0.076 C 
ATOM     38  O   UNL d   1      25.553 -13.870  -2.165  0.00  0.00    -0.318 OA
ENDBRANCH  32  33
ENDBRANCH  26  32
ENDBRANCH   1  26
TORSDOF 13
ENDMDL
MODEL 2
REMARK VINA RESULT:    -6.519      1.944      4.990
REMARK INTER + INTRA:         -15.269
REMARK INTER:                 -10.397
REMARK INTRA:                  -4.872
REMARK CONF_INDEPENDENT:        3.878
REMARK UNBOUND:                -4.872
REMARK  13 active torsions:
REMARK  status: ('A' for Active; 'I' for Inactive)
REMARK    1  A    between atoms: C_2  and  C_3 
REMARK    2  A    between atoms: C_3  and  C_4 
REMARK       I    between atoms: C_4  and  N_6 
REMARK    3  A    between atoms: N_6  and  C_7 
REMARK    4  A    between atoms: C_14  and  N_6 
REMARK    5  A    between atoms: C_7  and  C_8 
REMARK    6  A    between atoms: C_14  and  C_26 
REMARK    7  A    between atoms: C_14  and  C_15 
REMARK       I    between atoms: C_15  and  N_17 
REMARK    8  A    between atoms: N_17  and  C_18 
REMARK    9  A    between atoms: C_18  and  C_21 
REMARK   10  A    between atoms: C_21  and  C_22 
REMARK   11  A    between atoms: C_27  and  O_28 
REMARK   12  A    between atoms: C_30  and  O_31 
REMARK   13  A    between atoms: C_33  and  O_34 
ROOT
ATOM      1  C   UNL d   1      25.825 -15.582  -1.136  0.00  0.00     0.218 C 
ENDROOT
BRANCH   1   2
ATOM      2  C   UNL d   1      24.728 -16.614  -0.808  0.00  0.00     0.040 C 
ATOM      3  C   UNL d   1      25.095 -17.947  -0.499  0.00  0.00     0.080 C 
ATOM      4  C   UNL d   1      24.125 -18.946  -0.280  0.00  0.00     0.073 C 
ATOM      5  C   UNL d   1      22.777 -18.627  -0.284  0.00  0.00     0.071 C 
ATOM      6  C   UNL d   1      22.381 -17.351  -0.540  0.00  0.00     0.073 C 
ATOM      7  C   UNL d   1      23.335 -16.419  -0.893  0.00  0.00     0.080 C 
BRANCH   3   8
ATOM      8  O   UNL d   1      26.381 -18.428  -0.469  0.00  0.00    -0.360 OA
ATOM      9  H   UNL d   1      26.950 -18.030   0.211  0.00  0.00     0.217 HD
ENDBRANCH   3   8
BRANCH   5  10
ATOM     10  O   UNL d   1      21.765 -19.516  -0.138  0.00  0.00    -0.361 OA
ATOM     11  H   UNL d   1      21.782 -19.860   0.765  0.00  0.00     0.217 HD
ENDBRANCH   5  10
BRANCH   7  12
ATOM     12  O   UNL d   1      22.710 -15.434  -1.579  0.00  0.00    -0.360 OA
ATOM     13  H   UNL d   1      23.323 -15.019  -2.210  0.00  0.00     0.217 HD
ENDBRANCH   7  12
ENDBRANCH   1   2
BRANCH   1  14
ATOM     14  C   UNL d   1      26.856 -15.478   0.010  0.00  0.00     0.246 C 
ATOM     15  O   UNL d   1      26.958 -16.399   0.826  0.00  0.00    -0.271 OA
ATOM     16  N   UNL d   1      27.582 -14.296   0.117  0.00  0.00    -0.351 N 
ATOM     17  H   UNL d   1      27.386 -13.551  -0.549  0.00  0.00     0.163 HD
BRANCH  16  18
ATOM     18  C   UNL d   1      28.482 -14.018   1.263  0.00  0.00     0.026 C 
ATOM     19  C   UNL d   1      29.862 -14.699   1.071  0.00  0.00     0.038 C 
ATOM     20  C   UNL d   1      28.743 -12.512   1.223  0.00  0.00     0.038 C 
BRANCH  18  21
ATOM     21  C   UNL d   1      27.773 -14.454   2.618  0.00  0.00     0.038 C 
BRANCH  21  22
ATOM     22  C   UNL d   1      28.357 -13.926   3.976  0.00  0.00    -0.049 C 
ATOM     23  C   UNL d   1      29.895 -13.933   4.029  0.00  0.00     0.014 C 
ATOM     24  C   UNL d   1      27.830 -12.525   4.300  0.00  0.00     0.014 C 
ATOM     25  C   UNL d   1      27.913 -14.826   5.144  0.00  0.00     0.014 C 
ENDBRANCH  21  22
ENDBRANCH  18  21
ENDBRANCH  16  18
ENDBRANCH   1  14
BRANCH   1  26
ATOM     26  N   UNL d   1      26.531 -15.552  -2.471  0.00  0.00    -0.328 N 
ATOM     27  C   UNL d   1      25.886 -15.065  -3.606  0.00  0.00     0.221 C 
ATOM     28  O   UNL d   1      24.730 -14.598  -3.592  0.00  0.00    -0.273 OA
BRANCH  27  29
ATOM     29  C   UNL d   1      26.671 -15.203  -4.904  0.00  0.00     0.103 C 
BRANCH  29  30
ATOM     30  C   UNL d   1      27.300 -13.922  -5.396  0.00  0.00     0.005 C 
ATOM     31  C   UNL d   1      28.517 -14.223  -6.255  0.00  0.00     0.005 C 
ENDBRANCH  29  30
ENDBRANCH  27  29
BRANCH  26  32
ATOM     32  C   UNL d   1      27.876 -16.110  -2.626  0.00  0.00     0.192 C 
BRANCH  32  33
ATOM     33  C   UNL d   1      28.932 -15.063  -2.599  0.00  0.00     0.071 A 
ATOM     34  C   UNL d   1      30.284 -15.204  -2.762  0.00  0.00     0.037 A 
ATOM     35  C   UNL d   1      30.851 -13.933  -2.712  0.00  0.00     0.035 A 
ATOM     36  C   UNL d   1      29.849 -13.076  -2.371  0.00  0.00     0.049 A 
ATOM     37  C   UNL d   1      29.993 -11.652  -2.040  0.00  0.00     0.076 C 
ATOM     38  O   UNL d   1      28.656 -13.745  -2.281  0.00  0.00    -0.318 OA
ENDBRANCH  32  33
ENDBRANCH  26  32
ENDBRANCH   1  26
TORSDOF 13
ENDMDL
MODEL 3
REMARK VINA RESULT:    -6.373      2.118      6.200
REMARK INTER + INTRA:         -15.311
REMARK INTER:                 -10.251
REMARK INTRA:                  -5.059
REMARK CONF_INDEPENDENT:        3.878
REMARK UNBOUND:                -5.059
REMARK  13 active torsions:
REMARK  status: ('A' for Active; 'I' for Inactive)
REMARK    1  A    between atoms: C_2  and  C_3 
REMARK    2  A    between atoms: C_3  and  C_4 
REMARK       I    between atoms: C_4  and  N_6 
REMARK    3  A    between atoms: N_6  and  C_7 
REMARK    4  A    between atoms: C_14  and  N_6 
REMARK    5  A    between atoms: C_7  and  C_8 
REMARK    6  A    between atoms: C_14  and  C_26 
REMARK    7  A    between atoms: C_14  and  C_15 
REMARK       I    between atoms: C_15  and  N_17 
REMARK    8  A    between atoms: N_17  and  C_18 
REMARK    9  A    between atoms: C_18  and  C_21 
REMARK   10  A    between atoms: C_21  and  C_22 
REMARK   11  A    between atoms: C_27  and  O_28 
REMARK   12  A    between atoms: C_30  and  O_31 
REMARK   13  A    between atoms: C_33  and  O_34 
ROOT
ATOM      1  C   UNL d   1      27.705 -14.920   1.420  0.00  0.00     0.218 C 
ENDROOT
BRANCH   1   2
ATOM      2  C   UNL d   1      28.581 -14.197   2.463  0.00  0.00     0.040 C 
ATOM      3  C   UNL d   1      29.548 -13.258   2.030  0.00  0.00     0.080 C 
ATOM      4  C   UNL d   1      30.432 -12.639   2.937  0.00  0.00     0.073 C 
ATOM      5  C   UNL d   1      30.319 -12.877   4.298  0.00  0.00     0.071 C 
ATOM      6  C   UNL d   1      29.380 -13.744   4.761  0.00  0.00     0.073 C 
ATOM      7  C   UNL d   1      28.620 -14.449   3.849  0.00  0.00     0.080 C 
BRANCH   3   8
ATOM      8  O   UNL d   1      29.797 -12.922   0.722  0.00  0.00    -0.360 OA
ATOM      9  H   UNL d   1      30.340 -13.561   0.232  0.00  0.00     0.217 HD
ENDBRANCH   3   8
BRANCH   5  10
ATOM     10  O   UNL d   1      31.147 -12.377   5.248  0.00  0.00    -0.361 OA
ATOM     11  H   UNL d   1      31.902 -12.972   5.346  0.00  0.00     0.217 HD
ENDBRANCH   5  10
BRANCH   7  12
ATOM     12  O   UNL d   1      28.166 -15.562   4.469  0.00  0.00    -0.360 OA
ATOM     13  H   UNL d   1      28.796 -16.295   4.354  0.00  0.00     0.217 HD
ENDBRANCH   7  12
ENDBRANCH   1   2
BRANCH   1  14
ATOM     14  C   UNL d   1      27.117 -13.922   0.396  0.00  0.00     0.246 C 
ATOM     15  O   UNL d   1      25.979 -13.476   0.563  0.00  0.00    -0.271 OA
ATOM     16  N   UNL d   1      27.883 -13.629  -0.728  0.00  0.00    -0.351 N 
ATOM     17  H   UNL d   1      28.780 -14.097  -0.833  0.00  0.00     0.163 HD
BRANCH  16  18
ATOM     18  C   UNL d   1      27.361 -12.813  -1.852  0.00  0.00     0.026 C 
ATOM     19  C   UNL d   1      27.396 -11.301  -1.511  0.00  0.00     0.038 C 
ATOM     20  C   UNL d   1      28.354 -13.012  -2.998  0.00  0.00     0.038 C 
BRANCH  18  21
ATOM     21  C   UNL d   1      25.905 -13.313  -2.246  0.00  0.00     0.038 C 
BRANCH  21  22
ATOM     22  C   UNL d   1      25.566 -13.522  -3.764  0.00  0.00    -0.049 C 
ATOM     23  C   UNL d   1      26.331 -14.691  -4.410  0.00  0.00     0.014 C 
ATOM     24  C   UNL d   1      24.060 -13.700  -3.978  0.00  0.00     0.014 C 
ATOM     25  C   UNL d   1      25.965 -12.282  -4.585  0.00  0.00     0.014 C 
ENDBRANCH  21  22
ENDBRANCH  18  21
ENDBRANCH  16  18
ENDBRANCH   1  14
BRANCH   1  26
ATOM     26  N   UNL d   1      28.160 -16.176   0.716  0.00  0.00    -0.328 N 
ATOM     27  C   UNL d   1      29.329 -16.183  -0.042  0.00  0.00     0.221 C 
ATOM     28  O   UNL d   1      30.080 -15.194  -0.156  0.00  0.00    -0.273 OA
BRANCH  27  29
ATOM     29  C   UNL d   1      29.606 -17.479  -0.792  0.00  0.00     0.103 C 
BRANCH  29  30
ATOM     30  C   UNL d   1      30.036 -17.294  -2.227  0.00  0.00     0.005 C 
ATOM     31  C   UNL d   1      29.062 -16.387  -2.962  0.00  0.00     0.005 C 
ENDBRANCH  29  30
ENDBRANCH  27  29
BRANCH  26  32
ATOM     32  C   UNL d   1      27.345 -17.391   0.739  0.00  0.00     0.192 C 
BRANCH  32  33
ATOM     33  C   UNL d   1      26.128 -17.276  -0.109  0.00  0.00     0.071 A 
ATOM     34  C   UNL d   1      25.967 -16.603  -1.290  0.00  0.00     0.037 A 
ATOM     35  C   UNL d   1      24.668 -16.835  -1.736  0.00  0.00     0.035 A 
ATOM     36  C   UNL d   1      24.035 -17.515  -0.740  0.00  0.00     0.049 A 
ATOM     37  C   UNL d   1      22.603 -17.843  -0.680  0.00  0.00     0.076 C 
ATOM     38  O   UNL d   1      24.906 -17.790   0.282  0.00  0.00    -0.318 OA
ENDBRANCH  32  33
ENDBRANCH  26  32
ENDBRANCH   1  26
TORSDOF 13
ENDMDL
MODEL 4
REMARK VINA RESULT:    -6.321      1.829      7.032
REMARK INTER + INTRA:         -14.977
REMARK INTER:                 -10.199
REMARK INTRA:                  -4.778
REMARK CONF_INDEPENDENT:        3.878
REMARK UNBOUND:                -4.778
REMARK  13 active torsions:
REMARK  status: ('A' for Active; 'I' for Inactive)
REMARK    1  A    between atoms: C_2  and  C_3 
REMARK    2  A    between atoms: C_3  and  C_4 
REMARK       I    between atoms: C_4  and  N_6 
REMARK    3  A    between atoms: N_6  and  C_7 
REMARK    4  A    between atoms: C_14  and  N_6 
REMARK    5  A    between atoms: C_7  and  C_8 
REMARK    6  A    between atoms: C_14  and  C_26 
REMARK    7  A    between atoms: C_14  and  C_15 
REMARK       I    between atoms: C_15  and  N_17 
REMARK    8  A    between atoms: N_17  and  C_18 
REMARK    9  A    between atoms: C_18  and  C_21 
REMARK   10  A    between atoms: C_21  and  C_22 
REMARK   11  A    between atoms: C_27  and  O_28 
REMARK   12  A    between atoms: C_30  and  O_31 
REMARK   13  A    between atoms: C_33  and  O_34 
ROOT
ATOM      1  C   UNL d   1      27.526 -15.952  -0.925  0.00  0.00     0.218 C 
ENDROOT
BRANCH   1   2
ATOM      2  C   UNL d   1      26.113 -16.472  -0.595  0.00  0.00     0.040 C 
ATOM      3  C   UNL d   1      25.967 -17.637   0.198  0.00  0.00     0.080 C 
ATOM      4  C   UNL d   1      24.701 -18.201   0.451  0.00  0.00     0.073 C 
ATOM      5  C   UNL d   1      23.551 -17.579  -0.009  0.00  0.00     0.071 C 
ATOM      6  C   UNL d   1      23.643 -16.439  -0.744  0.00  0.00     0.073 C 
ATOM      7  C   UNL d   1      24.894 -15.980  -1.103  0.00  0.00     0.080 C 
BRANCH   3   8
ATOM      8  O   UNL d   1      27.001 -18.378   0.716  0.00  0.00    -0.360 OA
ATOM      9  H   UNL d   1      27.848 -17.905   0.786  0.00  0.00     0.217 HD
ENDBRANCH   3   8
BRANCH   5  10
ATOM     10  O   UNL d   1      22.293 -18.063   0.133  0.00  0.00    -0.361 OA
ATOM     11  H   UNL d   1      21.882 -17.639   0.897  0.00  0.00     0.217 HD
ENDBRANCH   5  10
BRANCH   7  12
ATOM     12  O   UNL d   1      24.745 -15.203  -2.200  0.00  0.00    -0.360 OA
ATOM     13  H   UNL d   1      25.096 -14.311  -2.035  0.00  0.00     0.217 HD
ENDBRANCH   7  12
ENDBRANCH   1   2
BRANCH   1  14
ATOM     14  C   UNL d   1      27.785 -15.961  -2.448  0.00  0.00     0.246 C 
ATOM     15  O   UNL d   1      28.558 -16.793  -2.932  0.00  0.00    -0.271 OA
ATOM     16  N   UNL d   1      27.183 -14.963  -3.209  0.00  0.00    -0.351 N 
ATOM     17  H   UNL d   1      26.620 -14.266  -2.726  0.00  0.00     0.163 HD
BRANCH  16  18
ATOM     18  C   UNL d   1      27.481 -14.775  -4.650  0.00  0.00     0.026 C 
ATOM     19  C   UNL d   1      28.811 -15.468  -5.044  0.00  0.00     0.038 C 
ATOM     20  C   UNL d   1      26.376 -15.522  -5.397  0.00  0.00     0.038 C 
BRANCH  18  21
ATOM     21  C   UNL d   1      27.478 -13.224  -4.999  0.00  0.00     0.038 C 
BRANCH  21  22
ATOM     22  C   UNL d   1      26.284 -12.341  -4.492  0.00  0.00    -0.049 C 
ATOM     23  C   UNL d   1      24.989 -13.137  -4.250  0.00  0.00     0.014 C 
ATOM     24  C   UNL d   1      26.663 -11.565  -3.227  0.00  0.00     0.014 C 
ATOM     25  C   UNL d   1      25.909 -11.279  -5.543  0.00  0.00     0.014 C 
ENDBRANCH  21  22
ENDBRANCH  18  21
ENDBRANCH  16  18
ENDBRANCH   1  14
BRANCH   1  26
ATOM     26  N   UNL d   1      28.083 -14.688  -0.313  0.00  0.00    -0.328 N 
ATOM     27  C   UNL d   1      27.402 -13.479  -0.433  0.00  0.00     0.221 C 
ATOM     28  O   UNL d   1      26.298 -13.366  -1.003  0.00  0.00    -0.273 OA
BRANCH  27  29
ATOM     29  C   UNL d   1      28.133 -12.266   0.126  0.00  0.00     0.103 C 
BRANCH  29  30
ATOM     30  C   UNL d   1      27.350 -11.476   1.146  0.00  0.00     0.005 C 
ATOM     31  C   UNL d   1      26.280 -12.346   1.786  0.00  0.00     0.005 C 
ENDBRANCH  29  30
ENDBRANCH  27  29
BRANCH  26  32
ATOM     32  C   UNL d   1      29.390 -14.682   0.346  0.00  0.00     0.192 C 
BRANCH  32  33
ATOM     33  C   UNL d   1      29.287 -14.443   1.811  0.00  0.00     0.071 A 
ATOM     34  C   UNL d   1      30.277 -14.116   2.698  0.00  0.00     0.037 A 
ATOM     35  C   UNL d   1      29.685 -13.939   3.946  0.00  0.00     0.035 A 
ATOM     36  C   UNL d   1      28.382 -14.311   3.811  0.00  0.00     0.049 A 
ATOM     37  C   UNL d   1      27.398 -14.451   4.893  0.00  0.00     0.076 C 
ATOM     38  O   UNL d   1      28.110 -14.640   2.508  0.00  0.00    -0.318 OA
ENDBRANCH  32  33
ENDBRANCH  26  32
ENDBRANCH   1  26
TORSDOF 13
ENDMDL
MODEL 5
REMARK VINA RESULT:    -6.244      1.672      4.567
REMARK INTER + INTRA:         -15.488
REMARK INTER:                 -10.121
REMARK INTRA:                  -5.367
REMARK CONF_INDEPENDENT:        3.878
REMARK UNBOUND:                -5.367
REMARK  13 active torsions:
REMARK  status: ('A' for Active; 'I' for Inactive)
REMARK    1  A    between atoms: C_2  and  C_3 
REMARK    2  A    between atoms: C_3  and  C_4 
REMARK       I    between atoms: C_4  and  N_6 
REMARK    3  A    between atoms: N_6  and  C_7 
REMARK    4  A    between atoms: C_14  and  N_6 
REMARK    5  A    between atoms: C_7  and  C_8 
REMARK    6  A    between atoms: C_14  and  C_26 
REMARK    7  A    between atoms: C_14  and  C_15 
REMARK       I    between atoms: C_15  and  N_17 
REMARK    8  A    between atoms: N_17  and  C_18 
REMARK    9  A    between atoms: C_18  and  C_21 
REMARK   10  A    between atoms: C_21  and  C_22 
REMARK   11  A    between atoms: C_27  and  O_28 
REMARK   12  A    between atoms: C_30  and  O_31 
REMARK   13  A    between atoms: C_33  and  O_34 
ROOT
ATOM      1  C   UNL d   1      26.932 -15.751  -1.436  0.00  0.00     0.218 C 
ENDROOT
BRANCH   1   2
ATOM      2  C   UNL d   1      25.720 -16.611  -1.029  0.00  0.00     0.040 C 
ATOM      3  C   UNL d   1      24.438 -16.296  -1.543  0.00  0.00     0.080 C 
ATOM      4  C   UNL d   1      23.287 -16.997  -1.131  0.00  0.00     0.073 C 
ATOM      5  C   UNL d   1      23.394 -18.074  -0.266  0.00  0.00     0.071 C 
ATOM      6  C   UNL d   1      24.611 -18.434   0.224  0.00  0.00     0.073 C 
ATOM      7  C   UNL d   1      25.705 -17.650  -0.077  0.00  0.00     0.080 C 
BRANCH   3   8
ATOM      8  O   UNL d   1      24.159 -15.255  -2.395  0.00  0.00    -0.360 OA
ATOM      9  H   UNL d   1      24.939 -14.839  -2.800  0.00  0.00     0.217 HD
ENDBRANCH   3   8
BRANCH   5  10
ATOM     10  O   UNL d   1      22.350 -18.780   0.233  0.00  0.00    -0.361 OA
ATOM     11  H   UNL d   1      22.690 -19.577   0.659  0.00  0.00     0.217 HD
ENDBRANCH   5  10
BRANCH   7  12
ATOM     12  O   UNL d   1      26.637 -17.864   0.881  0.00  0.00    -0.360 OA
ATOM     13  H   UNL d   1      27.479 -18.139   0.479  0.00  0.00     0.217 HD
ENDBRANCH   7  12
ENDBRANCH   1   2
BRANCH   1  14
ATOM     14  C   UNL d   1      27.200 -14.635  -0.401  0.00  0.00     0.246 C 
ATOM     15  O   UNL d   1      27.336 -13.469  -0.781  0.00  0.00    -0.271 OA
ATOM     16  N   UNL d   1      27.354 -15.016   0.929  0.00  0.00    -0.351 N 
ATOM     17  H   UNL d   1      27.304 -16.008   1.152  0.00  0.00     0.163 HD
BRANCH  16  18
ATOM     18  C   UNL d   1      27.768 -14.060   1.984  0.00  0.00     0.026 C 
ATOM     19  C   UNL d   1      29.059 -13.302   1.583  0.00  0.00     0.038 C 
ATOM     20  C   UNL d   1      26.660 -13.007   2.041  0.00  0.00     0.038 C 
BRANCH  18  21
ATOM     21  C   UNL d   1      27.919 -14.825   3.370  0.00  0.00     0.038 C 
BRANCH  21  22
ATOM     22  C   UNL d   1      28.774 -14.162   4.506  0.00  0.00    -0.049 C 
ATOM     23  C   UNL d   1      30.292 -14.263   4.273  0.00  0.00     0.014 C 
ATOM     24  C   UNL d   1      28.375 -12.699   4.721  0.00  0.00     0.014 C 
ATOM     25  C   UNL d   1      28.529 -14.868   5.853  0.00  0.00     0.014 C 
ENDBRANCH  21  22
ENDBRANCH  18  21
ENDBRANCH  16  18
ENDBRANCH   1  14
BRANCH   1  26
ATOM     26  N   UNL d   1      28.238 -16.359  -1.890  0.00  0.00    -0.328 N 
ATOM     27  C   UNL d   1      29.097 -16.963  -0.975  0.00  0.00     0.221 C 
ATOM     28  O   UNL d   1      28.838 -17.075   0.240  0.00  0.00    -0.273 OA
BRANCH  27  29
ATOM     29  C   UNL d   1      30.429 -17.428  -1.548  0.00  0.00     0.103 C 
BRANCH  29  30
ATOM     30  C   UNL d   1      31.551 -16.426  -1.423  0.00  0.00     0.005 C 
ATOM     31  C   UNL d   1      31.442 -15.667  -0.110  0.00  0.00     0.005 C 
ENDBRANCH  29  30
ENDBRANCH  27  29
BRANCH  26  32
ATOM     32  C   UNL d   1      28.674 -16.256  -3.283  0.00  0.00     0.192 C 
BRANCH  32  33
ATOM     33  C   UNL d   1      28.023 -15.128  -4.001  0.00  0.00     0.071 A 
ATOM     34  C   UNL d   1      28.583 -14.218  -4.856  0.00  0.00     0.037 A 
ATOM     35  C   UNL d   1      27.564 -13.391  -5.321  0.00  0.00     0.035 A 
ATOM     36  C   UNL d   1      26.445 -13.727  -4.621  0.00  0.00     0.049 A 
ATOM     37  C   UNL d   1      25.155 -13.022  -4.645  0.00  0.00     0.076 C 
ATOM     38  O   UNL d   1      26.700 -14.786  -3.789  0.00  0.00    -0.318 OA
ENDBRANCH  32  33
ENDBRANCH  26  32
ENDBRANCH   1  26
TORSDOF 13
ENDMDL
MODEL 6
REMARK VINA RESULT:    -6.224      1.673      4.944
REMARK INTER + INTRA:         -15.538
REMARK INTER:                 -10.102
REMARK INTRA:                  -5.436
REMARK CONF_INDEPENDENT:        3.878
REMARK UNBOUND:                -5.436
REMARK  13 active torsions:
REMARK  status: ('A' for Active; 'I' for Inactive)
REMARK    1  A    between atoms: C_2  and  C_3 
REMARK    2  A    between atoms: C_3  and  C_4 
REMARK       I    between atoms: C_4  and  N_6 
REMARK    3  A    between atoms: N_6  and  C_7 
REMARK    4  A    between atoms: C_14  and  N_6 
REMARK    5  A    between atoms: C_7  and  C_8 
REMARK    6  A    between atoms: C_14  and  C_26 
REMARK    7  A    between atoms: C_14  and  C_15 
REMARK       I    between atoms: C_15  and  N_17 
REMARK    8  A    between atoms: N_17  and  C_18 
REMARK    9  A    between atoms: C_18  and  C_21 
REMARK   10  A    between atoms: C_21  and  C_22 
REMARK   11  A    between atoms: C_27  and  O_28 
REMARK   12  A    between atoms: C_30  and  O_31 
REMARK   13  A    between atoms: C_33  and  O_34 
ROOT
ATOM      1  C   UNL d   1      25.904 -14.672  -0.989  0.00  0.00     0.218 C 
ENDROOT
BRANCH   1   2
ATOM      2  C   UNL d   1      25.327 -16.092  -0.820  0.00  0.00     0.040 C 
ATOM      3  C   UNL d   1      23.976 -16.340  -1.166  0.00  0.00     0.080 C 
ATOM      4  C   UNL d   1      23.379 -17.598  -0.946  0.00  0.00     0.073 C 
ATOM      5  C   UNL d   1      24.130 -18.654  -0.456  0.00  0.00     0.071 C 
ATOM      6  C   UNL d   1      25.441 -18.469  -0.145  0.00  0.00     0.073 C 
ATOM      7  C   UNL d   1      25.971 -17.198  -0.231  0.00  0.00     0.080 C 
BRANCH   3   8
ATOM      8  O   UNL d   1      23.096 -15.402  -1.647  0.00  0.00    -0.360 OA
ATOM      9  H   UNL d   1      23.407 -14.912  -2.427  0.00  0.00     0.217 HD
ENDBRANCH   3   8
BRANCH   5  10
ATOM     10  O   UNL d   1      23.645 -19.884  -0.160  0.00  0.00    -0.361 OA
ATOM     11  H   UNL d   1      23.054 -19.810   0.601  0.00  0.00     0.217 HD
ENDBRANCH   5  10
BRANCH   7  12
ATOM     12  O   UNL d   1      27.052 -17.150   0.580  0.00  0.00    -0.360 OA
ATOM     13  H   UNL d   1      27.868 -17.073   0.054  0.00  0.00     0.217 HD
ENDBRANCH   7  12
ENDBRANCH   1   2
BRANCH   1  14
ATOM     14  C   UNL d   1      26.642 -14.213   0.289  0.00  0.00     0.246 C 
ATOM     15  O   UNL d   1      26.157 -13.316   0.986  0.00  0.00    -0.271 OA
ATOM     16  N   UNL d   1      27.880 -14.788   0.558  0.00  0.00    -0.351 N 
ATOM     17  H   UNL d   1      28.248 -15.466  -0.106  0.00  0.00     0.163 HD
BRANCH  16  18
ATOM     18  C   UNL d   1      28.750 -14.317   1.664  0.00  0.00     0.026 C 
ATOM     19  C   UNL d   1      30.210 -14.801   1.476  0.00  0.00     0.038 C 
ATOM     20  C   UNL d   1      28.788 -12.794   1.534  0.00  0.00     0.038 C 
BRANCH  18  21
ATOM     21  C   UNL d   1      28.135 -14.770   3.058  0.00  0.00     0.038 C 
BRANCH  21  22
ATOM     22  C   UNL d   1      28.553 -13.990   4.354  0.00  0.00    -0.049 C 
ATOM     23  C   UNL d   1      27.835 -12.638   4.517  0.00  0.00     0.014 C 
ATOM     24  C   UNL d   1      28.348 -14.844   5.608  0.00  0.00     0.014 C 
ATOM     25  C   UNL d   1      30.053 -13.644   4.319  0.00  0.00     0.014 C 
ENDBRANCH  21  22
ENDBRANCH  18  21
ENDBRANCH  16  18
ENDBRANCH   1  14
BRANCH   1  26
ATOM     26  N   UNL d   1      26.684 -14.258  -2.214  0.00  0.00    -0.328 N 
ATOM     27  C   UNL d   1      26.056 -14.141  -3.451  0.00  0.00     0.221 C 
ATOM     28  O   UNL d   1      24.834 -14.326  -3.622  0.00  0.00    -0.273 OA
BRANCH  27  29
ATOM     29  C   UNL d   1      26.982 -13.833  -4.620  0.00  0.00     0.103 C 
BRANCH  29  30
ATOM     30  C   UNL d   1      27.115 -14.950  -5.627  0.00  0.00     0.005 C 
ATOM     31  C   UNL d   1      28.392 -14.787  -6.435  0.00  0.00     0.005 C 
ENDBRANCH  29  30
ENDBRANCH  27  29
BRANCH  26  32
ATOM     32  C   UNL d   1      28.132 -14.052  -2.152  0.00  0.00     0.192 C 
BRANCH  32  33
ATOM     33  C   UNL d   1      28.894 -15.320  -2.311  0.00  0.00     0.071 A 
ATOM     34  C   UNL d   1      29.270 -15.956  -3.463  0.00  0.00     0.037 A 
ATOM     35  C   UNL d   1      30.015 -17.076  -3.105  0.00  0.00     0.035 A 
ATOM     36  C   UNL d   1      29.940 -17.172  -1.748  0.00  0.00     0.049 A 
ATOM     37  C   UNL d   1      30.432 -18.283  -0.922  0.00  0.00     0.076 C 
ATOM     38  O   UNL d   1      29.243 -16.110  -1.231  0.00  0.00    -0.318 OA
ENDBRANCH  32  33
ENDBRANCH  26  32
ENDBRANCH   1  26
TORSDOF 13
ENDMDL
MODEL 7
REMARK VINA RESULT:    -6.101      1.629      4.862
REMARK INTER + INTRA:         -15.191
REMARK INTER:                  -9.979
REMARK INTRA:                  -5.212
REMARK CONF_INDEPENDENT:        3.878
REMARK UNBOUND:                -5.212
REMARK  13 active torsions:
REMARK  status: ('A' for Active; 'I' for Inactive)
REMARK    1  A    between atoms: C_2  and  C_3 
REMARK    2  A    between atoms: C_3  and  C_4 
REMARK       I    between atoms: C_4  and  N_6 
REMARK    3  A    between atoms: N_6  and  C_7 
REMARK    4  A    between atoms: C_14  and  N_6 
REMARK    5  A    between atoms: C_7  and  C_8 
REMARK    6  A    between atoms: C_14  and  C_26 
REMARK    7  A    between atoms: C_14  and  C_15 
REMARK       I    between atoms: C_15  and  N_17 
REMARK    8  A    between atoms: N_17  and  C_18 
REMARK    9  A    between atoms: C_18  and  C_21 
REMARK   10  A    between atoms: C_21  and  C_22 
REMARK   11  A    between atoms: C_27  and  O_28 
REMARK   12  A    between atoms: C_30  and  O_31 
REMARK   13  A    between atoms: C_33  and  O_34 
ROOT
ATOM      1  C   UNL d   1      25.881 -14.718  -1.010  0.00  0.00     0.218 C 
ENDROOT
BRANCH   1   2
ATOM      2  C   UNL d   1      25.112 -16.023  -0.724  0.00  0.00     0.040 C 
ATOM      3  C   UNL d   1      25.830 -17.189  -0.359  0.00  0.00     0.080 C 
ATOM      4  C   UNL d   1      25.180 -18.426  -0.175  0.00  0.00     0.073 C 
ATOM      5  C   UNL d   1      23.801 -18.515  -0.270  0.00  0.00     0.071 C 
ATOM      6  C   UNL d   1      23.069 -17.412  -0.583  0.00  0.00     0.073 C 
ATOM      7  C   UNL d   1      23.731 -16.244  -0.899  0.00  0.00     0.080 C 
BRANCH   3   8
ATOM      8  O   UNL d   1      27.195 -17.274  -0.238  0.00  0.00    -0.360 OA
ATOM      9  H   UNL d   1      27.685 -17.202  -1.075  0.00  0.00     0.217 HD
ENDBRANCH   3   8
BRANCH   5  10
ATOM     10  O   UNL d   1      23.084 -19.660  -0.164  0.00  0.00    -0.361 OA
ATOM     11  H   UNL d   1      23.400 -20.154   0.603  0.00  0.00     0.217 HD
ENDBRANCH   5  10
BRANCH   7  12
ATOM     12  O   UNL d   1      22.894 -15.489  -1.647  0.00  0.00    -0.360 OA
ATOM     13  H   UNL d   1      23.396 -14.830  -2.158  0.00  0.00     0.217 HD
ENDBRANCH   7  12
ENDBRANCH   1   2
BRANCH   1  14
ATOM     14  C   UNL d   1      26.684 -14.259   0.229  0.00  0.00     0.246 C 
ATOM     15  O   UNL d   1      26.286 -13.299   0.893  0.00  0.00    -0.271 OA
ATOM     16  N   UNL d   1      27.882 -14.914   0.496  0.00  0.00    -0.351 N 
ATOM     17  H   UNL d   1      28.182 -15.647  -0.143  0.00  0.00     0.163 HD
BRANCH  16  18
ATOM     18  C   UNL d   1      28.813 -14.462   1.559  0.00  0.00     0.026 C 
ATOM     19  C   UNL d   1      30.232 -15.050   1.351  0.00  0.00     0.038 C 
ATOM     20  C   UNL d   1      28.949 -12.950   1.368  0.00  0.00     0.038 C 
BRANCH  18  21
ATOM     21  C   UNL d   1      28.210 -14.819   2.986  0.00  0.00     0.038 C 
BRANCH  21  22
ATOM     22  C   UNL d   1      28.752 -14.055   4.245  0.00  0.00    -0.049 C 
ATOM     23  C   UNL d   1      28.531 -14.811   5.567  0.00  0.00     0.014 C 
ATOM     24  C   UNL d   1      30.234 -13.703   4.086  0.00  0.00     0.014 C 
ATOM     25  C   UNL d   1      28.017 -12.714   4.424  0.00  0.00     0.014 C 
ENDBRANCH  21  22
ENDBRANCH  18  21
ENDBRANCH  16  18
ENDBRANCH   1  14
BRANCH   1  26
ATOM     26  N   UNL d   1      26.704 -14.524  -2.261  0.00  0.00    -0.328 N 
ATOM     27  C   UNL d   1      26.125 -14.660  -3.521  0.00  0.00     0.221 C 
ATOM     28  O   UNL d   1      24.916 -14.905  -3.699  0.00  0.00    -0.273 OA
BRANCH  27  29
ATOM     29  C   UNL d   1      27.093 -14.555  -4.692  0.00  0.00     0.103 C 
BRANCH  29  30
ATOM     30  C   UNL d   1      27.189 -13.180  -5.306  0.00  0.00     0.005 C 
ATOM     31  C   UNL d   1      26.051 -12.298  -4.817  0.00  0.00     0.005 C 
ENDBRANCH  29  30
ENDBRANCH  27  29
BRANCH  26  32
ATOM     32  C   UNL d   1      28.144 -14.273  -2.185  0.00  0.00     0.192 C 
BRANCH  32  33
ATOM     33  C   UNL d   1      28.946 -15.518  -2.322  0.00  0.00     0.071 A 
ATOM     34  C   UNL d   1      29.414 -16.116  -3.462  0.00  0.00     0.037 A 
ATOM     35  C   UNL d   1      30.161 -17.227  -3.080  0.00  0.00     0.035 A 
ATOM     36  C   UNL d   1      29.999 -17.357  -1.734  0.00  0.00     0.049 A 
ATOM     37  C   UNL d   1      30.464 -18.477  -0.903  0.00  0.00     0.076 C 
ATOM     38  O   UNL d   1      29.244 -16.325  -1.240  0.00  0.00    -0.318 OA
ENDBRANCH  32  33
ENDBRANCH  26  32
ENDBRANCH   1  26
TORSDOF 13
ENDMDL
MODEL 8
REMARK VINA RESULT:    -6.025      1.880      6.769
REMARK INTER + INTRA:         -15.132
REMARK INTER:                  -9.903
REMARK INTRA:                  -5.229
REMARK CONF_INDEPENDENT:        3.878
REMARK UNBOUND:                -5.229
REMARK  13 active torsions:
REMARK  status: ('A' for Active; 'I' for Inactive)
REMARK    1  A    between atoms: C_2  and  C_3 
REMARK    2  A    between atoms: C_3  and  C_4 
REMARK       I    between atoms: C_4  and  N_6 
REMARK    3  A    between atoms: N_6  and  C_7 
REMARK    4  A    between atoms: C_14  and  N_6 
REMARK    5  A    between atoms: C_7  and  C_8 
REMARK    6  A    between atoms: C_14  and  C_26 
REMARK    7  A    between atoms: C_14  and  C_15 
REMARK       I    between atoms: C_15  and  N_17 
REMARK    8  A    between atoms: N_17  and  C_18 
REMARK    9  A    between atoms: C_18  and  C_21 
REMARK   10  A    between atoms: C_21  and  C_22 
REMARK   11  A    between atoms: C_27  and  O_28 
REMARK   12  A    between atoms: C_30  and  O_31 
REMARK   13  A    between atoms: C_33  and  O_34 
ROOT
ATOM      1  C   UNL d   1      26.773 -16.199  -1.080  0.00  0.00     0.218 C 
ENDROOT
BRANCH   1   2
ATOM      2  C   UNL d   1      25.410 -16.858  -0.787  0.00  0.00     0.040 C 
ATOM      3  C   UNL d   1      25.371 -18.173  -0.264  0.00  0.00     0.080 C 
ATOM      4  C   UNL d   1      24.151 -18.850  -0.064  0.00  0.00     0.073 C 
ATOM      5  C   UNL d   1      22.946 -18.208  -0.303  0.00  0.00     0.071 C 
ATOM      6  C   UNL d   1      22.937 -16.932  -0.772  0.00  0.00     0.073 C 
ATOM      7  C   UNL d   1      24.138 -16.336  -1.097  0.00  0.00     0.080 C 
BRANCH   3   8
ATOM      8  O   UNL d   1      26.469 -18.950   0.012  0.00  0.00    -0.360 OA
ATOM      9  H   UNL d   1      27.282 -18.687  -0.451  0.00  0.00     0.217 HD
ENDBRANCH   3   8
BRANCH   5  10
ATOM     10  O   UNL d   1      21.722 -18.781  -0.195  0.00  0.00    -0.361 OA
ATOM     11  H   UNL d   1      21.764 -19.476   0.475  0.00  0.00     0.217 HD
ENDBRANCH   5  10
BRANCH   7  12
ATOM     12  O   UNL d   1      23.878 -15.348  -1.984  0.00  0.00    -0.360 OA
ATOM     13  H   UNL d   1      24.645 -14.755  -2.066  0.00  0.00     0.217 HD
ENDBRANCH   7  12
ENDBRANCH   1   2
BRANCH   1  14
ATOM     14  C   UNL d   1      26.855 -15.709  -2.544  0.00  0.00     0.246 C 
ATOM     15  O   UNL d   1      25.936 -15.966  -3.326  0.00  0.00    -0.271 OA
ATOM     16  N   UNL d   1      28.019 -15.057  -2.939  0.00  0.00    -0.351 N 
ATOM     17  H   UNL d   1      28.765 -14.950  -2.254  0.00  0.00     0.163 HD
BRANCH  16  18
ATOM     18  C   UNL d   1      28.278 -14.683  -4.350  0.00  0.00     0.026 C 
ATOM     19  C   UNL d   1      29.411 -13.630  -4.454  0.00  0.00     0.038 C 
ATOM     20  C   UNL d   1      28.814 -15.949  -5.018  0.00  0.00     0.038 C 
BRANCH  18  21
ATOM     21  C   UNL d   1      26.927 -14.190  -5.030  0.00  0.00     0.038 C 
BRANCH  21  22
ATOM     22  C   UNL d   1      26.197 -12.937  -4.429  0.00  0.00    -0.049 C 
ATOM     23  C   UNL d   1      26.899 -12.349  -3.192  0.00  0.00     0.014 C 
ATOM     24  C   UNL d   1      26.002 -11.847  -5.487  0.00  0.00     0.014 C 
ATOM     25  C   UNL d   1      24.784 -13.313  -3.945  0.00  0.00     0.014 C 
ENDBRANCH  21  22
ENDBRANCH  18  21
ENDBRANCH  16  18
ENDBRANCH   1  14
BRANCH   1  26
ATOM     26  N   UNL d   1      27.389 -15.174  -0.157  0.00  0.00    -0.328 N 
ATOM     27  C   UNL d   1      26.890 -13.875  -0.103  0.00  0.00     0.221 C 
ATOM     28  O   UNL d   1      25.905 -13.489  -0.763  0.00  0.00    -0.273 OA
BRANCH  27  29
ATOM     29  C   UNL d   1      27.678 -12.916   0.780  0.00  0.00     0.103 C 
BRANCH  29  30
ATOM     30  C   UNL d   1      27.029 -12.608   2.108  0.00  0.00     0.005 C 
ATOM     31  C   UNL d   1      27.404 -13.659   3.140  0.00  0.00     0.005 C 
ENDBRANCH  29  30
ENDBRANCH  27  29
BRANCH  26  32
ATOM     32  C   UNL d   1      28.575 -15.493   0.640  0.00  0.00     0.192 C 
BRANCH  32  33
ATOM     33  C   UNL d   1      29.672 -16.071  -0.181  0.00  0.00     0.071 A 
ATOM     34  C   UNL d   1      31.024 -15.910  -0.041  0.00  0.00     0.037 A 
ATOM     35  C   UNL d   1      31.646 -16.693  -1.010  0.00  0.00     0.035 A 
ATOM     36  C   UNL d   1      30.655 -17.186  -1.803  0.00  0.00     0.049 A 
ATOM     37  C   UNL d   1      30.829 -17.936  -3.055  0.00  0.00     0.076 C 
ATOM     38  O   UNL d   1      29.427 -16.809  -1.325  0.00  0.00    -0.318 OA
ENDBRANCH  32  33
ENDBRANCH  26  32
ENDBRANCH   1  26
TORSDOF 13
ENDMDL
MODEL 9
REMARK VINA RESULT:    -5.860      2.071      6.490
REMARK INTER + INTRA:         -15.072
REMARK INTER:                  -9.738
REMARK INTRA:                  -5.334
REMARK CONF_INDEPENDENT:        3.878
REMARK UNBOUND:                -5.334
REMARK  13 active torsions:
REMARK  status: ('A' for Active; 'I' for Inactive)
REMARK    1  A    between atoms: C_2  and  C_3 
REMARK    2  A    between atoms: C_3  and  C_4 
REMARK       I    between atoms: C_4  and  N_6 
REMARK    3  A    between atoms: N_6  and  C_7 
REMARK    4  A    between atoms: C_14  and  N_6 
REMARK    5  A    between atoms: C_7  and  C_8 
REMARK    6  A    between atoms: C_14  and  C_26 
REMARK    7  A    between atoms: C_14  and  C_15 
REMARK       I    between atoms: C_15  and  N_17 
REMARK    8  A    between atoms: N_17  and  C_18 
REMARK    9  A    between atoms: C_18  and  C_21 
REMARK   10  A    between atoms: C_21  and  C_22 
REMARK   11  A    between atoms: C_27  and  O_28 
REMARK   12  A    between atoms: C_30  and  O_31 
REMARK   13  A    between atoms: C_33  and  O_34 
ROOT
ATOM      1  C   UNL d   1      26.542 -16.451  -1.639  0.00  0.00     0.218 C 
ENDROOT
BRANCH   1   2
ATOM      2  C   UNL d   1      25.231 -17.124  -1.186  0.00  0.00     0.040 C 
ATOM      3  C   UNL d   1      24.000 -16.448  -1.372  0.00  0.00     0.080 C 
ATOM      4  C   UNL d   1      22.787 -16.982  -0.895  0.00  0.00     0.073 C 
ATOM      5  C   UNL d   1      22.758 -18.232  -0.298  0.00  0.00     0.071 C 
ATOM      6  C   UNL d   1      23.911 -18.933  -0.132  0.00  0.00     0.073 C 
ATOM      7  C   UNL d   1      25.106 -18.334  -0.474  0.00  0.00     0.080 C 
BRANCH   3   8
ATOM      8  O   UNL d   1      23.858 -15.201  -1.931  0.00  0.00    -0.360 OA
ATOM      9  H   UNL d   1      24.684 -14.697  -2.021  0.00  0.00     0.217 HD
ENDBRANCH   3   8
BRANCH   5  10
ATOM     10  O   UNL d   1      21.658 -18.814   0.240  0.00  0.00    -0.361 OA
ATOM     11  H   UNL d   1      21.912 -19.665   0.619  0.00  0.00     0.217 HD
ENDBRANCH   5  10
BRANCH   7  12
ATOM     12  O   UNL d   1      26.087 -18.950   0.225  0.00  0.00    -0.360 OA
ATOM     13  H   UNL d   1      26.962 -18.671  -0.100  0.00  0.00     0.217 HD
ENDBRANCH   7  12
ENDBRANCH   1   2
BRANCH   1  14
ATOM     14  C   UNL d   1      26.332 -15.629  -2.930  0.00  0.00     0.246 C 
ATOM     15  O   UNL d   1      25.426 -15.936  -3.710  0.00  0.00    -0.271 OA
ATOM     16  N   UNL d   1      27.240 -14.608  -3.197  0.00  0.00    -0.351 N 
ATOM     17  H   UNL d   1      28.006 -14.465  -2.543  0.00  0.00     0.163 HD
BRANCH  16  18
ATOM     18  C   UNL d   1      27.235 -13.857  -4.476  0.00  0.00     0.026 C 
ATOM     19  C   UNL d   1      27.410 -14.808  -5.688  0.00  0.00     0.038 C 
ATOM     20  C   UNL d   1      25.829 -13.269  -4.600  0.00  0.00     0.038 C 
BRANCH  18  21
ATOM     21  C   UNL d   1      28.343 -12.718  -4.432  0.00  0.00     0.038 C 
BRANCH  21  22
ATOM     22  C   UNL d   1      28.713 -12.082  -3.046  0.00  0.00    -0.049 C 
ATOM     23  C   UNL d   1      27.490 -11.769  -2.166  0.00  0.00     0.014 C 
ATOM     24  C   UNL d   1      29.700 -12.963  -2.275  0.00  0.00     0.014 C 
ATOM     25  C   UNL d   1      29.421 -10.728  -3.242  0.00  0.00     0.014 C 
ENDBRANCH  21  22
ENDBRANCH  18  21
ENDBRANCH  16  18
ENDBRANCH   1  14
BRANCH   1  26
ATOM     26  N   UNL d   1      27.432 -15.693  -0.682  0.00  0.00    -0.328 N 
ATOM     27  C   UNL d   1      27.021 -14.478  -0.139  0.00  0.00     0.221 C 
ATOM     28  O   UNL d   1      25.907 -13.965  -0.367  0.00  0.00    -0.273 OA
BRANCH  27  29
ATOM     29  C   UNL d   1      28.062 -13.766   0.714  0.00  0.00     0.103 C 
BRANCH  29  30
ATOM     30  C   UNL d   1      27.521 -13.155   1.984  0.00  0.00     0.005 C 
ATOM     31  C   UNL d   1      27.779 -14.074   3.168  0.00  0.00     0.005 C 
ENDBRANCH  29  30
ENDBRANCH  27  29
BRANCH  26  32
ATOM     32  C   UNL d   1      28.779 -16.171  -0.367  0.00  0.00     0.192 C 
BRANCH  32  33
ATOM     33  C   UNL d   1      29.488 -16.701  -1.562  0.00  0.00     0.071 A 
ATOM     34  C   UNL d   1      30.448 -17.675  -1.628  0.00  0.00     0.037 A 
ATOM     35  C   UNL d   1      30.766 -17.866  -2.970  0.00  0.00     0.035 A 
ATOM     36  C   UNL d   1      30.103 -16.901  -3.665  0.00  0.00     0.049 A 
ATOM     37  C   UNL d   1      30.252 -16.596  -5.095  0.00  0.00     0.076 C 
ATOM     38  O   UNL d   1      29.317 -16.158  -2.822  0.00  0.00    -0.318 OA
ENDBRANCH  32  33
ENDBRANCH  26  32
ENDBRANCH   1  26
TORSDOF 13
ENDMDL
