MODEL 1
REMARK VINA RESULT:    -7.840      0.000      0.000
REMARK INTER + INTRA:          -9.903
REMARK INTER:                  -8.735
REMARK INTRA:                  -1.168
REMARK CONF_INDEPENDENT:        0.895
REMARK UNBOUND:                -1.168
REMARK  3 active torsions:
REMARK  status: ('A' for Active; 'I' for Inactive)
REMARK    1  A    between atoms: C_5  and  O_6 
REMARK    2  A    between atoms: C_7  and  N_8 
REMARK       I    between atoms: N_8  and  C_9 
REMARK    3  A    between atoms: C_9  and  C_11 
ROOT
ATOM      1  N   UNL d   1      22.090 -18.338   0.357  0.00  0.00    -0.321 N 
ATOM      2  C   UNL d   1      23.139 -18.649  -0.504  0.00  0.00     0.256 C 
ATOM      3  O   UNL d   1      23.275 -19.680  -1.167  0.00  0.00    -0.267 OA
ATOM      4  H   UNL d   1      22.062 -17.439   0.828  0.00  0.00     0.169 HD
ENDROOT
BRANCH   1   5
ATOM      5  C   UNL d   1      20.972 -19.188   0.617  0.00  0.00     0.069 A 
ATOM      6  C   UNL d   1      20.142 -19.646  -0.419  0.00  0.00     0.092 A 
ATOM      7  C   UNL d   1      19.015 -20.441  -0.146  0.00  0.00     0.039 A 
ATOM      8  C   UNL d   1      18.721 -20.816   1.168  0.00  0.00     0.009 A 
ATOM      9  C   UNL d   1      19.555 -20.412   2.204  0.00  0.00    -0.060 A 
ATOM     10  C   UNL d   1      19.343 -20.825   3.629  0.00  0.00     0.048 C 
ATOM     11  C   UNL d   1      20.655 -19.597   1.915  0.00  0.00     0.039 A 
BRANCH   6  12
ATOM     12  O   UNL d   1      20.435 -19.325  -1.721  0.00  0.00    -0.358 OA
ATOM     13  H   UNL d   1      21.344 -18.973  -1.744  0.00  0.00     0.217 HD
ENDBRANCH   6  12
ENDBRANCH   1   5
BRANCH   2  14
ATOM     14  C   UNL d   1      24.226 -17.666  -0.692  0.00  0.00     0.034 A 
ATOM     15  C   UNL d   1      25.474 -17.825  -0.090  0.00  0.00     0.017 A 
ATOM     16  C   UNL d   1      26.506 -16.933  -0.403  0.00  0.00     0.003 A 
ATOM     17  C   UNL d   1      26.289 -15.887  -1.306  0.00  0.00     0.024 A 
ATOM     18  C   UNL d   1      25.045 -15.742  -1.915  0.00  0.00     0.035 A 
ATOM     19 CL   UNL d   1      24.780 -14.453  -3.023  0.00  0.00    -0.084 Cl
ATOM     20  C   UNL d   1      24.020 -16.637  -1.629  0.00  0.00     0.041 A 
ENDBRANCH   2  14
TORSDOF 3
ENDMDL
MODEL 2
REMARK VINA RESULT:    -7.801      2.806      6.740
REMARK INTER + INTRA:          -9.901
REMARK INTER:                  -8.696
REMARK INTRA:                  -1.206
REMARK CONF_INDEPENDENT:        0.895
REMARK UNBOUND:                -1.206
REMARK  3 active torsions:
REMARK  status: ('A' for Active; 'I' for Inactive)
REMARK    1  A    between atoms: C_5  and  O_6 
REMARK    2  A    between atoms: C_7  and  N_8 
REMARK       I    between atoms: N_8  and  C_9 
REMARK    3  A    between atoms: C_9  and  C_11 
ROOT
ATOM      1  N   UNL d   1      22.471 -18.386   0.367  0.00  0.00    -0.321 N 
ATOM      2  C   UNL d   1      21.454 -18.926  -0.414  0.00  0.00     0.256 C 
ATOM      3  O   UNL d   1      21.387 -18.934  -1.645  0.00  0.00    -0.267 OA
ATOM      4  H   UNL d   1      22.440 -18.467   1.379  0.00  0.00     0.169 HD
ENDROOT
BRANCH   1   5
ATOM      5  C   UNL d   1      23.636 -17.737  -0.147  0.00  0.00     0.069 A 
ATOM      6  C   UNL d   1      23.540 -16.604  -0.971  0.00  0.00     0.092 A 
ATOM      7  C   UNL d   1      24.690 -16.003  -1.511  0.00  0.00     0.039 A 
ATOM      8  C   UNL d   1      25.957 -16.509  -1.207  0.00  0.00     0.009 A 
ATOM      9  C   UNL d   1      26.078 -17.601  -0.355  0.00  0.00    -0.060 A 
ATOM     10  C   UNL d   1      27.401 -18.162   0.069  0.00  0.00     0.048 C 
ATOM     11  C   UNL d   1      24.919 -18.204   0.149  0.00  0.00     0.039 A 
BRANCH   6  12
ATOM     12  O   UNL d   1      22.309 -16.065  -1.251  0.00  0.00    -0.358 OA
ATOM     13  H   UNL d   1      21.681 -16.801  -1.367  0.00  0.00     0.217 HD
ENDBRANCH   6  12
ENDBRANCH   1   5
BRANCH   2  14
ATOM     14  C   UNL d   1      20.313 -19.585   0.253  0.00  0.00     0.034 A 
ATOM     15  C   UNL d   1      19.224 -20.079  -0.467  0.00  0.00     0.017 A 
ATOM     16  C   UNL d   1      18.232 -20.805   0.201  0.00  0.00     0.003 A 
ATOM     17  C   UNL d   1      18.325 -21.031   1.578  0.00  0.00     0.024 A 
ATOM     18  C   UNL d   1      19.421 -20.549   2.289  0.00  0.00     0.035 A 
ATOM     19 CL   UNL d   1      19.531 -20.825   3.983  0.00  0.00    -0.084 Cl
ATOM     20  C   UNL d   1      20.424 -19.845   1.631  0.00  0.00     0.041 A 
ENDBRANCH   2  14
TORSDOF 3
ENDMDL
MODEL 3
REMARK VINA RESULT:    -7.067      2.688      7.024
REMARK INTER + INTRA:          -9.038
REMARK INTER:                  -7.961
REMARK INTRA:                  -1.076
REMARK CONF_INDEPENDENT:        0.895
REMARK UNBOUND:                -1.076
REMARK  3 active torsions:
REMARK  status: ('A' for Active; 'I' for Inactive)
REMARK    1  A    between atoms: C_5  and  O_6 
REMARK    2  A    between atoms: C_7  and  N_8 
REMARK       I    between atoms: N_8  and  C_9 
REMARK    3  A    between atoms: C_9  and  C_11 
ROOT
ATOM      1  N   UNL d   1      23.020 -17.301  -0.808  0.00  0.00    -0.321 N 
ATOM      2  C   UNL d   1      22.751 -18.640  -0.538  0.00  0.00     0.256 C 
ATOM      3  O   UNL d   1      23.567 -19.563  -0.472  0.00  0.00    -0.267 OA
ATOM      4  H   UNL d   1      22.270 -16.616  -0.802  0.00  0.00     0.169 HD
ENDROOT
BRANCH   1   5
ATOM      5  C   UNL d   1      24.320 -16.766  -1.056  0.00  0.00     0.069 A 
ATOM      6  C   UNL d   1      25.435 -17.163  -0.299  0.00  0.00     0.092 A 
ATOM      7  C   UNL d   1      26.700 -16.593  -0.520  0.00  0.00     0.039 A 
ATOM      8  C   UNL d   1      26.876 -15.639  -1.526  0.00  0.00     0.009 A 
ATOM      9  C   UNL d   1      25.797 -15.266  -2.319  0.00  0.00    -0.060 A 
ATOM     10  C   UNL d   1      25.918 -14.298  -3.457  0.00  0.00     0.048 C 
ATOM     11  C   UNL d   1      24.539 -15.822  -2.064  0.00  0.00     0.039 A 
BRANCH   6  12
ATOM     12  O   UNL d   1      25.294 -18.128   0.667  0.00  0.00    -0.358 OA
ATOM     13  H   UNL d   1      25.504 -18.989   0.261  0.00  0.00     0.217 HD
ENDBRANCH   6  12
ENDBRANCH   1   5
BRANCH   2  14
ATOM     14  C   UNL d   1      21.356 -19.053  -0.282  0.00  0.00     0.034 A 
ATOM     15  C   UNL d   1      20.424 -19.177  -1.313  0.00  0.00     0.017 A 
ATOM     16  C   UNL d   1      19.154 -19.692  -1.032  0.00  0.00     0.003 A 
ATOM     17  C   UNL d   1      18.817 -20.074   0.271  0.00  0.00     0.024 A 
ATOM     18  C   UNL d   1      19.755 -19.962   1.292  0.00  0.00     0.035 A 
ATOM     19 CL   UNL d   1      19.337 -20.431   2.894  0.00  0.00    -0.084 Cl
ATOM     20  C   UNL d   1      21.029 -19.473   1.019  0.00  0.00     0.041 A 
ENDBRANCH   2  14
TORSDOF 3
ENDMDL
MODEL 4
REMARK VINA RESULT:    -6.578      4.242      8.171
REMARK INTER + INTRA:          -8.684
REMARK INTER:                  -7.472
REMARK INTRA:                  -1.211
REMARK CONF_INDEPENDENT:        0.895
REMARK UNBOUND:                -1.211
REMARK  3 active torsions:
REMARK  status: ('A' for Active; 'I' for Inactive)
REMARK    1  A    between atoms: C_5  and  O_6 
REMARK    2  A    between atoms: C_7  and  N_8 
REMARK       I    between atoms: N_8  and  C_9 
REMARK    3  A    between atoms: C_9  and  C_11 
ROOT
ATOM      1  N   UNL d   1      25.356 -14.928  -2.963  0.00  0.00    -0.321 N 
ATOM      2  C   UNL d   1      26.146 -15.879  -2.322  0.00  0.00     0.256 C 
ATOM      3  O   UNL d   1      27.367 -16.017  -2.418  0.00  0.00    -0.267 OA
ATOM      4  H   UNL d   1      24.358 -14.883  -2.781  0.00  0.00     0.169 HD
ENDROOT
BRANCH   1   5
ATOM      5  C   UNL d   1      25.849 -13.930  -3.859  0.00  0.00     0.069 A 
ATOM      6  C   UNL d   1      26.689 -14.262  -4.934  0.00  0.00     0.092 A 
ATOM      7  C   UNL d   1      27.208 -13.266  -5.780  0.00  0.00     0.039 A 
ATOM      8  C   UNL d   1      26.866 -11.926  -5.581  0.00  0.00     0.009 A 
ATOM      9  C   UNL d   1      25.999 -11.580  -4.551  0.00  0.00    -0.060 A 
ATOM     10  C   UNL d   1      25.535 -10.175  -4.312  0.00  0.00     0.048 C 
ATOM     11  C   UNL d   1      25.516 -12.582  -3.701  0.00  0.00     0.039 A 
BRANCH   6  12
ATOM     12  O   UNL d   1      27.006 -15.575  -5.174  0.00  0.00    -0.358 OA
ATOM     13  H   UNL d   1      27.596 -15.875  -4.459  0.00  0.00     0.217 HD
ENDBRANCH   6  12
ENDBRANCH   1   5
BRANCH   2  14
ATOM     14  C   UNL d   1      25.503 -16.842  -1.406  0.00  0.00     0.034 A 
ATOM     15  C   UNL d   1      26.183 -17.391  -0.318  0.00  0.00     0.017 A 
ATOM     16  C   UNL d   1      25.490 -18.199   0.589  0.00  0.00     0.003 A 
ATOM     17  C   UNL d   1      24.128 -18.462   0.407  0.00  0.00     0.024 A 
ATOM     18  C   UNL d   1      23.451 -17.900  -0.671  0.00  0.00     0.035 A 
ATOM     19 CL   UNL d   1      21.776 -18.227  -0.894  0.00  0.00    -0.084 Cl
ATOM     20  C   UNL d   1      24.125 -17.076  -1.566  0.00  0.00     0.041 A 
ENDBRANCH   2  14
TORSDOF 3
ENDMDL
MODEL 5
REMARK VINA RESULT:    -6.555      4.027      6.305
REMARK INTER + INTRA:          -8.272
REMARK INTER:                  -7.450
REMARK INTRA:                  -0.822
REMARK CONF_INDEPENDENT:        0.895
REMARK UNBOUND:                -0.822
REMARK  3 active torsions:
REMARK  status: ('A' for Active; 'I' for Inactive)
REMARK    1  A    between atoms: C_5  and  O_6 
REMARK    2  A    between atoms: C_7  and  N_8 
REMARK       I    between atoms: N_8  and  C_9 
REMARK    3  A    between atoms: C_9  and  C_11 
ROOT
ATOM      1  N   UNL d   1      26.602 -16.063  -2.671  0.00  0.00    -0.321 N 
ATOM      2  C   UNL d   1      25.967 -15.164  -3.523  0.00  0.00     0.256 C 
ATOM      3  O   UNL d   1      24.780 -14.830  -3.500  0.00  0.00    -0.267 OA
ATOM      4  H   UNL d   1      27.598 -16.238  -2.759  0.00  0.00     0.169 HD
ENDROOT
BRANCH   1   5
ATOM      5  C   UNL d   1      25.962 -16.762  -1.601  0.00  0.00     0.069 A 
ATOM      6  C   UNL d   1      26.704 -17.362  -0.571  0.00  0.00     0.092 A 
ATOM      7  C   UNL d   1      26.067 -18.089   0.450  0.00  0.00     0.039 A 
ATOM      8  C   UNL d   1      24.674 -18.198   0.472  0.00  0.00     0.009 A 
ATOM      9  C   UNL d   1      23.917 -17.572  -0.512  0.00  0.00    -0.060 A 
ATOM     10  C   UNL d   1      22.419 -17.590  -0.522  0.00  0.00     0.048 C 
ATOM     11  C   UNL d   1      24.571 -16.878  -1.537  0.00  0.00     0.039 A 
BRANCH   6  12
ATOM     12  O   UNL d   1      28.070 -17.234  -0.549  0.00  0.00    -0.358 OA
ATOM     13  H   UNL d   1      28.411 -17.795   0.173  0.00  0.00     0.217 HD
ENDBRANCH   6  12
ENDBRANCH   1   5
BRANCH   2  14
ATOM     14  C   UNL d   1      26.757 -14.499  -4.579  0.00  0.00     0.034 A 
ATOM     15  C   UNL d   1      26.535 -13.169  -4.937  0.00  0.00     0.017 A 
ATOM     16  C   UNL d   1      27.394 -12.552  -5.853  0.00  0.00     0.003 A 
ATOM     17  C   UNL d   1      28.464 -13.261  -6.410  0.00  0.00     0.024 A 
ATOM     18  C   UNL d   1      28.689 -14.583  -6.037  0.00  0.00     0.035 A 
ATOM     19 CL   UNL d   1      30.004 -15.454  -6.726  0.00  0.00    -0.084 Cl
ATOM     20  C   UNL d   1      27.855 -15.199  -5.111  0.00  0.00     0.041 A 
ENDBRANCH   2  14
TORSDOF 3
ENDMDL
MODEL 6
REMARK VINA RESULT:    -6.502      3.926      6.189
REMARK INTER + INTRA:          -8.222
REMARK INTER:                  -7.397
REMARK INTRA:                  -0.825
REMARK CONF_INDEPENDENT:        0.895
REMARK UNBOUND:                -0.825
REMARK  3 active torsions:
REMARK  status: ('A' for Active; 'I' for Inactive)
REMARK    1  A    between atoms: C_5  and  O_6 
REMARK    2  A    between atoms: C_7  and  N_8 
REMARK       I    between atoms: N_8  and  C_9 
REMARK    3  A    between atoms: C_9  and  C_11 
ROOT
ATOM      1  N   UNL d   1      26.632 -15.946  -2.555  0.00  0.00    -0.321 N 
ATOM      2  C   UNL d   1      25.984 -15.094  -3.445  0.00  0.00     0.256 C 
ATOM      3  O   UNL d   1      24.778 -14.842  -3.488  0.00  0.00    -0.267 OA
ATOM      4  H   UNL d   1      27.641 -16.052  -2.589  0.00  0.00     0.169 HD
ENDROOT
BRANCH   1   5
ATOM      5  C   UNL d   1      25.985 -16.685  -1.518  0.00  0.00     0.069 A 
ATOM      6  C   UNL d   1      26.718 -17.309  -0.496  0.00  0.00     0.092 A 
ATOM      7  C   UNL d   1      26.074 -18.075   0.492  0.00  0.00     0.039 A 
ATOM      8  C   UNL d   1      24.683 -18.200   0.489  0.00  0.00     0.009 A 
ATOM      9  C   UNL d   1      23.933 -17.551  -0.486  0.00  0.00    -0.060 A 
ATOM     10  C   UNL d   1      22.435 -17.584  -0.519  0.00  0.00     0.048 C 
ATOM     11  C   UNL d   1      24.594 -16.818  -1.478  0.00  0.00     0.039 A 
BRANCH   6  12
ATOM     12  O   UNL d   1      28.082 -17.167  -0.449  0.00  0.00    -0.358 OA
ATOM     13  H   UNL d   1      28.424 -17.791   0.218  0.00  0.00     0.217 HD
ENDBRANCH   6  12
ENDBRANCH   1   5
BRANCH   2  14
ATOM     14  C   UNL d   1      26.783 -14.378  -4.460  0.00  0.00     0.034 A 
ATOM     15  C   UNL d   1      27.813 -15.004  -5.163  0.00  0.00     0.017 A 
ATOM     16  C   UNL d   1      28.453 -14.318  -6.201  0.00  0.00     0.003 A 
ATOM     17  C   UNL d   1      28.070 -13.013  -6.530  0.00  0.00     0.024 A 
ATOM     18  C   UNL d   1      27.031 -12.399  -5.836  0.00  0.00     0.035 A 
ATOM     19 CL   UNL d   1      26.564 -10.794  -6.240  0.00  0.00    -0.084 Cl
ATOM     20  C   UNL d   1      26.373 -13.081  -4.817  0.00  0.00     0.041 A 
ENDBRANCH   2  14
TORSDOF 3
ENDMDL
MODEL 7
REMARK VINA RESULT:    -6.471      4.754      8.944
REMARK INTER + INTRA:          -8.480
REMARK INTER:                  -7.366
REMARK INTRA:                  -1.115
REMARK CONF_INDEPENDENT:        0.895
REMARK UNBOUND:                -1.115
REMARK  3 active torsions:
REMARK  status: ('A' for Active; 'I' for Inactive)
REMARK    1  A    between atoms: C_5  and  O_6 
REMARK    2  A    between atoms: C_7  and  N_8 
REMARK       I    between atoms: N_8  and  C_9 
REMARK    3  A    between atoms: C_9  and  C_11 
ROOT
ATOM      1  N   UNL d   1      26.753 -14.650  -3.536  0.00  0.00    -0.321 N 
ATOM      2  C   UNL d   1      25.513 -15.055  -3.051  0.00  0.00     0.256 C 
ATOM      3  O   UNL d   1      24.405 -14.662  -3.424  0.00  0.00    -0.267 OA
ATOM      4  H   UNL d   1      27.606 -15.069  -3.178  0.00  0.00     0.169 HD
ENDROOT
BRANCH   1   5
ATOM      5  C   UNL d   1      26.948 -13.687  -4.572  0.00  0.00     0.069 A 
ATOM      6  C   UNL d   1      26.188 -12.507  -4.629  0.00  0.00     0.092 A 
ATOM      7  C   UNL d   1      26.353 -11.590  -5.682  0.00  0.00     0.039 A 
ATOM      8  C   UNL d   1      27.307 -11.825  -6.676  0.00  0.00     0.009 A 
ATOM      9  C   UNL d   1      28.103 -12.963  -6.614  0.00  0.00    -0.060 A 
ATOM     10  C   UNL d   1      29.188 -13.254  -7.605  0.00  0.00     0.048 C 
ATOM     11  C   UNL d   1      27.902 -13.879  -5.575  0.00  0.00     0.039 A 
BRANCH   6  12
ATOM     12  O   UNL d   1      25.274 -12.235  -3.642  0.00  0.00    -0.358 OA
ATOM     13  H   UNL d   1      24.405 -12.559  -3.943  0.00  0.00     0.217 HD
ENDBRANCH   6  12
ENDBRANCH   1   5
BRANCH   2  14
ATOM     14  C   UNL d   1      25.460 -16.076  -1.985  0.00  0.00     0.034 A 
ATOM     15  C   UNL d   1      26.582 -16.406  -1.225  0.00  0.00     0.017 A 
ATOM     16  C   UNL d   1      26.447 -17.286  -0.146  0.00  0.00     0.003 A 
ATOM     17  C   UNL d   1      25.199 -17.836   0.168  0.00  0.00     0.024 A 
ATOM     18  C   UNL d   1      24.080 -17.491  -0.584  0.00  0.00     0.035 A 
ATOM     19 CL   UNL d   1      22.547 -18.171  -0.198  0.00  0.00    -0.084 Cl
ATOM     20  C   UNL d   1      24.199 -16.599  -1.645  0.00  0.00     0.041 A 
ENDBRANCH   2  14
TORSDOF 3
ENDMDL
MODEL 8
REMARK VINA RESULT:    -6.430      4.208      8.280
REMARK INTER + INTRA:          -8.419
REMARK INTER:                  -7.325
REMARK INTRA:                  -1.095
REMARK CONF_INDEPENDENT:        0.895
REMARK UNBOUND:                -1.095
REMARK  3 active torsions:
REMARK  status: ('A' for Active; 'I' for Inactive)
REMARK    1  A    between atoms: C_5  and  O_6 
REMARK    2  A    between atoms: C_7  and  N_8 
REMARK       I    between atoms: N_8  and  C_9 
REMARK    3  A    between atoms: C_9  and  C_11 
ROOT
ATOM      1  N   UNL d   1      25.979 -14.456  -2.390  0.00  0.00    -0.321 N 
ATOM      2  C   UNL d   1      24.764 -15.120  -2.248  0.00  0.00     0.256 C 
ATOM      3  O   UNL d   1      23.679 -14.796  -2.737  0.00  0.00    -0.267 OA
ATOM      4  H   UNL d   1      26.823 -14.835  -1.970  0.00  0.00     0.169 HD
ENDROOT
BRANCH   1   5
ATOM      5  C   UNL d   1      26.171 -13.260  -3.147  0.00  0.00     0.069 A 
ATOM      6  C   UNL d   1      25.593 -13.096  -4.417  0.00  0.00     0.092 A 
ATOM      7  C   UNL d   1      25.829 -11.935  -5.174  0.00  0.00     0.039 A 
ATOM      8  C   UNL d   1      26.620 -10.906  -4.655  0.00  0.00     0.009 A 
ATOM      9  C   UNL d   1      27.162 -11.027  -3.381  0.00  0.00    -0.060 A 
ATOM     10  C   UNL d   1      27.968  -9.943  -2.732  0.00  0.00     0.048 C 
ATOM     11  C   UNL d   1      26.941 -12.203  -2.656  0.00  0.00     0.039 A 
BRANCH   6  12
ATOM     12  O   UNL d   1      24.780 -14.075  -4.929  0.00  0.00    -0.358 OA
ATOM     13  H   UNL d   1      23.861 -13.854  -4.690  0.00  0.00     0.217 HD
ENDBRANCH   6  12
ENDBRANCH   1   5
BRANCH   2  14
ATOM     14  C   UNL d   1      24.715 -16.360  -1.447  0.00  0.00     0.034 A 
ATOM     15  C   UNL d   1      25.831 -16.835  -0.756  0.00  0.00     0.017 A 
ATOM     16  C   UNL d   1      25.696 -17.943   0.087  0.00  0.00     0.003 A 
ATOM     17  C   UNL d   1      24.456 -18.575   0.234  0.00  0.00     0.024 A 
ATOM     18  C   UNL d   1      23.344 -18.088  -0.447  0.00  0.00     0.035 A 
ATOM     19 CL   UNL d   1      21.821 -18.869  -0.267  0.00  0.00    -0.084 Cl
ATOM     20  C   UNL d   1      23.462 -16.973  -1.270  0.00  0.00     0.041 A 
ENDBRANCH   2  14
TORSDOF 3
ENDMDL
MODEL 9
REMARK VINA RESULT:    -6.188      4.422      8.822
REMARK INTER + INTRA:          -8.302
REMARK INTER:                  -7.083
REMARK INTRA:                  -1.219
REMARK CONF_INDEPENDENT:        0.895
REMARK UNBOUND:                -1.219
REMARK  3 active torsions:
REMARK  status: ('A' for Active; 'I' for Inactive)
REMARK    1  A    between atoms: C_5  and  O_6 
REMARK    2  A    between atoms: C_7  and  N_8 
REMARK       I    between atoms: N_8  and  C_9 
REMARK    3  A    between atoms: C_9  and  C_11 
ROOT
ATOM      1  N   UNL d   1      27.268 -15.248  -3.012  0.00  0.00    -0.321 N 
ATOM      2  C   UNL d   1      25.927 -15.570  -2.829  0.00  0.00     0.256 C 
ATOM      3  O   UNL d   1      24.964 -15.128  -3.460  0.00  0.00    -0.267 OA
ATOM      4  H   UNL d   1      27.986 -15.702  -2.455  0.00  0.00     0.169 HD
ENDROOT
BRANCH   1   5
ATOM      5  C   UNL d   1      27.760 -14.330  -3.990  0.00  0.00     0.069 A 
ATOM      6  C   UNL d   1      27.489 -14.500  -5.357  0.00  0.00     0.092 A 
ATOM      7  C   UNL d   1      28.019 -13.618  -6.315  0.00  0.00     0.039 A 
ATOM      8  C   UNL d   1      28.801 -12.532  -5.914  0.00  0.00     0.009 A 
ATOM      9  C   UNL d   1      29.043 -12.317  -4.562  0.00  0.00    -0.060 A 
ATOM     10  C   UNL d   1      29.818 -11.141  -4.050  0.00  0.00     0.048 C 
ATOM     11  C   UNL d   1      28.532 -13.223  -3.626  0.00  0.00     0.039 A 
BRANCH   6  12
ATOM     12  O   UNL d   1      26.689 -15.536  -5.771  0.00  0.00    -0.358 OA
ATOM     13  H   UNL d   1      25.817 -15.426  -5.350  0.00  0.00     0.217 HD
ENDBRANCH   6  12
ENDBRANCH   1   5
BRANCH   2  14
ATOM     14  C   UNL d   1      25.562 -16.552  -1.788  0.00  0.00     0.034 A 
ATOM     15  C   UNL d   1      26.489 -17.009  -0.850  0.00  0.00     0.017 A 
ATOM     16  C   UNL d   1      26.060 -17.841   0.190  0.00  0.00     0.003 A 
ATOM     17  C   UNL d   1      24.716 -18.217   0.288  0.00  0.00     0.024 A 
ATOM     18  C   UNL d   1      23.793 -17.746  -0.641  0.00  0.00     0.035 A 
ATOM     19 CL   UNL d   1      22.142 -18.212  -0.520  0.00  0.00    -0.084 Cl
ATOM     20  C   UNL d   1      24.205 -16.900  -1.666  0.00  0.00     0.041 A 
ENDBRANCH   2  14
TORSDOF 3
ENDMDL
