MODEL 1
REMARK VINA RESULT:    -8.118      0.000      0.000
REMARK INTER + INTRA:          -9.624
REMARK INTER:                  -9.013
REMARK INTRA:                  -0.611
REMARK CONF_INDEPENDENT:        0.895
REMARK UNBOUND:                -0.611
REMARK  3 active torsions:
REMARK  status: ('A' for Active; 'I' for Inactive)
REMARK    1  A    between atoms: C_5  and  C_6 
REMARK       I    between atoms: C_6  and  N_8 
REMARK    2  A    between atoms: N_8  and  C_9 
REMARK    3  A    between atoms: C_15  and  O_16 
ROOT
ATOM      1  C   UNL d   1      22.058 -18.073  -0.321  0.00  0.00     0.256 C 
ATOM      2  O   UNL d   1      21.768 -17.023  -0.901  0.00  0.00    -0.267 OA
ATOM      3  N   UNL d   1      23.361 -18.540  -0.149  0.00  0.00    -0.320 N 
ATOM      4  H   UNL d   1      23.519 -19.517   0.039  0.00  0.00     0.169 HD
ENDROOT
BRANCH   3   5
ATOM      5  C   UNL d   1      24.495 -17.772  -0.516  0.00  0.00     0.070 A 
ATOM      6  C   UNL d   1      24.482 -17.061  -1.723  0.00  0.00     0.056 A 
ATOM      7  C   UNL d   1      25.574 -16.256  -2.064  0.00  0.00     0.036 A 
ATOM      8 CL   UNL d   1      25.544 -15.331  -3.517  0.00  0.00    -0.084 Cl
ATOM      9  C   UNL d   1      26.691 -16.175  -1.232  0.00  0.00     0.026 A 
ATOM     10  C   UNL d   1      26.730 -16.916  -0.052  0.00  0.00     0.040 A 
ATOM     11  C   UNL d   1      25.645 -17.724   0.288  0.00  0.00     0.092 A 
BRANCH  11  12
ATOM     12  O   UNL d   1      25.761 -18.573   1.355  0.00  0.00    -0.358 OA
ATOM     13  H   UNL d   1      26.562 -18.356   1.853  0.00  0.00     0.217 HD
ENDBRANCH  11  12
ENDBRANCH   3   5
BRANCH   1  14
ATOM     14  C   UNL d   1      20.925 -18.945   0.128  0.00  0.00     0.032 A 
ATOM     15  C   UNL d   1      20.033 -19.422  -0.849  0.00  0.00     0.017 A 
ATOM     16  C   UNL d   1      18.970 -20.268  -0.512  0.00  0.00     0.007 A 
ATOM     17  C   UNL d   1      18.778 -20.655   0.816  0.00  0.00    -0.062 A 
ATOM     18  C   UNL d   1      17.659 -21.576   1.201  0.00  0.00     0.048 C 
ATOM     19  C   UNL d   1      19.656 -20.176   1.795  0.00  0.00     0.007 A 
ATOM     20  C   UNL d   1      20.718 -19.325   1.458  0.00  0.00     0.017 A 
ENDBRANCH   1  14
TORSDOF 3
ENDMDL
MODEL 2
REMARK VINA RESULT:    -7.994      0.229      1.155
REMARK INTER + INTRA:          -9.500
REMARK INTER:                  -8.889
REMARK INTRA:                  -0.611
REMARK CONF_INDEPENDENT:        0.895
REMARK UNBOUND:                -0.611
REMARK  3 active torsions:
REMARK  status: ('A' for Active; 'I' for Inactive)
REMARK    1  A    between atoms: C_5  and  C_6 
REMARK       I    between atoms: C_6  and  N_8 
REMARK    2  A    between atoms: N_8  and  C_9 
REMARK    3  A    between atoms: C_15  and  O_16 
ROOT
ATOM      1  C   UNL d   1      22.155 -18.010  -0.476  0.00  0.00     0.256 C 
ATOM      2  O   UNL d   1      21.862 -16.887  -0.895  0.00  0.00    -0.267 OA
ATOM      3  N   UNL d   1      23.452 -18.520  -0.443  0.00  0.00    -0.320 N 
ATOM      4  H   UNL d   1      23.594 -19.517  -0.396  0.00  0.00     0.169 HD
ENDROOT
BRANCH   3   5
ATOM      5  C   UNL d   1      24.585 -17.732  -0.768  0.00  0.00     0.070 A 
ATOM      6  C   UNL d   1      24.586 -16.988  -1.954  0.00  0.00     0.056 A 
ATOM      7  C   UNL d   1      25.676 -16.164  -2.253  0.00  0.00     0.036 A 
ATOM      8 CL   UNL d   1      25.662 -15.198  -3.680  0.00  0.00    -0.084 Cl
ATOM      9  C   UNL d   1      26.778 -16.095  -1.400  0.00  0.00     0.026 A 
ATOM     10  C   UNL d   1      26.803 -16.869  -0.241  0.00  0.00     0.040 A 
ATOM     11  C   UNL d   1      25.720 -17.696   0.057  0.00  0.00     0.092 A 
BRANCH  11  12
ATOM     12  O   UNL d   1      25.826 -18.574   1.102  0.00  0.00    -0.358 OA
ATOM     13  H   UNL d   1      26.734 -18.567   1.436  0.00  0.00     0.217 HD
ENDBRANCH  11  12
ENDBRANCH   3   5
BRANCH   1  14
ATOM     14  C   UNL d   1      21.024 -18.913  -0.084  0.00  0.00     0.032 A 
ATOM     15  C   UNL d   1      20.946 -19.325   1.259  0.00  0.00     0.017 A 
ATOM     16  C   UNL d   1      19.901 -20.140   1.708  0.00  0.00     0.007 A 
ATOM     17  C   UNL d   1      18.909 -20.561   0.819  0.00  0.00    -0.062 A 
ATOM     18  C   UNL d   1      17.769 -21.420   1.279  0.00  0.00     0.048 C 
ATOM     19  C   UNL d   1      18.988 -20.163  -0.521  0.00  0.00     0.007 A 
ATOM     20  C   UNL d   1      20.036 -19.350  -0.972  0.00  0.00     0.017 A 
ENDBRANCH   1  14
TORSDOF 3
ENDMDL
MODEL 3
REMARK VINA RESULT:    -7.309      2.782      7.099
REMARK INTER + INTRA:          -8.875
REMARK INTER:                  -8.204
REMARK INTRA:                  -0.671
REMARK CONF_INDEPENDENT:        0.895
REMARK UNBOUND:                -0.671
REMARK  3 active torsions:
REMARK  status: ('A' for Active; 'I' for Inactive)
REMARK    1  A    between atoms: C_5  and  C_6 
REMARK       I    between atoms: C_6  and  N_8 
REMARK    2  A    between atoms: N_8  and  C_9 
REMARK    3  A    between atoms: C_15  and  O_16 
ROOT
ATOM      1  C   UNL d   1      23.159 -18.111  -0.168  0.00  0.00     0.256 C 
ATOM      2  O   UNL d   1      23.464 -18.575   0.934  0.00  0.00    -0.267 OA
ATOM      3  N   UNL d   1      21.977 -18.413  -0.845  0.00  0.00    -0.320 N 
ATOM      4  H   UNL d   1      21.923 -18.269  -1.840  0.00  0.00     0.169 HD
ENDROOT
BRANCH   3   5
ATOM      5  C   UNL d   1      20.945 -19.188  -0.259  0.00  0.00     0.070 A 
ATOM      6  C   UNL d   1      20.967 -19.430   1.120  0.00  0.00     0.056 A 
ATOM      7  C   UNL d   1      19.921 -20.144   1.714  0.00  0.00     0.036 A 
ATOM      8 CL   UNL d   1      19.906 -20.397   3.419  0.00  0.00    -0.084 Cl
ATOM      9  C   UNL d   1      18.870 -20.648   0.946  0.00  0.00     0.026 A 
ATOM     10  C   UNL d   1      18.867 -20.450  -0.434  0.00  0.00     0.040 A 
ATOM     11  C   UNL d   1      19.910 -19.743  -1.029  0.00  0.00     0.092 A 
BRANCH  11  12
ATOM     12  O   UNL d   1      19.987 -19.700  -2.395  0.00  0.00    -0.358 OA
ATOM     13  H   UNL d   1      19.130 -19.429  -2.756  0.00  0.00     0.217 HD
ENDBRANCH  11  12
ENDBRANCH   3   5
BRANCH   1  14
ATOM     14  C   UNL d   1      24.177 -17.257  -0.860  0.00  0.00     0.032 A 
ATOM     15  C   UNL d   1      23.723 -16.117  -1.549  0.00  0.00     0.017 A 
ATOM     16  C   UNL d   1      24.618 -15.254  -2.191  0.00  0.00     0.007 A 
ATOM     17  C   UNL d   1      25.989 -15.513  -2.156  0.00  0.00    -0.062 A 
ATOM     18  C   UNL d   1      26.970 -14.593  -2.820  0.00  0.00     0.048 C 
ATOM     19  C   UNL d   1      26.446 -16.652  -1.482  0.00  0.00     0.007 A 
ATOM     20  C   UNL d   1      25.551 -17.519  -0.842  0.00  0.00     0.017 A 
ENDBRANCH   1  14
TORSDOF 3
ENDMDL
MODEL 4
REMARK VINA RESULT:    -6.972      1.725      2.114
REMARK INTER + INTRA:          -8.491
REMARK INTER:                  -7.867
REMARK INTRA:                  -0.624
REMARK CONF_INDEPENDENT:        0.895
REMARK UNBOUND:                -0.624
REMARK  3 active torsions:
REMARK  status: ('A' for Active; 'I' for Inactive)
REMARK    1  A    between atoms: C_5  and  C_6 
REMARK       I    between atoms: C_6  and  N_8 
REMARK    2  A    between atoms: N_8  and  C_9 
REMARK    3  A    between atoms: C_15  and  O_16 
ROOT
ATOM      1  C   UNL d   1      22.328 -18.565  -0.786  0.00  0.00     0.256 C 
ATOM      2  O   UNL d   1      22.564 -18.870  -1.958  0.00  0.00    -0.267 OA
ATOM      3  N   UNL d   1      23.156 -17.757  -0.006  0.00  0.00    -0.320 N 
ATOM      4  H   UNL d   1      23.088 -17.799   0.999  0.00  0.00     0.169 HD
ENDROOT
BRANCH   3   5
ATOM      5  C   UNL d   1      24.291 -17.096  -0.538  0.00  0.00     0.070 A 
ATOM      6  C   UNL d   1      25.571 -17.514  -0.154  0.00  0.00     0.056 A 
ATOM      7  C   UNL d   1      26.697 -16.905  -0.719  0.00  0.00     0.036 A 
ATOM      8 CL   UNL d   1      28.276 -17.450  -0.298  0.00  0.00    -0.084 Cl
ATOM      9  C   UNL d   1      26.562 -15.865  -1.639  0.00  0.00     0.026 A 
ATOM     10  C   UNL d   1      25.291 -15.414  -1.991  0.00  0.00     0.040 A 
ATOM     11  C   UNL d   1      24.167 -16.015  -1.426  0.00  0.00     0.092 A 
BRANCH  11  12
ATOM     12  O   UNL d   1      22.937 -15.458  -1.645  0.00  0.00    -0.358 OA
ATOM     13  H   UNL d   1      22.296 -15.843  -1.030  0.00  0.00     0.217 HD
ENDBRANCH  11  12
ENDBRANCH   3   5
BRANCH   1  14
ATOM     14  C   UNL d   1      21.132 -19.195  -0.139  0.00  0.00     0.032 A 
ATOM     15  C   UNL d   1      20.120 -19.700  -0.975  0.00  0.00     0.017 A 
ATOM     16  C   UNL d   1      18.990 -20.332  -0.445  0.00  0.00     0.007 A 
ATOM     17  C   UNL d   1      18.848 -20.472   0.937  0.00  0.00    -0.062 A 
ATOM     18  C   UNL d   1      17.655 -21.162   1.529  0.00  0.00     0.048 C 
ATOM     19  C   UNL d   1      19.847 -19.961   1.775  0.00  0.00     0.007 A 
ATOM     20  C   UNL d   1      20.978 -19.325   1.245  0.00  0.00     0.017 A 
ENDBRANCH   1  14
TORSDOF 3
ENDMDL
MODEL 5
REMARK VINA RESULT:    -6.604      4.015      8.249
REMARK INTER + INTRA:          -8.185
REMARK INTER:                  -7.499
REMARK INTRA:                  -0.686
REMARK CONF_INDEPENDENT:        0.895
REMARK UNBOUND:                -0.686
REMARK  3 active torsions:
REMARK  status: ('A' for Active; 'I' for Inactive)
REMARK    1  A    between atoms: C_5  and  C_6 
REMARK       I    between atoms: C_6  and  N_8 
REMARK    2  A    between atoms: N_8  and  C_9 
REMARK    3  A    between atoms: C_15  and  O_16 
ROOT
ATOM      1  C   UNL d   1      25.933 -15.135  -3.343  0.00  0.00     0.256 C 
ATOM      2  O   UNL d   1      24.748 -14.825  -3.197  0.00  0.00    -0.267 OA
ATOM      3  N   UNL d   1      26.626 -16.001  -2.498  0.00  0.00    -0.320 N 
ATOM      4  H   UNL d   1      27.633 -15.972  -2.473  0.00  0.00     0.169 HD
ENDROOT
BRANCH   3   5
ATOM      5  C   UNL d   1      25.986 -16.717  -1.455  0.00  0.00     0.070 A 
ATOM      6  C   UNL d   1      24.592 -16.852  -1.471  0.00  0.00     0.056 A 
ATOM      7  C   UNL d   1      23.958 -17.606  -0.478  0.00  0.00     0.036 A 
ATOM      8 CL   UNL d   1      22.250 -17.828  -0.520  0.00  0.00    -0.084 Cl
ATOM      9  C   UNL d   1      24.693 -18.200   0.548  0.00  0.00     0.026 A 
ATOM     10  C   UNL d   1      26.076 -18.031   0.595  0.00  0.00     0.040 A 
ATOM     11  C   UNL d   1      26.710 -17.276  -0.391  0.00  0.00     0.092 A 
BRANCH  11  12
ATOM     12  O   UNL d   1      28.037 -16.975  -0.243  0.00  0.00    -0.358 OA
ATOM     13  H   UNL d   1      28.436 -17.585   0.394  0.00  0.00     0.217 HD
ENDBRANCH  11  12
ENDBRANCH   3   5
BRANCH   1  14
ATOM     14  C   UNL d   1      26.693 -14.448  -4.438  0.00  0.00     0.032 A 
ATOM     15  C   UNL d   1      27.643 -15.200  -5.152  0.00  0.00     0.017 A 
ATOM     16  C   UNL d   1      28.367 -14.637  -6.209  0.00  0.00     0.007 A 
ATOM     17  C   UNL d   1      28.155 -13.306  -6.574  0.00  0.00    -0.062 A 
ATOM     18  C   UNL d   1      28.905 -12.685  -7.715  0.00  0.00     0.048 C 
ATOM     19  C   UNL d   1      27.219 -12.550  -5.859  0.00  0.00     0.007 A 
ATOM     20  C   UNL d   1      26.496 -13.112  -4.798  0.00  0.00     0.017 A 
ENDBRANCH   1  14
TORSDOF 3
ENDMDL
MODEL 6
REMARK VINA RESULT:    -6.340      3.400      5.147
REMARK INTER + INTRA:          -7.933
REMARK INTER:                  -7.235
REMARK INTRA:                  -0.698
REMARK CONF_INDEPENDENT:        0.895
REMARK UNBOUND:                -0.698
REMARK  3 active torsions:
REMARK  status: ('A' for Active; 'I' for Inactive)
REMARK    1  A    between atoms: C_5  and  C_6 
REMARK       I    between atoms: C_6  and  N_8 
REMARK    2  A    between atoms: N_8  and  C_9 
REMARK    3  A    between atoms: C_15  and  O_16 
ROOT
ATOM      1  C   UNL d   1      25.553 -16.108  -2.139  0.00  0.00     0.256 C 
ATOM      2  O   UNL d   1      26.708 -16.162  -1.707  0.00  0.00    -0.267 OA
ATOM      3  N   UNL d   1      25.154 -15.308  -3.209  0.00  0.00    -0.320 N 
ATOM      4  H   UNL d   1      24.181 -15.066  -3.314  0.00  0.00     0.169 HD
ENDROOT
BRANCH   3   5
ATOM      5  C   UNL d   1      26.079 -14.574  -3.993  0.00  0.00     0.070 A 
ATOM      6  C   UNL d   1      27.204 -15.224  -4.515  0.00  0.00     0.056 A 
ATOM      7  C   UNL d   1      28.090 -14.520  -5.337  0.00  0.00     0.036 A 
ATOM      8 CL   UNL d   1      29.446 -15.324  -6.034  0.00  0.00    -0.084 Cl
ATOM      9  C   UNL d   1      27.886 -13.169  -5.621  0.00  0.00     0.026 A 
ATOM     10  C   UNL d   1      26.792 -12.505  -5.066  0.00  0.00     0.040 A 
ATOM     11  C   UNL d   1      25.910 -13.203  -4.242  0.00  0.00     0.092 A 
BRANCH  11  12
ATOM     12  O   UNL d   1      24.942 -12.507  -3.570  0.00  0.00    -0.358 OA
ATOM     13  H   UNL d   1      24.595 -11.806  -4.141  0.00  0.00     0.217 HD
ENDBRANCH  11  12
ENDBRANCH   3   5
BRANCH   1  14
ATOM     14  C   UNL d   1      24.503 -16.872  -1.390  0.00  0.00     0.032 A 
ATOM     15  C   UNL d   1      23.259 -16.250  -1.180  0.00  0.00     0.017 A 
ATOM     16  C   UNL d   1      22.219 -16.912  -0.519  0.00  0.00     0.007 A 
ATOM     17  C   UNL d   1      22.403 -18.216  -0.053  0.00  0.00    -0.062 A 
ATOM     18  C   UNL d   1      21.297 -18.955   0.641  0.00  0.00     0.048 C 
ATOM     19  C   UNL d   1      23.642 -18.837  -0.250  0.00  0.00     0.007 A 
ATOM     20  C   UNL d   1      24.685 -18.172  -0.908  0.00  0.00     0.017 A 
ENDBRANCH   1  14
TORSDOF 3
ENDMDL
MODEL 7
REMARK VINA RESULT:    -6.235      2.819      7.031
REMARK INTER + INTRA:          -8.084
REMARK INTER:                  -7.129
REMARK INTRA:                  -0.954
REMARK CONF_INDEPENDENT:        0.895
REMARK UNBOUND:                -0.954
REMARK  3 active torsions:
REMARK  status: ('A' for Active; 'I' for Inactive)
REMARK    1  A    between atoms: C_5  and  C_6 
REMARK       I    between atoms: C_6  and  N_8 
REMARK    2  A    between atoms: N_8  and  C_9 
REMARK    3  A    between atoms: C_15  and  O_16 
ROOT
ATOM      1  C   UNL d   1      23.728 -17.580  -0.566  0.00  0.00     0.256 C 
ATOM      2  O   UNL d   1      23.109 -16.934  -1.416  0.00  0.00    -0.267 OA
ATOM      3  N   UNL d   1      23.164 -18.589   0.214  0.00  0.00    -0.320 N 
ATOM      4  H   UNL d   1      23.606 -18.854   1.080  0.00  0.00     0.169 HD
ENDROOT
BRANCH   3   5
ATOM      5  C   UNL d   1      21.844 -19.062   0.005  0.00  0.00     0.070 A 
ATOM      6  C   UNL d   1      21.027 -19.327   1.110  0.00  0.00     0.056 A 
ATOM      7  C   UNL d   1      19.704 -19.737   0.910  0.00  0.00     0.036 A 
ATOM      8 CL   UNL d   1      18.671 -20.009   2.262  0.00  0.00    -0.084 Cl
ATOM      9  C   UNL d   1      19.197 -19.917  -0.377  0.00  0.00     0.026 A 
ATOM     10  C   UNL d   1      20.020 -19.699  -1.480  0.00  0.00     0.040 A 
ATOM     11  C   UNL d   1      21.340 -19.295  -1.285  0.00  0.00     0.092 A 
BRANCH  11  12
ATOM     12  O   UNL d   1      22.185 -19.248  -2.360  0.00  0.00    -0.358 OA
ATOM     13  H   UNL d   1      23.094 -19.131  -2.049  0.00  0.00     0.217 HD
ENDBRANCH  11  12
ENDBRANCH   3   5
BRANCH   1  14
ATOM     14  C   UNL d   1      25.143 -17.171  -0.288  0.00  0.00     0.032 A 
ATOM     15  C   UNL d   1      25.541 -15.875  -0.664  0.00  0.00     0.017 A 
ATOM     16  C   UNL d   1      26.835 -15.411  -0.407  0.00  0.00     0.007 A 
ATOM     17  C   UNL d   1      27.762 -16.236   0.233  0.00  0.00    -0.062 A 
ATOM     18  C   UNL d   1      29.150 -15.755   0.537  0.00  0.00     0.048 C 
ATOM     19  C   UNL d   1      27.375 -17.530   0.600  0.00  0.00     0.007 A 
ATOM     20  C   UNL d   1      26.080 -17.998   0.340  0.00  0.00     0.017 A 
ENDBRANCH   1  14
TORSDOF 3
ENDMDL
MODEL 8
REMARK VINA RESULT:    -6.138      3.801      5.430
REMARK INTER + INTRA:          -8.220
REMARK INTER:                  -7.033
REMARK INTRA:                  -1.188
REMARK CONF_INDEPENDENT:        0.895
REMARK UNBOUND:                -1.188
REMARK  3 active torsions:
REMARK  status: ('A' for Active; 'I' for Inactive)
REMARK    1  A    between atoms: C_5  and  C_6 
REMARK       I    between atoms: C_6  and  N_8 
REMARK    2  A    between atoms: N_8  and  C_9 
REMARK    3  A    between atoms: C_15  and  O_16 
ROOT
ATOM      1  C   UNL d   1      25.440 -15.627  -2.386  0.00  0.00     0.256 C 
ATOM      2  O   UNL d   1      26.651 -15.793  -2.215  0.00  0.00    -0.267 OA
ATOM      3  N   UNL d   1      24.892 -14.610  -3.168  0.00  0.00    -0.320 N 
ATOM      4  H   UNL d   1      23.934 -14.332  -3.023  0.00  0.00     0.169 HD
ENDROOT
BRANCH   3   5
ATOM      5  C   UNL d   1      25.692 -13.744  -3.955  0.00  0.00     0.070 A 
ATOM      6  C   UNL d   1      25.529 -12.358  -3.831  0.00  0.00     0.056 A 
ATOM      7  C   UNL d   1      26.355 -11.497  -4.561  0.00  0.00     0.036 A 
ATOM      8 CL   UNL d   1      26.204  -9.791  -4.373  0.00  0.00    -0.084 Cl
ATOM      9  C   UNL d   1      27.319 -11.999  -5.436  0.00  0.00     0.026 A 
ATOM     10  C   UNL d   1      27.454 -13.377  -5.598  0.00  0.00     0.040 A 
ATOM     11  C   UNL d   1      26.630 -14.238  -4.875  0.00  0.00     0.092 A 
BRANCH  11  12
ATOM     12  O   UNL d   1      26.653 -15.576  -5.165  0.00  0.00    -0.358 OA
ATOM     13  H   UNL d   1      26.775 -16.079  -4.347  0.00  0.00     0.217 HD
ENDBRANCH  11  12
ENDBRANCH   3   5
BRANCH   1  14
ATOM     14  C   UNL d   1      24.509 -16.512  -1.614  0.00  0.00     0.032 A 
ATOM     15  C   UNL d   1      23.245 -15.999  -1.270  0.00  0.00     0.017 A 
ATOM     16  C   UNL d   1      22.310 -16.777  -0.579  0.00  0.00     0.007 A 
ATOM     17  C   UNL d   1      22.621 -18.089  -0.217  0.00  0.00    -0.062 A 
ATOM     18  C   UNL d   1      21.629 -18.950   0.507  0.00  0.00     0.048 C 
ATOM     19  C   UNL d   1      23.881 -18.602  -0.547  0.00  0.00     0.007 A 
ATOM     20  C   UNL d   1      24.820 -17.822  -1.235  0.00  0.00     0.017 A 
ENDBRANCH   1  14
TORSDOF 3
ENDMDL
MODEL 9
REMARK VINA RESULT:    -5.898      5.137      7.439
REMARK INTER + INTRA:          -7.961
REMARK INTER:                  -6.793
REMARK INTRA:                  -1.168
REMARK CONF_INDEPENDENT:        0.895
REMARK UNBOUND:                -1.168
REMARK  3 active torsions:
REMARK  status: ('A' for Active; 'I' for Inactive)
REMARK    1  A    between atoms: C_5  and  C_6 
REMARK       I    between atoms: C_6  and  N_8 
REMARK    2  A    between atoms: N_8  and  C_9 
REMARK    3  A    between atoms: C_15  and  O_16 
ROOT
ATOM      1  C   UNL d   1      25.571 -14.364  -3.767  0.00  0.00     0.256 C 
ATOM      2  O   UNL d   1      24.483 -14.075  -4.272  0.00  0.00    -0.267 OA
ATOM      3  N   UNL d   1      26.799 -13.890  -4.228  0.00  0.00    -0.320 N 
ATOM      4  H   UNL d   1      27.644 -14.388  -3.995  0.00  0.00     0.169 HD
ENDROOT
BRANCH   3   5
ATOM      5  C   UNL d   1      26.899 -12.915  -5.252  0.00  0.00     0.070 A 
ATOM      6  C   UNL d   1      27.781 -13.128  -6.319  0.00  0.00     0.056 A 
ATOM      7  C   UNL d   1      27.842 -12.197  -7.362  0.00  0.00     0.036 A 
ATOM      8 CL   UNL d   1      28.879 -12.478  -8.710  0.00  0.00    -0.084 Cl
ATOM      9  C   UNL d   1      27.060 -11.042  -7.339  0.00  0.00     0.026 A 
ATOM     10  C   UNL d   1      26.215 -10.802  -6.256  0.00  0.00     0.040 A 
ATOM     11  C   UNL d   1      26.155 -11.725  -5.213  0.00  0.00     0.092 A 
BRANCH  11  12
ATOM     12  O   UNL d   1      25.455 -11.401  -4.082  0.00  0.00    -0.358 OA
ATOM     13  H   UNL d   1      24.637 -11.918  -4.052  0.00  0.00     0.217 HD
ENDBRANCH  11  12
ENDBRANCH   3   5
BRANCH   1  14
ATOM     14  C   UNL d   1      25.568 -15.372  -2.658  0.00  0.00     0.032 A 
ATOM     15  C   UNL d   1      26.806 -15.881  -2.226  0.00  0.00     0.017 A 
ATOM     16  C   UNL d   1      26.886 -16.800  -1.174  0.00  0.00     0.007 A 
ATOM     17  C   UNL d   1      25.724 -17.231  -0.530  0.00  0.00    -0.062 A 
ATOM     18  C   UNL d   1      25.784 -18.201   0.612  0.00  0.00     0.048 C 
ATOM     19  C   UNL d   1      24.488 -16.737  -0.964  0.00  0.00     0.007 A 
ATOM     20  C   UNL d   1      24.407 -15.819  -2.020  0.00  0.00     0.017 A 
ENDBRANCH   1  14
TORSDOF 3
ENDMDL
