MODEL 1
REMARK VINA RESULT:    -8.366      0.000      0.000
REMARK INTER + INTRA:         -12.027
REMARK INTER:                  -9.857
REMARK INTRA:                  -2.170
REMARK CONF_INDEPENDENT:        1.492
REMARK UNBOUND:                -2.170
REMARK  5 active torsions:
REMARK  status: ('A' for Active; 'I' for Inactive)
REMARK    1  A    between atoms: C_3  and  C_4 
REMARK    2  A    between atoms: C_4  and  C_6 
REMARK    3  A    between atoms: C_6  and  N_7 
REMARK    4  A    between atoms: N_10  and  C_11 
REMARK    5  A    between atoms: C_16  and  N_17 
ROOT
ATOM      1  N   UNL d   1      29.912 -17.497  -0.161  0.00  0.00    -0.096 N 
ATOM      2  C   UNL d   1      28.846 -16.824  -0.123  0.00  0.00     0.027 C 
ATOM      3  C   UNL d   1      27.562 -16.012  -0.078  0.00  0.00     0.122 C 
ATOM      4  C   UNL d   1      26.328 -16.643  -0.234  0.00  0.00     0.130 A 
ATOM      5  N   UNL d   1      25.973 -18.011  -0.492  0.00  0.00    -0.339 N 
ATOM      6  C   UNL d   1      24.547 -18.130  -0.616  0.00  0.00     0.060 A 
ATOM      7  C   UNL d   1      23.666 -19.178  -0.896  0.00  0.00     0.032 A 
ATOM      8  C   UNL d   1      22.270 -18.908  -0.936  0.00  0.00     0.002 A 
ATOM      9  C   UNL d   1      21.778 -17.615  -0.695  0.00  0.00     0.002 A 
ATOM     10  C   UNL d   1      22.667 -16.572  -0.414  0.00  0.00     0.032 A 
ATOM     11  C   UNL d   1      24.026 -16.843  -0.382  0.00  0.00     0.060 A 
ATOM     12  N   UNL d   1      25.101 -15.965  -0.163  0.00  0.00    -0.339 N 
ATOM     13  H   UNL d   1      26.594 -18.790  -0.645  0.00  0.00     0.167 HD
ATOM     14  H   UNL d   1      24.991 -14.988   0.048  0.00  0.00     0.167 HD
ENDROOT
BRANCH   3  15
ATOM     15  C   UNL d   1      27.644 -14.507   0.098  0.00  0.00     0.198 C 
ATOM     16  O   UNL d   1      26.807 -13.728  -0.374  0.00  0.00    -0.290 OA
BRANCH  15  17
ATOM     17  C   UNL d   1      28.828 -13.907   0.870  0.00  0.00     0.319 C 
BRANCH  17  18
ATOM     18  N   UNL d   1      29.057 -14.579   2.264  0.00  0.00    -0.061 N 
ATOM     19  C   UNL d   1      30.274 -13.976   3.017  0.00  0.00     0.255 C 
ATOM     20  C   UNL d   1      30.406 -14.531   4.455  0.00  0.00     0.150 C 
ATOM     21  N   UNL d   1      29.129 -14.356   5.150  0.00  0.00    -0.376 N 
ATOM     22  C   UNL d   1      28.022 -15.106   4.550  0.00  0.00     0.150 C 
ATOM     23  C   UNL d   1      27.773 -14.559   3.130  0.00  0.00     0.255 C 
ATOM     24  H   UNL d   1      29.284 -15.573   2.070  0.00  0.00     0.280 HD
BRANCH  21  25
ATOM     25  C   UNL d   1      28.980 -13.527   6.250  0.00  0.00     0.063 A 
ATOM     26  C   UNL d   1      29.191 -14.068   7.540  0.00  0.00     0.032 A 
ATOM     27  C   UNL d   1      28.979 -13.330   8.716  0.00  0.00     0.002 A 
ATOM     28  C   UNL d   1      28.648 -11.987   8.641  0.00  0.00     0.003 A 
ATOM     29  C   UNL d   1      28.529 -11.386   7.391  0.00  0.00     0.038 A 
ATOM     30  C   UNL d   1      28.629 -12.155   6.205  0.00  0.00     0.129 A 
BRANCH  30  31
ATOM     31  N   UNL d   1      28.229 -11.468   4.959  0.00  0.00    -0.113 N 
ATOM     32  O   UNL d   1      28.720 -10.363   4.727  0.00  0.00    -0.532 OA
ATOM     33  O   UNL d   1      27.407 -12.020   4.200  0.00  0.00    -0.532 OA
ENDBRANCH  30  31
ENDBRANCH  21  25
ENDBRANCH  17  18
ENDBRANCH  15  17
ENDBRANCH   3  15
TORSDOF 5
ENDMDL
MODEL 2
REMARK VINA RESULT:    -8.246      2.025      8.957
REMARK INTER + INTRA:         -11.315
REMARK INTER:                  -9.738
REMARK INTRA:                  -1.578
REMARK CONF_INDEPENDENT:        1.492
REMARK UNBOUND:                -1.578
REMARK  5 active torsions:
REMARK  status: ('A' for Active; 'I' for Inactive)
REMARK    1  A    between atoms: C_3  and  C_4 
REMARK    2  A    between atoms: C_4  and  C_6 
REMARK    3  A    between atoms: C_6  and  N_7 
REMARK    4  A    between atoms: N_10  and  C_11 
REMARK    5  A    between atoms: C_16  and  N_17 
ROOT
ATOM      1  N   UNL d   1      28.076 -10.667   4.088  0.00  0.00    -0.096 N 
ATOM      2  C   UNL d   1      28.302 -11.764   4.668  0.00  0.00     0.027 C 
ATOM      3  C   UNL d   1      28.574 -13.085   5.368  0.00  0.00     0.122 C 
ATOM      4  C   UNL d   1      28.621 -13.145   6.760  0.00  0.00     0.130 A 
ATOM      5  N   UNL d   1      28.495 -12.131   7.772  0.00  0.00    -0.339 N 
ATOM      6  C   UNL d   1      28.670 -12.715   9.072  0.00  0.00     0.060 A 
ATOM      7  C   UNL d   1      28.692 -12.221  10.379  0.00  0.00     0.032 A 
ATOM      8  C   UNL d   1      28.897 -13.132  11.453  0.00  0.00     0.002 A 
ATOM      9  C   UNL d   1      29.070 -14.505  11.211  0.00  0.00     0.002 A 
ATOM     10  C   UNL d   1      29.046 -14.990   9.900  0.00  0.00     0.032 A 
ATOM     11  C   UNL d   1      28.850 -14.095   8.859  0.00  0.00     0.060 A 
ATOM     12  N   UNL d   1      28.825 -14.335   7.475  0.00  0.00    -0.339 N 
ATOM     13  H   UNL d   1      28.378 -11.139   7.637  0.00  0.00     0.167 HD
ATOM     14  H   UNL d   1      28.912 -15.249   7.064  0.00  0.00     0.167 HD
ENDROOT
BRANCH   3  15
ATOM     15  C   UNL d   1      28.834 -14.325   4.532  0.00  0.00     0.198 C 
ATOM     16  O   UNL d   1      28.307 -15.419   4.770  0.00  0.00    -0.290 OA
BRANCH  15  17
ATOM     17  C   UNL d   1      29.814 -14.242   3.354  0.00  0.00     0.319 C 
BRANCH  17  18
ATOM     18  N   UNL d   1      29.102 -14.052   1.974  0.00  0.00    -0.061 N 
ATOM     19  C   UNL d   1      29.425 -15.200   0.980  0.00  0.00     0.255 C 
ATOM     20  C   UNL d   1      28.600 -15.093  -0.325  0.00  0.00     0.150 C 
ATOM     21  N   UNL d   1      27.181 -14.984   0.017  0.00  0.00    -0.376 N 
ATOM     22  C   UNL d   1      26.849 -13.777   0.780  0.00  0.00     0.150 C 
ATOM     23  C   UNL d   1      27.576 -13.840   2.138  0.00  0.00     0.255 C 
ATOM     24  H   UNL d   1      29.492 -13.181   1.566  0.00  0.00     0.280 HD
BRANCH  21  25
ATOM     25  C   UNL d   1      26.250 -15.953  -0.318  0.00  0.00     0.063 A 
ATOM     26  C   UNL d   1      26.181 -17.128   0.467  0.00  0.00     0.032 A 
ATOM     27  C   UNL d   1      25.331 -18.201   0.154  0.00  0.00     0.002 A 
ATOM     28  C   UNL d   1      24.440 -18.093  -0.902  0.00  0.00     0.003 A 
ATOM     29  C   UNL d   1      24.402 -16.915  -1.641  0.00  0.00     0.038 A 
ATOM     30  C   UNL d   1      25.337 -15.878  -1.399  0.00  0.00     0.129 A 
BRANCH  30  31
ATOM     31  N   UNL d   1      25.371 -14.796  -2.407  0.00  0.00    -0.113 N 
ATOM     32  O   UNL d   1      25.157 -15.096  -3.581  0.00  0.00    -0.532 OA
ATOM     33  O   UNL d   1      25.624 -13.632  -2.037  0.00  0.00    -0.532 OA
ENDBRANCH  30  31
ENDBRANCH  21  25
ENDBRANCH  17  18
ENDBRANCH  15  17
ENDBRANCH   3  15
TORSDOF 5
ENDMDL
MODEL 3
REMARK VINA RESULT:    -8.065      1.518      2.107
REMARK INTER + INTRA:         -11.481
REMARK INTER:                  -9.557
REMARK INTRA:                  -1.924
REMARK CONF_INDEPENDENT:        1.492
REMARK UNBOUND:                -1.924
REMARK  5 active torsions:
REMARK  status: ('A' for Active; 'I' for Inactive)
REMARK    1  A    between atoms: C_3  and  C_4 
REMARK    2  A    between atoms: C_4  and  C_6 
REMARK    3  A    between atoms: C_6  and  N_7 
REMARK    4  A    between atoms: N_10  and  C_11 
REMARK    5  A    between atoms: C_16  and  N_17 
ROOT
ATOM      1  N   UNL d   1      27.898 -11.901  -1.761  0.00  0.00    -0.096 N 
ATOM      2  C   UNL d   1      27.912 -12.996  -1.136  0.00  0.00     0.027 C 
ATOM      3  C   UNL d   1      27.930 -14.316  -0.382  0.00  0.00     0.122 C 
ATOM      4  C   UNL d   1      26.875 -15.216  -0.521  0.00  0.00     0.130 A 
ATOM      5  N   UNL d   1      25.642 -15.148  -1.257  0.00  0.00    -0.339 N 
ATOM      6  C   UNL d   1      24.868 -16.335  -1.024  0.00  0.00     0.060 A 
ATOM      7  C   UNL d   1      23.611 -16.788  -1.431  0.00  0.00     0.032 A 
ATOM      8  C   UNL d   1      23.163 -18.063  -0.985  0.00  0.00     0.002 A 
ATOM      9  C   UNL d   1      23.967 -18.859  -0.153  0.00  0.00     0.002 A 
ATOM     10  C   UNL d   1      25.224 -18.399   0.249  0.00  0.00     0.032 A 
ATOM     11  C   UNL d   1      25.651 -17.154  -0.187  0.00  0.00     0.060 A 
ATOM     12  N   UNL d   1      26.842 -16.470   0.110  0.00  0.00    -0.339 N 
ATOM     13  H   UNL d   1      25.294 -14.377  -1.805  0.00  0.00     0.167 HD
ATOM     14  H   UNL d   1      27.581 -16.852   0.676  0.00  0.00     0.167 HD
ENDROOT
BRANCH   3  15
ATOM     15  C   UNL d   1      29.088 -14.620   0.551  0.00  0.00     0.198 C 
ATOM     16  O   UNL d   1      29.850 -15.580   0.385  0.00  0.00    -0.290 OA
BRANCH  15  17
ATOM     17  C   UNL d   1      29.319 -13.722   1.774  0.00  0.00     0.319 C 
BRANCH  17  18
ATOM     18  N   UNL d   1      29.202 -14.490   3.132  0.00  0.00    -0.061 N 
ATOM     19  C   UNL d   1      30.409 -14.220   4.070  0.00  0.00     0.255 C 
ATOM     20  C   UNL d   1      30.218 -14.854   5.468  0.00  0.00     0.150 C 
ATOM     21  N   UNL d   1      28.931 -14.420   6.014  0.00  0.00    -0.376 N 
ATOM     22  C   UNL d   1      27.776 -14.866   5.229  0.00  0.00     0.150 C 
ATOM     23  C   UNL d   1      27.849 -14.213   3.834  0.00  0.00     0.255 C 
ATOM     24  H   UNL d   1      29.224 -15.500   2.894  0.00  0.00     0.280 HD
BRANCH  21  25
ATOM     25  C   UNL d   1      28.823 -13.629   7.146  0.00  0.00     0.063 A 
ATOM     26  C   UNL d   1      28.937 -14.243   8.416  0.00  0.00     0.032 A 
ATOM     27  C   UNL d   1      28.756 -13.541   9.617  0.00  0.00     0.002 A 
ATOM     28  C   UNL d   1      28.557 -12.169   9.595  0.00  0.00     0.003 A 
ATOM     29  C   UNL d   1      28.539 -11.506   8.372  0.00  0.00     0.038 A 
ATOM     30  C   UNL d   1      28.606 -12.229   7.155  0.00  0.00     0.129 A 
BRANCH  30  31
ATOM     31  N   UNL d   1      28.317 -11.452   5.930  0.00  0.00    -0.113 N 
ATOM     32  O   UNL d   1      28.955 -10.417   5.740  0.00  0.00    -0.532 OA
ATOM     33  O   UNL d   1      27.437 -11.863   5.147  0.00  0.00    -0.532 OA
ENDBRANCH  30  31
ENDBRANCH  21  25
ENDBRANCH  17  18
ENDBRANCH  15  17
ENDBRANCH   3  15
TORSDOF 5
ENDMDL
MODEL 4
REMARK VINA RESULT:    -7.626      2.798      8.926
REMARK INTER + INTRA:         -11.623
REMARK INTER:                  -9.118
REMARK INTRA:                  -2.506
REMARK CONF_INDEPENDENT:        1.492
REMARK UNBOUND:                -2.506
REMARK  5 active torsions:
REMARK  status: ('A' for Active; 'I' for Inactive)
REMARK    1  A    between atoms: C_3  and  C_4 
REMARK    2  A    between atoms: C_4  and  C_6 
REMARK    3  A    between atoms: C_6  and  N_7 
REMARK    4  A    between atoms: N_10  and  C_11 
REMARK    5  A    between atoms: C_16  and  N_17 
ROOT
ATOM      1  N   UNL d   1      27.626 -10.614   4.474  0.00  0.00    -0.096 N 
ATOM      2  C   UNL d   1      28.071 -11.679   4.982  0.00  0.00     0.027 C 
ATOM      3  C   UNL d   1      28.607 -12.963   5.594  0.00  0.00     0.122 C 
ATOM      4  C   UNL d   1      28.581 -13.144   6.976  0.00  0.00     0.130 A 
ATOM      5  N   UNL d   1      28.156 -12.291   8.052  0.00  0.00    -0.339 N 
ATOM      6  C   UNL d   1      28.384 -12.941   9.311  0.00  0.00     0.060 A 
ATOM      7  C   UNL d   1      28.208 -12.585  10.651  0.00  0.00     0.032 A 
ATOM      8  C   UNL d   1      28.558 -13.524  11.662  0.00  0.00     0.002 A 
ATOM      9  C   UNL d   1      29.068 -14.788  11.326  0.00  0.00     0.002 A 
ATOM     10  C   UNL d   1      29.241 -15.136   9.983  0.00  0.00     0.032 A 
ATOM     11  C   UNL d   1      28.902 -14.215   9.005  0.00  0.00     0.060 A 
ATOM     12  N   UNL d   1      29.019 -14.319   7.608  0.00  0.00    -0.339 N 
ATOM     13  H   UNL d   1      27.813 -11.344   7.987  0.00  0.00     0.167 HD
ATOM     14  H   UNL d   1      29.346 -15.143   7.134  0.00  0.00     0.167 HD
ENDROOT
BRANCH   3  15
ATOM     15  C   UNL d   1      29.206 -14.022   4.686  0.00  0.00     0.198 C 
ATOM     16  O   UNL d   1      29.366 -15.196   5.038  0.00  0.00    -0.290 OA
BRANCH  15  17
ATOM     17  C   UNL d   1      29.664 -13.626   3.276  0.00  0.00     0.319 C 
BRANCH  17  18
ATOM     18  N   UNL d   1      29.303 -14.692   2.190  0.00  0.00    -0.061 N 
ATOM     19  C   UNL d   1      27.779 -14.979   2.128  0.00  0.00     0.255 C 
ATOM     20  C   UNL d   1      27.406 -15.915   0.954  0.00  0.00     0.150 C 
ATOM     21  N   UNL d   1      27.959 -15.364  -0.286  0.00  0.00    -0.376 N 
ATOM     22  C   UNL d   1      29.423 -15.295  -0.300  0.00  0.00     0.150 C 
ATOM     23  C   UNL d   1      29.878 -14.317   0.801  0.00  0.00     0.255 C 
ATOM     24  H   UNL d   1      29.765 -15.573   2.487  0.00  0.00     0.280 HD
BRANCH  21  25
ATOM     25  C   UNL d   1      27.165 -14.917  -1.329  0.00  0.00     0.063 A 
ATOM     26  C   UNL d   1      26.816 -15.827  -2.354  0.00  0.00     0.032 A 
ATOM     27  C   UNL d   1      26.090 -15.444  -3.493  0.00  0.00     0.002 A 
ATOM     28  C   UNL d   1      25.594 -14.155  -3.598  0.00  0.00     0.003 A 
ATOM     29  C   UNL d   1      25.827 -13.252  -2.564  0.00  0.00     0.038 A 
ATOM     30  C   UNL d   1      26.656 -13.602  -1.470  0.00  0.00     0.129 A 
BRANCH  30  31
ATOM     31  N   UNL d   1      27.042 -12.490  -0.575  0.00  0.00    -0.113 N 
ATOM     32  O   UNL d   1      27.626 -11.527  -1.073  0.00  0.00    -0.532 OA
ATOM     33  O   UNL d   1      26.775 -12.570   0.640  0.00  0.00    -0.532 OA
ENDBRANCH  30  31
ENDBRANCH  21  25
ENDBRANCH  17  18
ENDBRANCH  15  17
ENDBRANCH   3  15
TORSDOF 5
ENDMDL
MODEL 5
REMARK VINA RESULT:    -7.551      2.238      3.172
REMARK INTER + INTRA:         -11.442
REMARK INTER:                  -9.042
REMARK INTRA:                  -2.400
REMARK CONF_INDEPENDENT:        1.492
REMARK UNBOUND:                -2.400
REMARK  5 active torsions:
REMARK  status: ('A' for Active; 'I' for Inactive)
REMARK    1  A    between atoms: C_3  and  C_4 
REMARK    2  A    between atoms: C_4  and  C_6 
REMARK    3  A    between atoms: C_6  and  N_7 
REMARK    4  A    between atoms: N_10  and  C_11 
REMARK    5  A    between atoms: C_16  and  N_17 
ROOT
ATOM      1  N   UNL d   1      27.885 -12.940  -2.019  0.00  0.00    -0.096 N 
ATOM      2  C   UNL d   1      27.755 -14.123  -1.605  0.00  0.00     0.027 C 
ATOM      3  C   UNL d   1      27.597 -15.550  -1.105  0.00  0.00     0.122 C 
ATOM      4  C   UNL d   1      26.328 -16.116  -0.990  0.00  0.00     0.130 A 
ATOM      5  N   UNL d   1      25.013 -15.586  -1.223  0.00  0.00    -0.339 N 
ATOM      6  C   UNL d   1      24.024 -16.577  -0.905  0.00  0.00     0.060 A 
ATOM      7  C   UNL d   1      22.627 -16.610  -0.901  0.00  0.00     0.032 A 
ATOM      8  C   UNL d   1      21.970 -17.811  -0.514  0.00  0.00     0.002 A 
ATOM      9  C   UNL d   1      22.706 -18.949  -0.145  0.00  0.00     0.002 A 
ATOM     10  C   UNL d   1      24.103 -18.908  -0.153  0.00  0.00     0.032 A 
ATOM     11  C   UNL d   1      24.735 -17.732  -0.527  0.00  0.00     0.060 A 
ATOM     12  N   UNL d   1      26.109 -17.440  -0.576  0.00  0.00    -0.339 N 
ATOM     13  H   UNL d   1      24.767 -14.647  -1.495  0.00  0.00     0.167 HD
ATOM     14  H   UNL d   1      26.831 -18.109  -0.370  0.00  0.00     0.167 HD
ENDROOT
BRANCH   3  15
ATOM     15  C   UNL d   1      28.833 -16.332  -0.698  0.00  0.00     0.198 C 
ATOM     16  O   UNL d   1      28.925 -17.558  -0.828  0.00  0.00    -0.290 OA
BRANCH  15  17
ATOM     17  C   UNL d   1      30.017 -15.585  -0.067  0.00  0.00     0.319 C 
BRANCH  17  18
ATOM     18  N   UNL d   1      29.757 -15.163   1.416  0.00  0.00    -0.061 N 
ATOM     19  C   UNL d   1      30.579 -13.911   1.826  0.00  0.00     0.255 C 
ATOM     20  C   UNL d   1      30.207 -13.402   3.239  0.00  0.00     0.150 C 
ATOM     21  N   UNL d   1      28.757 -13.211   3.307  0.00  0.00    -0.376 N 
ATOM     22  C   UNL d   1      27.989 -14.447   3.130  0.00  0.00     0.150 C 
ATOM     23  C   UNL d   1      28.246 -14.984   1.708  0.00  0.00     0.255 C 
ATOM     24  H   UNL d   1      30.093 -15.950   2.003  0.00  0.00     0.280 HD
BRANCH  21  25
ATOM     25  C   UNL d   1      28.170 -11.969   3.486  0.00  0.00     0.063 A 
ATOM     26  C   UNL d   1      28.497 -11.225   4.644  0.00  0.00     0.032 A 
ATOM     27  C   UNL d   1      27.889  -9.998   4.954  0.00  0.00     0.002 A 
ATOM     28  C   UNL d   1      27.005  -9.417   4.059  0.00  0.00     0.003 A 
ATOM     29  C   UNL d   1      26.730 -10.066   2.859  0.00  0.00     0.038 A 
ATOM     30  C   UNL d   1      27.253 -11.356   2.597  0.00  0.00     0.129 A 
BRANCH  30  31
ATOM     31  N   UNL d   1      26.689 -12.050   1.419  0.00  0.00    -0.113 N 
ATOM     32  O   UNL d   1      25.909 -12.982   1.619  0.00  0.00    -0.532 OA
ATOM     33  O   UNL d   1      27.029 -11.680   0.278  0.00  0.00    -0.532 OA
ENDBRANCH  30  31
ENDBRANCH  21  25
ENDBRANCH  17  18
ENDBRANCH  15  17
ENDBRANCH   3  15
TORSDOF 5
ENDMDL
MODEL 6
REMARK VINA RESULT:    -7.141      2.890      9.245
REMARK INTER + INTRA:         -11.287
REMARK INTER:                  -8.633
REMARK INTRA:                  -2.654
REMARK CONF_INDEPENDENT:        1.492
REMARK UNBOUND:                -2.654
REMARK  5 active torsions:
REMARK  status: ('A' for Active; 'I' for Inactive)
REMARK    1  A    between atoms: C_3  and  C_4 
REMARK    2  A    between atoms: C_4  and  C_6 
REMARK    3  A    between atoms: C_6  and  N_7 
REMARK    4  A    between atoms: N_10  and  C_11 
REMARK    5  A    between atoms: C_16  and  N_17 
ROOT
ATOM      1  N   UNL d   1      27.425 -10.377   4.662  0.00  0.00    -0.096 N 
ATOM      2  C   UNL d   1      27.849 -11.482   5.098  0.00  0.00     0.027 C 
ATOM      3  C   UNL d   1      28.360 -12.813   5.623  0.00  0.00     0.122 C 
ATOM      4  C   UNL d   1      28.462 -13.032   6.997  0.00  0.00     0.130 A 
ATOM      5  N   UNL d   1      28.204 -12.184   8.128  0.00  0.00    -0.339 N 
ATOM      6  C   UNL d   1      28.517 -12.883   9.343  0.00  0.00     0.060 A 
ATOM      7  C   UNL d   1      28.501 -12.554  10.701  0.00  0.00     0.032 A 
ATOM      8  C   UNL d   1      28.890 -13.541  11.650  0.00  0.00     0.002 A 
ATOM      9  C   UNL d   1      29.280 -14.825  11.236  0.00  0.00     0.002 A 
ATOM     10  C   UNL d   1      29.292 -15.145   9.876  0.00  0.00     0.032 A 
ATOM     11  C   UNL d   1      28.917 -14.177   8.957  0.00  0.00     0.060 A 
ATOM     12  N   UNL d   1      28.885 -14.249   7.554  0.00  0.00    -0.339 N 
ATOM     13  H   UNL d   1      27.920 -11.217   8.120  0.00  0.00     0.167 HD
ATOM     14  H   UNL d   1      29.108 -15.079   7.032  0.00  0.00     0.167 HD
ENDROOT
BRANCH   3  15
ATOM     15  C   UNL d   1      28.793 -13.882   4.636  0.00  0.00     0.198 C 
ATOM     16  O   UNL d   1      29.135 -15.018   4.983  0.00  0.00    -0.290 OA
BRANCH  15  17
ATOM     17  C   UNL d   1      28.840 -13.542   3.139  0.00  0.00     0.319 C 
BRANCH  17  18
ATOM     18  N   UNL d   1      28.981 -14.805   2.227  0.00  0.00    -0.061 N 
ATOM     19  C   UNL d   1      27.625 -15.244   1.613  0.00  0.00     0.255 C 
ATOM     20  C   UNL d   1      27.789 -16.394   0.591  0.00  0.00     0.150 C 
ATOM     21  N   UNL d   1      28.794 -16.008  -0.401  0.00  0.00    -0.376 N 
ATOM     22  C   UNL d   1      30.132 -15.801   0.163  0.00  0.00     0.150 C 
ATOM     23  C   UNL d   1      30.072 -14.613   1.144  0.00  0.00     0.255 C 
ATOM     24  H   UNL d   1      29.296 -15.575   2.848  0.00  0.00     0.280 HD
BRANCH  21  25
ATOM     25  C   UNL d   1      28.495 -15.819  -1.740  0.00  0.00     0.063 A 
ATOM     26  C   UNL d   1      29.473 -16.153  -2.707  0.00  0.00     0.032 A 
ATOM     27  C   UNL d   1      29.294 -15.917  -4.079  0.00  0.00     0.002 A 
ATOM     28  C   UNL d   1      28.083 -15.433  -4.547  0.00  0.00     0.003 A 
ATOM     29  C   UNL d   1      27.055 -15.185  -3.641  0.00  0.00     0.038 A 
ATOM     30  C   UNL d   1      27.273 -15.313  -2.247  0.00  0.00     0.129 A 
BRANCH  30  31
ATOM     31  N   UNL d   1      26.202 -14.777  -1.378  0.00  0.00    -0.113 N 
ATOM     32  O   UNL d   1      26.457 -13.782  -0.699  0.00  0.00    -0.532 OA
ATOM     33  O   UNL d   1      25.096 -15.352  -1.356  0.00  0.00    -0.532 OA
ENDBRANCH  30  31
ENDBRANCH  21  25
ENDBRANCH  17  18
ENDBRANCH  15  17
ENDBRANCH   3  15
TORSDOF 5
ENDMDL
MODEL 7
REMARK VINA RESULT:    -6.626      5.284      8.383
REMARK INTER + INTRA:         -11.703
REMARK INTER:                  -8.118
REMARK INTRA:                  -3.585
REMARK CONF_INDEPENDENT:        1.492
REMARK UNBOUND:                -3.585
REMARK  5 active torsions:
REMARK  status: ('A' for Active; 'I' for Inactive)
REMARK    1  A    between atoms: C_3  and  C_4 
REMARK    2  A    between atoms: C_4  and  C_6 
REMARK    3  A    between atoms: C_6  and  N_7 
REMARK    4  A    between atoms: N_10  and  C_11 
REMARK    5  A    between atoms: C_16  and  N_17 
ROOT
ATOM      1  N   UNL d   1      31.567 -21.018  -0.077  0.00  0.00    -0.096 N 
ATOM      2  C   UNL d   1      31.485 -20.030  -0.857  0.00  0.00     0.027 C 
ATOM      3  C   UNL d   1      31.386 -18.840  -1.797  0.00  0.00     0.122 C 
ATOM      4  C   UNL d   1      31.228 -19.040  -3.168  0.00  0.00     0.130 A 
ATOM      5  N   UNL d   1      31.172 -20.234  -3.966  0.00  0.00    -0.339 N 
ATOM      6  C   UNL d   1      31.046 -19.889  -5.353  0.00  0.00     0.060 A 
ATOM      7  C   UNL d   1      30.987 -20.611  -6.548  0.00  0.00     0.032 A 
ATOM      8  C   UNL d   1      30.854 -19.900  -7.774  0.00  0.00     0.002 A 
ATOM      9  C   UNL d   1      30.779 -18.498  -7.790  0.00  0.00     0.002 A 
ATOM     10  C   UNL d   1      30.837 -17.783  -6.590  0.00  0.00     0.032 A 
ATOM     11  C   UNL d   1      30.971 -18.483  -5.400  0.00  0.00     0.060 A 
ATOM     12  N   UNL d   1      31.088 -17.991  -4.089  0.00  0.00    -0.339 N 
ATOM     13  H   UNL d   1      31.277 -21.188  -3.655  0.00  0.00     0.167 HD
ATOM     14  H   UNL d   1      31.044 -17.014  -3.852  0.00  0.00     0.167 HD
ENDROOT
BRANCH   3  15
ATOM     15  C   UNL d   1      31.503 -17.437  -1.229  0.00  0.00     0.198 C 
ATOM     16  O   UNL d   1      31.982 -16.492  -1.866  0.00  0.00    -0.290 OA
BRANCH  15  17
ATOM     17  C   UNL d   1      31.035 -17.171   0.209  0.00  0.00     0.319 C 
BRANCH  17  18
ATOM     18  N   UNL d   1      29.582 -16.598   0.287  0.00  0.00    -0.061 N 
ATOM     19  C   UNL d   1      29.516 -15.098  -0.105  0.00  0.00     0.255 C 
ATOM     20  C   UNL d   1      28.062 -14.574  -0.177  0.00  0.00     0.150 C 
ATOM     21  N   UNL d   1      27.285 -15.453  -1.054  0.00  0.00    -0.376 N 
ATOM     22  C   UNL d   1      27.173 -16.829  -0.562  0.00  0.00     0.150 C 
ATOM     23  C   UNL d   1      28.582 -17.454  -0.530  0.00  0.00     0.255 C 
ATOM     24  H   UNL d   1      29.300 -16.663   1.284  0.00  0.00     0.280 HD
BRANCH  21  25
ATOM     25  C   UNL d   1      26.740 -15.027  -2.254  0.00  0.00     0.063 A 
ATOM     26  C   UNL d   1      25.445 -14.455  -2.246  0.00  0.00     0.032 A 
ATOM     27  C   UNL d   1      24.778 -14.074  -3.420  0.00  0.00     0.002 A 
ATOM     28  C   UNL d   1      25.425 -14.155  -4.643  0.00  0.00     0.003 A 
ATOM     29  C   UNL d   1      26.737 -14.617  -4.687  0.00  0.00     0.038 A 
ATOM     30  C   UNL d   1      27.370 -15.109  -3.519  0.00  0.00     0.129 A 
BRANCH  30  31
ATOM     31  N   UNL d   1      28.655 -15.810  -3.734  0.00  0.00    -0.113 N 
ATOM     32  O   UNL d   1      28.858 -16.316  -4.837  0.00  0.00    -0.532 OA
ATOM     33  O   UNL d   1      29.474 -15.874  -2.795  0.00  0.00    -0.532 OA
ENDBRANCH  30  31
ENDBRANCH  21  25
ENDBRANCH  17  18
ENDBRANCH  15  17
ENDBRANCH   3  15
TORSDOF 5
ENDMDL
MODEL 8
REMARK VINA RESULT:    -6.021      2.629      3.952
REMARK INTER + INTRA:         -10.939
REMARK INTER:                  -7.512
REMARK INTRA:                  -3.427
REMARK CONF_INDEPENDENT:        1.492
REMARK UNBOUND:                -3.427
REMARK  5 active torsions:
REMARK  status: ('A' for Active; 'I' for Inactive)
REMARK    1  A    between atoms: C_3  and  C_4 
REMARK    2  A    between atoms: C_4  and  C_6 
REMARK    3  A    between atoms: C_6  and  N_7 
REMARK    4  A    between atoms: N_10  and  C_11 
REMARK    5  A    between atoms: C_16  and  N_17 
ROOT
ATOM      1  N   UNL d   1      30.838 -12.202  -0.570  0.00  0.00    -0.096 N 
ATOM      2  C   UNL d   1      30.583 -13.370  -0.169  0.00  0.00     0.027 C 
ATOM      3  C   UNL d   1      30.276 -14.778   0.314  0.00  0.00     0.122 C 
ATOM      4  C   UNL d   1      29.036 -15.357   0.043  0.00  0.00     0.130 A 
ATOM      5  N   UNL d   1      27.863 -14.854  -0.618  0.00  0.00    -0.339 N 
ATOM      6  C   UNL d   1      26.825 -15.845  -0.591  0.00  0.00     0.060 A 
ATOM      7  C   UNL d   1      25.499 -15.897  -1.029  0.00  0.00     0.032 A 
ATOM      8  C   UNL d   1      24.754 -17.091  -0.822  0.00  0.00     0.002 A 
ATOM      9  C   UNL d   1      25.335 -18.203  -0.191  0.00  0.00     0.002 A 
ATOM     10  C   UNL d   1      26.662 -18.143   0.244  0.00  0.00     0.032 A 
ATOM     11  C   UNL d   1      27.380 -16.975   0.042  0.00  0.00     0.060 A 
ATOM     12  N   UNL d   1      28.697 -16.666   0.420  0.00  0.00    -0.339 N 
ATOM     13  H   UNL d   1      27.716 -13.930  -0.993  0.00  0.00     0.167 HD
ATOM     14  H   UNL d   1      29.316 -17.316   0.873  0.00  0.00     0.167 HD
ENDROOT
BRANCH   3  15
ATOM     15  C   UNL d   1      31.317 -15.526   1.125  0.00  0.00     0.198 C 
ATOM     16  O   UNL d   1      31.449 -16.755   1.080  0.00  0.00    -0.290 OA
BRANCH  15  17
ATOM     17  C   UNL d   1      32.236 -14.739   2.071  0.00  0.00     0.319 C 
BRANCH  17  18
ATOM     18  N   UNL d   1      31.465 -14.052   3.246  0.00  0.00    -0.061 N 
ATOM     19  C   UNL d   1      31.656 -12.511   3.256  0.00  0.00     0.255 C 
ATOM     20  C   UNL d   1      30.772 -11.819   4.321  0.00  0.00     0.150 C 
ATOM     21  N   UNL d   1      29.384 -12.245   4.135  0.00  0.00    -0.376 N 
ATOM     22  C   UNL d   1      29.175 -13.682   4.339  0.00  0.00     0.150 C 
ATOM     23  C   UNL d   1      29.968 -14.450   3.263  0.00  0.00     0.255 C 
ATOM     24  H   UNL d   1      31.891 -14.415   4.120  0.00  0.00     0.280 HD
BRANCH  21  25
ATOM     25  C   UNL d   1      28.373 -11.374   3.765  0.00  0.00     0.063 A 
ATOM     26  C   UNL d   1      28.089 -10.269   4.602  0.00  0.00     0.032 A 
ATOM     27  C   UNL d   1      27.029  -9.383   4.354  0.00  0.00     0.002 A 
ATOM     28  C   UNL d   1      26.275  -9.510   3.198  0.00  0.00     0.003 A 
ATOM     29  C   UNL d   1      26.584 -10.522   2.295  0.00  0.00     0.038 A 
ATOM     30  C   UNL d   1      27.577 -11.485   2.598  0.00  0.00     0.129 A 
BRANCH  30  31
ATOM     31  N   UNL d   1      27.636 -12.654   1.693  0.00  0.00    -0.113 N 
ATOM     32  O   UNL d   1      27.327 -13.754   2.152  0.00  0.00    -0.532 OA
ATOM     33  O   UNL d   1      28.004 -12.487   0.513  0.00  0.00    -0.532 OA
ENDBRANCH  30  31
ENDBRANCH  21  25
ENDBRANCH  17  18
ENDBRANCH  15  17
ENDBRANCH   3  15
TORSDOF 5
ENDMDL
MODEL 9
REMARK VINA RESULT:    -5.850      5.875      8.777
REMARK INTER + INTRA:         -11.091
REMARK INTER:                  -7.342
REMARK INTRA:                  -3.750
REMARK CONF_INDEPENDENT:        1.492
REMARK UNBOUND:                -3.750
REMARK  5 active torsions:
REMARK  status: ('A' for Active; 'I' for Inactive)
REMARK    1  A    between atoms: C_3  and  C_4 
REMARK    2  A    between atoms: C_4  and  C_6 
REMARK    3  A    between atoms: C_6  and  N_7 
REMARK    4  A    between atoms: N_10  and  C_11 
REMARK    5  A    between atoms: C_16  and  N_17 
ROOT
ATOM      1  N   UNL d   1      29.911 -11.450  -8.640  0.00  0.00    -0.096 N 
ATOM      2  C   UNL d   1      29.661 -12.142  -7.616  0.00  0.00     0.027 C 
ATOM      3  C   UNL d   1      29.359 -12.977  -6.382  0.00  0.00     0.122 C 
ATOM      4  C   UNL d   1      29.765 -14.309  -6.320  0.00  0.00     0.130 A 
ATOM      5  N   UNL d   1      30.433 -15.157  -7.269  0.00  0.00    -0.339 N 
ATOM      6  C   UNL d   1      30.578 -16.478  -6.727  0.00  0.00     0.060 A 
ATOM      7  C   UNL d   1      31.096 -17.687  -7.199  0.00  0.00     0.032 A 
ATOM      8  C   UNL d   1      31.068 -18.825  -6.347  0.00  0.00     0.002 A 
ATOM      9  C   UNL d   1      30.534 -18.743  -5.050  0.00  0.00     0.002 A 
ATOM     10  C   UNL d   1      30.018 -17.529  -4.585  0.00  0.00     0.032 A 
ATOM     11  C   UNL d   1      30.045 -16.426  -5.424  0.00  0.00     0.060 A 
ATOM     12  N   UNL d   1      29.558 -15.127  -5.198  0.00  0.00    -0.339 N 
ATOM     13  H   UNL d   1      30.709 -14.927  -8.212  0.00  0.00     0.167 HD
ATOM     14  H   UNL d   1      29.146 -14.827  -4.331  0.00  0.00     0.167 HD
ENDROOT
BRANCH   3  15
ATOM     15  C   UNL d   1      28.577 -12.353  -5.240  0.00  0.00     0.198 C 
ATOM     16  O   UNL d   1      29.057 -12.179  -4.113  0.00  0.00    -0.290 OA
BRANCH  15  17
ATOM     17  C   UNL d   1      27.116 -11.942  -5.470  0.00  0.00     0.319 C 
BRANCH  17  18
ATOM     18  N   UNL d   1      26.093 -13.049  -5.053  0.00  0.00    -0.061 N 
ATOM     19  C   UNL d   1      26.646 -14.481  -5.282  0.00  0.00     0.255 C 
ATOM     20  C   UNL d   1      25.699 -15.571  -4.727  0.00  0.00     0.150 C 
ATOM     21  N   UNL d   1      25.395 -15.267  -3.328  0.00  0.00    -0.376 N 
ATOM     22  C   UNL d   1      24.677 -14.003  -3.140  0.00  0.00     0.150 C 
ATOM     23  C   UNL d   1      25.589 -12.849  -3.602  0.00  0.00     0.255 C 
ATOM     24  H   UNL d   1      25.275 -12.936  -5.682  0.00  0.00     0.280 HD
BRANCH  21  25
ATOM     25  C   UNL d   1      25.785 -16.084  -2.280  0.00  0.00     0.063 A 
ATOM     26  C   UNL d   1      24.797 -16.839  -1.603  0.00  0.00     0.032 A 
ATOM     27  C   UNL d   1      25.083 -17.627  -0.477  0.00  0.00     0.002 A 
ATOM     28  C   UNL d   1      26.392 -17.771  -0.047  0.00  0.00     0.003 A 
ATOM     29  C   UNL d   1      27.411 -17.128  -0.744  0.00  0.00     0.038 A 
ATOM     30  C   UNL d   1      27.112 -16.242  -1.809  0.00  0.00     0.129 A 
BRANCH  30  31
ATOM     31  N   UNL d   1      28.241 -15.422  -2.298  0.00  0.00    -0.113 N 
ATOM     32  O   UNL d   1      29.341 -15.964  -2.408  0.00  0.00    -0.532 OA
ATOM     33  O   UNL d   1      28.045 -14.220  -2.567  0.00  0.00    -0.532 OA
ENDBRANCH  30  31
ENDBRANCH  21  25
ENDBRANCH  17  18
ENDBRANCH  15  17
ENDBRANCH   3  15
TORSDOF 5
ENDMDL
