MODEL 1
REMARK VINA RESULT:   -11.174      0.000      0.000
REMARK INTER + INTRA:         -16.956
REMARK INTER:                 -15.350
REMARK INTRA:                  -1.607
REMARK CONF_INDEPENDENT:        4.176
REMARK UNBOUND:                -1.607
REMARK  14 active torsions:
REMARK  status: ('A' for Active; 'I' for Inactive)
REMARK    1  A    between atoms: C_2  and  C_4 
REMARK    2  A    between atoms: C_4  and  C_5 
REMARK    3  A    between atoms: C_5  and  O_6 
REMARK    4  A    between atoms: O_6  and  C_7 
REMARK    5  A    between atoms: C_11  and  C_12 
REMARK       I    between atoms: C_12  and  N_14 
REMARK    6  A    between atoms: N_14  and  C_15 
REMARK    7  A    between atoms: C_15  and  N_17 
REMARK    8  A    between atoms: C_23  and  C_24 
REMARK    9  A    between atoms: C_24  and  C_25 
REMARK   10  A    between atoms: C_25  and  O_27 
REMARK   11  A    between atoms: O_27  and  C_28 
REMARK   12  A    between atoms: C_28  and  C_29 
REMARK   13  A    between atoms: C_29  and  C_30 
REMARK   14  A    between atoms: C_30  and  C_31 
ROOT
ATOM      1  N   UNL d   1      27.175 -15.991  -1.244  0.00  0.00    -0.343 N 
ATOM      2  C   UNL d   1      28.206 -14.980  -1.589  0.00  0.00     0.146 C 
ATOM      3  C   UNL d   1      28.480 -15.028  -3.075  0.00  0.00     0.142 C 
ATOM      4  N   UNL d   1      27.304 -14.665  -3.800  0.00  0.00    -0.358 N 
ATOM      5  C   UNL d   1      26.056 -15.047  -3.408  0.00  0.00     0.241 C 
ATOM      6  O   UNL d   1      25.163 -14.825  -4.223  0.00  0.00    -0.271 OA
ATOM      7  C   UNL d   1      25.850 -15.650  -1.941  0.00  0.00     0.188 C 
ATOM      8  H   UNL d   1      27.360 -14.317  -4.749  0.00  0.00     0.162 HD
ENDROOT
BRANCH   1   9
ATOM      9  C   UNL d   1      27.351 -16.635   0.020  0.00  0.00     0.177 C 
ATOM     10  S   UNL d   1      27.040 -18.292   0.217  0.00  0.00    -0.041 SA
BRANCH   9  11
ATOM     11  N   UNL d   1      27.643 -15.783   1.106  0.00  0.00    -0.299 N 
ATOM     12  C   UNL d   1      27.101 -14.490   1.340  0.00  0.00     0.257 C 
ATOM     13  O   UNL d   1      26.313 -13.921   0.588  0.00  0.00    -0.267 OA
ATOM     14  H   UNL d   1      28.376 -16.084   1.720  0.00  0.00     0.171 HD
BRANCH  12  15
ATOM     15  C   UNL d   1      27.475 -13.697   2.557  0.00  0.00     0.035 A 
ATOM     16  C   UNL d   1      27.452 -12.286   2.455  0.00  0.00     0.017 A 
ATOM     17  C   UNL d   1      27.697 -11.471   3.561  0.00  0.00     0.004 A 
ATOM     18  C   UNL d   1      28.026 -12.054   4.778  0.00  0.00     0.037 A 
ATOM     19  C   UNL d   1      28.055 -13.444   4.897  0.00  0.00     0.069 A 
ATOM     20  C   UNL d   1      27.779 -14.264   3.791  0.00  0.00     0.053 A 
BRANCH  19  21
ATOM     21  O   UNL d   1      28.259 -13.915   6.168  0.00  0.00    -0.351 OA
BRANCH  21  22
ATOM     22  C   UNL d   1      29.624 -14.149   6.496  0.00  0.00     0.176 C 
BRANCH  22  23
ATOM     23  C   UNL d   1      29.913 -13.591   7.884  0.00  0.00     0.030 C 
BRANCH  23  24
ATOM     24  C   UNL d   1      28.619 -13.325   8.668  0.00  0.00    -0.021 C 
ATOM     25  C   UNL d   1      28.530 -14.269   9.865  0.00  0.00     0.009 C 
ATOM     26  C   UNL d   1      28.531 -11.877   9.149  0.00  0.00     0.009 C 
ENDBRANCH  23  24
ENDBRANCH  22  23
ENDBRANCH  21  22
ENDBRANCH  19  21
ENDBRANCH  12  15
ENDBRANCH   9  11
ENDBRANCH   1   9
BRANCH   7  27
ATOM     27  C   UNL d   1      24.855 -16.806  -2.021  0.00  0.00     0.146 C 
BRANCH  27  28
ATOM     28  C   UNL d   1      23.863 -16.819  -0.880  0.00  0.00     0.261 C 
ATOM     29  O   UNL d   1      22.978 -15.986  -0.701  0.00  0.00    -0.265 OA
BRANCH  28  30
ATOM     30  O   UNL d   1      24.139 -17.829  -0.011  0.00  0.00    -0.321 OA
BRANCH  30  31
ATOM     31  C   UNL d   1      22.955 -18.551   0.369  0.00  0.00     0.179 C 
BRANCH  31  32
ATOM     32  C   UNL d   1      22.241 -18.998  -0.882  0.00  0.00     0.031 C 
BRANCH  32  33
ATOM     33  C   UNL d   1      20.781 -18.554  -0.926  0.00  0.00     0.041 C 
BRANCH  33  34
ATOM     34  C   UNL d   1      19.901 -19.386  -0.019  0.00  0.00    -0.058 A 
ATOM     35  C   UNL d   1      20.243 -19.561   1.327  0.00  0.00     0.007 A 
ATOM     36  C   UNL d   1      19.517 -20.449   2.125  0.00  0.00     0.001 A 
ATOM     37  C   UNL d   1      18.400 -21.109   1.611  0.00  0.00     0.000 A 
ATOM     38  C   UNL d   1      18.030 -20.916   0.288  0.00  0.00     0.001 A 
ATOM     39  C   UNL d   1      18.784 -20.075  -0.520  0.00  0.00     0.007 A 
ENDBRANCH  33  34
ENDBRANCH  32  33
ENDBRANCH  31  32
ENDBRANCH  30  31
ENDBRANCH  28  30
ENDBRANCH  27  28
ENDBRANCH   7  27
TORSDOF 14
ENDMDL
MODEL 2
REMARK VINA RESULT:    -9.848      4.606      9.137
REMARK INTER + INTRA:         -16.641
REMARK INTER:                 -14.025
REMARK INTRA:                  -2.616
REMARK CONF_INDEPENDENT:        4.176
REMARK UNBOUND:                -2.616
REMARK  14 active torsions:
REMARK  status: ('A' for Active; 'I' for Inactive)
REMARK    1  A    between atoms: C_2  and  C_4 
REMARK    2  A    between atoms: C_4  and  C_5 
REMARK    3  A    between atoms: C_5  and  O_6 
REMARK    4  A    between atoms: O_6  and  C_7 
REMARK    5  A    between atoms: C_11  and  C_12 
REMARK       I    between atoms: C_12  and  N_14 
REMARK    6  A    between atoms: N_14  and  C_15 
REMARK    7  A    between atoms: C_15  and  N_17 
REMARK    8  A    between atoms: C_23  and  C_24 
REMARK    9  A    between atoms: C_24  and  C_25 
REMARK   10  A    between atoms: C_25  and  O_27 
REMARK   11  A    between atoms: O_27  and  C_28 
REMARK   12  A    between atoms: C_28  and  C_29 
REMARK   13  A    between atoms: C_29  and  C_30 
REMARK   14  A    between atoms: C_30  and  C_31 
ROOT
ATOM      1  N   UNL d   1      26.680 -11.904  -3.301  0.00  0.00    -0.343 N 
ATOM      2  C   UNL d   1      26.063 -10.662  -2.768  0.00  0.00     0.146 C 
ATOM      3  C   UNL d   1      26.283  -9.531  -3.746  0.00  0.00     0.142 C 
ATOM      4  N   UNL d   1      25.615  -9.815  -4.977  0.00  0.00    -0.358 N 
ATOM      5  C   UNL d   1      25.565 -11.067  -5.511  0.00  0.00     0.241 C 
ATOM      6  O   UNL d   1      25.124 -11.129  -6.656  0.00  0.00    -0.271 OA
ATOM      7  C   UNL d   1      25.985 -12.318  -4.606  0.00  0.00     0.188 C 
ATOM      8  H   UNL d   1      25.359  -9.073  -5.617  0.00  0.00     0.162 HD
ENDROOT
BRANCH   1   9
ATOM      9  C   UNL d   1      27.271 -12.761  -2.321  0.00  0.00     0.177 C 
ATOM     10  S   UNL d   1      28.768 -12.393  -1.614  0.00  0.00    -0.041 SA
BRANCH   9  11
ATOM     11  N   UNL d   1      26.610 -13.989  -2.104  0.00  0.00    -0.299 N 
ATOM     12  C   UNL d   1      26.357 -14.607  -0.849  0.00  0.00     0.257 C 
ATOM     13  O   UNL d   1      26.722 -14.155   0.234  0.00  0.00    -0.267 OA
ATOM     14  H   UNL d   1      26.381 -14.519  -2.924  0.00  0.00     0.171 HD
BRANCH  12  15
ATOM     15  C   UNL d   1      25.612 -15.906  -0.757  0.00  0.00     0.035 A 
ATOM     16  C   UNL d   1      26.335 -17.050  -0.346  0.00  0.00     0.017 A 
ATOM     17  C   UNL d   1      25.703 -18.278  -0.145  0.00  0.00     0.004 A 
ATOM     18  C   UNL d   1      24.344 -18.397  -0.407  0.00  0.00     0.037 A 
ATOM     19  C   UNL d   1      23.616 -17.279  -0.815  0.00  0.00     0.069 A 
ATOM     20  C   UNL d   1      24.247 -16.036  -0.988  0.00  0.00     0.053 A 
BRANCH  19  21
ATOM     21  O   UNL d   1      22.263 -17.473  -0.918  0.00  0.00    -0.351 OA
BRANCH  21  22
ATOM     22  C   UNL d   1      21.812 -18.737  -0.446  0.00  0.00     0.176 C 
BRANCH  22  23
ATOM     23  C   UNL d   1      20.375 -18.964  -0.898  0.00  0.00     0.030 C 
BRANCH  23  24
ATOM     24  C   UNL d   1      19.460 -19.323   0.282  0.00  0.00    -0.021 C 
ATOM     25  C   UNL d   1      18.522 -20.461  -0.112  0.00  0.00     0.009 C 
ATOM     26  C   UNL d   1      20.260 -19.723   1.522  0.00  0.00     0.009 C 
ENDBRANCH  23  24
ENDBRANCH  22  23
ENDBRANCH  21  22
ENDBRANCH  19  21
ENDBRANCH  12  15
ENDBRANCH   9  11
ENDBRANCH   1   9
BRANCH   7  27
ATOM     27  C   UNL d   1      26.776 -13.302  -5.465  0.00  0.00     0.146 C 
BRANCH  27  28
ATOM     28  C   UNL d   1      26.443 -14.748  -5.176  0.00  0.00     0.261 C 
ATOM     29  O   UNL d   1      25.496 -15.135  -4.497  0.00  0.00    -0.265 OA
BRANCH  28  30
ATOM     30  O   UNL d   1      27.396 -15.575  -5.688  0.00  0.00    -0.321 OA
BRANCH  30  31
ATOM     31  C   UNL d   1      28.724 -15.143  -5.343  0.00  0.00     0.179 C 
BRANCH  31  32
ATOM     32  C   UNL d   1      29.221 -15.983  -4.193  0.00  0.00     0.031 C 
BRANCH  32  33
ATOM     33  C   UNL d   1      30.607 -16.573  -4.443  0.00  0.00     0.041 C 
BRANCH  33  34
ATOM     34  C   UNL d   1      30.560 -17.787  -5.345  0.00  0.00    -0.058 A 
ATOM     35  C   UNL d   1      30.409 -19.066  -4.796  0.00  0.00     0.007 A 
ATOM     36  C   UNL d   1      30.518 -20.195  -5.612  0.00  0.00     0.001 A 
ATOM     37  C   UNL d   1      30.699 -20.057  -6.988  0.00  0.00     0.000 A 
ATOM     38  C   UNL d   1      30.815 -18.794  -7.548  0.00  0.00     0.001 A 
ATOM     39  C   UNL d   1      30.761 -17.673  -6.730  0.00  0.00     0.007 A 
ENDBRANCH  33  34
ENDBRANCH  32  33
ENDBRANCH  31  32
ENDBRANCH  30  31
ENDBRANCH  28  30
ENDBRANCH  27  28
ENDBRANCH   7  27
TORSDOF 14
ENDMDL
MODEL 3
REMARK VINA RESULT:    -9.353      4.452      9.563
REMARK INTER + INTRA:         -16.142
REMARK INTER:                 -13.529
REMARK INTRA:                  -2.612
REMARK CONF_INDEPENDENT:        4.176
REMARK UNBOUND:                -2.612
REMARK  14 active torsions:
REMARK  status: ('A' for Active; 'I' for Inactive)
REMARK    1  A    between atoms: C_2  and  C_4 
REMARK    2  A    between atoms: C_4  and  C_5 
REMARK    3  A    between atoms: C_5  and  O_6 
REMARK    4  A    between atoms: O_6  and  C_7 
REMARK    5  A    between atoms: C_11  and  C_12 
REMARK       I    between atoms: C_12  and  N_14 
REMARK    6  A    between atoms: N_14  and  C_15 
REMARK    7  A    between atoms: C_15  and  N_17 
REMARK    8  A    between atoms: C_23  and  C_24 
REMARK    9  A    between atoms: C_24  and  C_25 
REMARK   10  A    between atoms: C_25  and  O_27 
REMARK   11  A    between atoms: O_27  and  C_28 
REMARK   12  A    between atoms: C_28  and  C_29 
REMARK   13  A    between atoms: C_29  and  C_30 
REMARK   14  A    between atoms: C_30  and  C_31 
ROOT
ATOM      1  N   UNL d   1      27.576 -13.472  -2.533  0.00  0.00    -0.343 N 
ATOM      2  C   UNL d   1      27.862 -12.292  -1.678  0.00  0.00     0.146 C 
ATOM      3  C   UNL d   1      28.837 -12.683  -0.592  0.00  0.00     0.142 C 
ATOM      4  N   UNL d   1      30.084 -13.071  -1.172  0.00  0.00    -0.358 N 
ATOM      5  C   UNL d   1      30.162 -13.782  -2.331  0.00  0.00     0.241 C 
ATOM      6  O   UNL d   1      31.282 -14.205  -2.610  0.00  0.00    -0.271 OA
ATOM      7  C   UNL d   1      28.857 -13.930  -3.244  0.00  0.00     0.188 C 
ATOM      8  H   UNL d   1      30.943 -13.043  -0.635  0.00  0.00     0.162 HD
ENDROOT
BRANCH   1   9
ATOM      9  C   UNL d   1      26.233 -13.564  -3.017  0.00  0.00     0.177 C 
ATOM     10  S   UNL d   1      25.501 -12.272  -3.838  0.00  0.00    -0.041 SA
BRANCH   9  11
ATOM     11  N   UNL d   1      25.522 -14.721  -2.632  0.00  0.00    -0.299 N 
ATOM     12  C   UNL d   1      25.384 -15.234  -1.314  0.00  0.00     0.257 C 
ATOM     13  O   UNL d   1      25.910 -14.740  -0.319  0.00  0.00    -0.267 OA
ATOM     14  H   UNL d   1      25.158 -15.284  -3.378  0.00  0.00     0.171 HD
BRANCH  12  15
ATOM     15  C   UNL d   1      24.570 -16.462  -1.038  0.00  0.00     0.035 A 
ATOM     16  C   UNL d   1      25.242 -17.593  -0.516  0.00  0.00     0.017 A 
ATOM     17  C   UNL d   1      24.549 -18.746  -0.145  0.00  0.00     0.004 A 
ATOM     18  C   UNL d   1      23.176 -18.809  -0.343  0.00  0.00     0.037 A 
ATOM     19  C   UNL d   1      22.497 -17.705  -0.857  0.00  0.00     0.069 A 
ATOM     20  C   UNL d   1      23.191 -16.534  -1.203  0.00  0.00     0.053 A 
BRANCH  19  21
ATOM     21  O   UNL d   1      21.132 -17.824  -0.888  0.00  0.00    -0.351 OA
BRANCH  21  22
ATOM     22  C   UNL d   1      20.663 -19.113  -1.269  0.00  0.00     0.176 C 
BRANCH  22  23
ATOM     23  C   UNL d   1      19.334 -19.392  -0.578  0.00  0.00     0.030 C 
BRANCH  23  24
ATOM     24  C   UNL d   1      19.488 -20.428   0.546  0.00  0.00    -0.021 C 
ATOM     25  C   UNL d   1      19.939 -19.739   1.832  0.00  0.00     0.009 C 
ATOM     26  C   UNL d   1      18.187 -21.189   0.802  0.00  0.00     0.009 C 
ENDBRANCH  23  24
ENDBRANCH  22  23
ENDBRANCH  21  22
ENDBRANCH  19  21
ENDBRANCH  12  15
ENDBRANCH   9  11
ENDBRANCH   1   9
BRANCH   7  27
ATOM     27  C   UNL d   1      28.805 -15.352  -3.800  0.00  0.00     0.146 C 
BRANCH  27  28
ATOM     28  C   UNL d   1      27.923 -15.483  -5.021  0.00  0.00     0.261 C 
ATOM     29  O   UNL d   1      26.699 -15.575  -5.005  0.00  0.00    -0.265 OA
BRANCH  28  30
ATOM     30  O   UNL d   1      28.675 -15.588  -6.151  0.00  0.00    -0.321 OA
BRANCH  30  31
ATOM     31  C   UNL d   1      29.831 -14.733  -6.107  0.00  0.00     0.179 C 
BRANCH  31  32
ATOM     32  C   UNL d   1      30.729 -15.076  -7.270  0.00  0.00     0.031 C 
BRANCH  32  33
ATOM     33  C   UNL d   1      31.818 -16.082  -6.905  0.00  0.00     0.041 C 
BRANCH  33  34
ATOM     34  C   UNL d   1      31.248 -17.381  -6.380  0.00  0.00    -0.058 A 
ATOM     35  C   UNL d   1      31.153 -17.601  -5.001  0.00  0.00     0.007 A 
ATOM     36  C   UNL d   1      30.771 -18.855  -4.516  0.00  0.00     0.001 A 
ATOM     37  C   UNL d   1      30.405 -19.871  -5.399  0.00  0.00     0.000 A 
ATOM     38  C   UNL d   1      30.460 -19.653  -6.768  0.00  0.00     0.001 A 
ATOM     39  C   UNL d   1      30.893 -18.425  -7.250  0.00  0.00     0.007 A 
ENDBRANCH  33  34
ENDBRANCH  32  33
ENDBRANCH  31  32
ENDBRANCH  30  31
ENDBRANCH  28  30
ENDBRANCH  27  28
ENDBRANCH   7  27
TORSDOF 14
ENDMDL
MODEL 4
REMARK VINA RESULT:    -9.260      5.153      9.732
REMARK INTER + INTRA:         -15.947
REMARK INTER:                 -13.436
REMARK INTRA:                  -2.511
REMARK CONF_INDEPENDENT:        4.176
REMARK UNBOUND:                -2.511
REMARK  14 active torsions:
REMARK  status: ('A' for Active; 'I' for Inactive)
REMARK    1  A    between atoms: C_2  and  C_4 
REMARK    2  A    between atoms: C_4  and  C_5 
REMARK    3  A    between atoms: C_5  and  O_6 
REMARK    4  A    between atoms: O_6  and  C_7 
REMARK    5  A    between atoms: C_11  and  C_12 
REMARK       I    between atoms: C_12  and  N_14 
REMARK    6  A    between atoms: N_14  and  C_15 
REMARK    7  A    between atoms: C_15  and  N_17 
REMARK    8  A    between atoms: C_23  and  C_24 
REMARK    9  A    between atoms: C_24  and  C_25 
REMARK   10  A    between atoms: C_25  and  O_27 
REMARK   11  A    between atoms: O_27  and  C_28 
REMARK   12  A    between atoms: C_28  and  C_29 
REMARK   13  A    between atoms: C_29  and  C_30 
REMARK   14  A    between atoms: C_30  and  C_31 
ROOT
ATOM      1  N   UNL d   1      27.946 -13.843  -4.448  0.00  0.00    -0.343 N 
ATOM      2  C   UNL d   1      27.183 -13.337  -5.618  0.00  0.00     0.146 C 
ATOM      3  C   UNL d   1      28.142 -13.000  -6.736  0.00  0.00     0.142 C 
ATOM      4  N   UNL d   1      28.813 -14.182  -7.176  0.00  0.00    -0.358 N 
ATOM      5  C   UNL d   1      29.216 -15.158  -6.315  0.00  0.00     0.241 C 
ATOM      6  O   UNL d   1      29.941 -16.021  -6.806  0.00  0.00    -0.271 OA
ATOM      7  C   UNL d   1      28.663 -15.151  -4.814  0.00  0.00     0.188 C 
ATOM      8  H   UNL d   1      29.224 -14.238  -8.100  0.00  0.00     0.162 HD
ENDROOT
BRANCH   1   9
ATOM      9  C   UNL d   1      27.428 -13.464  -3.171  0.00  0.00     0.177 C 
ATOM     10  S   UNL d   1      27.693 -11.913  -2.536  0.00  0.00    -0.041 SA
BRANCH   9  11
ATOM     11  N   UNL d   1      26.828 -14.499  -2.422  0.00  0.00    -0.299 N 
ATOM     12  C   UNL d   1      25.500 -14.986  -2.560  0.00  0.00     0.257 C 
ATOM     13  O   UNL d   1      24.672 -14.533  -3.347  0.00  0.00    -0.267 OA
ATOM     14  H   UNL d   1      27.365 -14.859  -1.656  0.00  0.00     0.171 HD
BRANCH  12  15
ATOM     15  C   UNL d   1      24.995 -16.119  -1.717  0.00  0.00     0.035 A 
ATOM     16  C   UNL d   1      25.934 -16.819  -0.925  0.00  0.00     0.017 A 
ATOM     17  C   UNL d   1      25.538 -17.826  -0.043  0.00  0.00     0.004 A 
ATOM     18  C   UNL d   1      24.200 -18.189   0.019  0.00  0.00     0.037 A 
ATOM     19  C   UNL d   1      23.259 -17.512  -0.757  0.00  0.00     0.069 A 
ATOM     20  C   UNL d   1      23.654 -16.478  -1.622  0.00  0.00     0.053 A 
BRANCH  19  21
ATOM     21  O   UNL d   1      21.954 -17.859  -0.522  0.00  0.00    -0.351 OA
BRANCH  21  22
ATOM     22  C   UNL d   1      21.757 -19.235  -0.217  0.00  0.00     0.176 C 
BRANCH  22  23
ATOM     23  C   UNL d   1      20.332 -19.634  -0.582  0.00  0.00     0.030 C 
BRANCH  23  24
ATOM     24  C   UNL d   1      19.420 -19.668   0.654  0.00  0.00    -0.021 C 
ATOM     25  C   UNL d   1      18.501 -20.886   0.591  0.00  0.00     0.009 C 
ATOM     26  C   UNL d   1      20.223 -19.697   1.955  0.00  0.00     0.009 C 
ENDBRANCH  23  24
ENDBRANCH  22  23
ENDBRANCH  21  22
ENDBRANCH  19  21
ENDBRANCH  12  15
ENDBRANCH   9  11
ENDBRANCH   1   9
BRANCH   7  27
ATOM     27  C   UNL d   1      29.798 -15.541  -3.870  0.00  0.00     0.146 C 
BRANCH  27  28
ATOM     28  C   UNL d   1      29.417 -16.636  -2.899  0.00  0.00     0.261 C 
ATOM     29  O   UNL d   1      28.596 -16.526  -1.993  0.00  0.00    -0.265 OA
BRANCH  28  30
ATOM     30  O   UNL d   1      30.182 -17.745  -3.097  0.00  0.00    -0.321 OA
BRANCH  30  31
ATOM     31  C   UNL d   1      30.228 -18.126  -4.483  0.00  0.00     0.179 C 
BRANCH  31  32
ATOM     32  C   UNL d   1      31.284 -19.189  -4.656  0.00  0.00     0.031 C 
BRANCH  32  33
ATOM     33  C   UNL d   1      30.813 -20.363  -5.510  0.00  0.00     0.041 C 
BRANCH  33  34
ATOM     34  C   UNL d   1      31.134 -20.172  -6.976  0.00  0.00    -0.058 A 
ATOM     35  C   UNL d   1      31.526 -21.264  -7.759  0.00  0.00     0.007 A 
ATOM     36  C   UNL d   1      31.968 -21.064  -9.070  0.00  0.00     0.001 A 
ATOM     37  C   UNL d   1      31.948 -19.788  -9.634  0.00  0.00     0.000 A 
ATOM     38  C   UNL d   1      31.527 -18.703  -8.879  0.00  0.00     0.001 A 
ATOM     39  C   UNL d   1      31.139 -18.894  -7.560  0.00  0.00     0.007 A 
ENDBRANCH  33  34
ENDBRANCH  32  33
ENDBRANCH  31  32
ENDBRANCH  30  31
ENDBRANCH  28  30
ENDBRANCH  27  28
ENDBRANCH   7  27
TORSDOF 14
ENDMDL
MODEL 5
REMARK VINA RESULT:    -9.260      2.818      8.631
REMARK INTER + INTRA:         -16.566
REMARK INTER:                 -13.436
REMARK INTRA:                  -3.130
REMARK CONF_INDEPENDENT:        4.176
REMARK UNBOUND:                -3.130
REMARK  14 active torsions:
REMARK  status: ('A' for Active; 'I' for Inactive)
REMARK    1  A    between atoms: C_2  and  C_4 
REMARK    2  A    between atoms: C_4  and  C_5 
REMARK    3  A    between atoms: C_5  and  O_6 
REMARK    4  A    between atoms: O_6  and  C_7 
REMARK    5  A    between atoms: C_11  and  C_12 
REMARK       I    between atoms: C_12  and  N_14 
REMARK    6  A    between atoms: N_14  and  C_15 
REMARK    7  A    between atoms: C_15  and  N_17 
REMARK    8  A    between atoms: C_23  and  C_24 
REMARK    9  A    between atoms: C_24  and  C_25 
REMARK   10  A    between atoms: C_25  and  O_27 
REMARK   11  A    between atoms: O_27  and  C_28 
REMARK   12  A    between atoms: C_28  and  C_29 
REMARK   13  A    between atoms: C_29  and  C_30 
REMARK   14  A    between atoms: C_30  and  C_31 
ROOT
ATOM      1  N   UNL d   1      27.868 -14.148  -4.355  0.00  0.00    -0.343 N 
ATOM      2  C   UNL d   1      27.147 -13.828  -5.613  0.00  0.00     0.146 C 
ATOM      3  C   UNL d   1      28.146 -13.444  -6.681  0.00  0.00     0.142 C 
ATOM      4  N   UNL d   1      28.995 -14.554  -6.976  0.00  0.00    -0.358 N 
ATOM      5  C   UNL d   1      29.445 -15.408  -6.015  0.00  0.00     0.241 C 
ATOM      6  O   UNL d   1      30.311 -16.198  -6.382  0.00  0.00    -0.271 OA
ATOM      7  C   UNL d   1      28.772 -15.372  -4.563  0.00  0.00     0.188 C 
ATOM      8  H   UNL d   1      29.486 -14.618  -7.860  0.00  0.00     0.162 HD
ENDROOT
BRANCH   1   9
ATOM      9  C   UNL d   1      27.202 -13.756  -3.152  0.00  0.00     0.177 C 
ATOM     10  S   UNL d   1      27.269 -12.157  -2.587  0.00  0.00    -0.041 SA
BRANCH   9  11
ATOM     11  N   UNL d   1      26.628 -14.803  -2.400  0.00  0.00    -0.299 N 
ATOM     12  C   UNL d   1      25.259 -15.186  -2.386  0.00  0.00     0.257 C 
ATOM     13  O   UNL d   1      24.372 -14.616  -3.017  0.00  0.00    -0.267 OA
ATOM     14  H   UNL d   1      27.233 -15.258  -1.743  0.00  0.00     0.171 HD
BRANCH  12  15
ATOM     15  C   UNL d   1      24.784 -16.345  -1.561  0.00  0.00     0.035 A 
ATOM     16  C   UNL d   1      25.763 -17.162  -0.950  0.00  0.00     0.017 A 
ATOM     17  C   UNL d   1      25.410 -18.206  -0.093  0.00  0.00     0.004 A 
ATOM     18  C   UNL d   1      24.067 -18.486   0.124  0.00  0.00     0.037 A 
ATOM     19  C   UNL d   1      23.088 -17.691  -0.472  0.00  0.00     0.069 A 
ATOM     20  C   UNL d   1      23.443 -16.622  -1.311  0.00  0.00     0.053 A 
BRANCH  19  21
ATOM     21  O   UNL d   1      21.801 -17.969  -0.089  0.00  0.00    -0.351 OA
BRANCH  21  22
ATOM     22  C   UNL d   1      21.287 -19.194  -0.600  0.00  0.00     0.176 C 
BRANCH  22  23
ATOM     23  C   UNL d   1      19.825 -19.336  -0.195  0.00  0.00     0.030 C 
BRANCH  23  24
ATOM     24  C   UNL d   1      19.616 -20.520   0.763  0.00  0.00    -0.021 C 
ATOM     25  C   UNL d   1      19.861 -20.074   2.203  0.00  0.00     0.009 C 
ATOM     26  C   UNL d   1      18.212 -21.112   0.641  0.00  0.00     0.009 C 
ENDBRANCH  23  24
ENDBRANCH  22  23
ENDBRANCH  21  22
ENDBRANCH  19  21
ENDBRANCH  12  15
ENDBRANCH   9  11
ENDBRANCH   1   9
BRANCH   7  27
ATOM     27  C   UNL d   1      29.865 -15.544  -3.511  0.00  0.00     0.146 C 
BRANCH  27  28
ATOM     28  C   UNL d   1      29.705 -16.800  -2.685  0.00  0.00     0.261 C 
ATOM     29  O   UNL d   1      30.339 -17.840  -2.844  0.00  0.00    -0.265 OA
BRANCH  28  30
ATOM     30  O   UNL d   1      28.686 -16.664  -1.792  0.00  0.00    -0.321 OA
BRANCH  30  31
ATOM     31  C   UNL d   1      29.167 -16.507  -0.446  0.00  0.00     0.179 C 
BRANCH  31  32
ATOM     32  C   UNL d   1      28.846 -15.109   0.021  0.00  0.00     0.031 C 
BRANCH  32  33
ATOM     33  C   UNL d   1      27.492 -15.012   0.719  0.00  0.00     0.041 C 
BRANCH  33  34
ATOM     34  C   UNL d   1      27.517 -14.054   1.890  0.00  0.00    -0.058 A 
ATOM     35  C   UNL d   1      27.173 -12.709   1.706  0.00  0.00     0.007 A 
ATOM     36  C   UNL d   1      27.343 -11.794   2.749  0.00  0.00     0.001 A 
ATOM     37  C   UNL d   1      27.780 -12.224   4.002  0.00  0.00     0.000 A 
ATOM     38  C   UNL d   1      28.090 -13.561   4.206  0.00  0.00     0.001 A 
ATOM     39  C   UNL d   1      27.973 -14.461   3.154  0.00  0.00     0.007 A 
ENDBRANCH  33  34
ENDBRANCH  32  33
ENDBRANCH  31  32
ENDBRANCH  30  31
ENDBRANCH  28  30
ENDBRANCH  27  28
ENDBRANCH   7  27
TORSDOF 14
ENDMDL
MODEL 6
REMARK VINA RESULT:    -9.133      2.606      8.701
REMARK INTER + INTRA:         -16.068
REMARK INTER:                 -13.309
REMARK INTRA:                  -2.759
REMARK CONF_INDEPENDENT:        4.176
REMARK UNBOUND:                -2.759
REMARK  14 active torsions:
REMARK  status: ('A' for Active; 'I' for Inactive)
REMARK    1  A    between atoms: C_2  and  C_4 
REMARK    2  A    between atoms: C_4  and  C_5 
REMARK    3  A    between atoms: C_5  and  O_6 
REMARK    4  A    between atoms: O_6  and  C_7 
REMARK    5  A    between atoms: C_11  and  C_12 
REMARK       I    between atoms: C_12  and  N_14 
REMARK    6  A    between atoms: N_14  and  C_15 
REMARK    7  A    between atoms: C_15  and  N_17 
REMARK    8  A    between atoms: C_23  and  C_24 
REMARK    9  A    between atoms: C_24  and  C_25 
REMARK   10  A    between atoms: C_25  and  O_27 
REMARK   11  A    between atoms: O_27  and  C_28 
REMARK   12  A    between atoms: C_28  and  C_29 
REMARK   13  A    between atoms: C_29  and  C_30 
REMARK   14  A    between atoms: C_30  and  C_31 
ROOT
ATOM      1  N   UNL d   1      27.042 -12.680  -4.627  0.00  0.00    -0.343 N 
ATOM      2  C   UNL d   1      27.038 -11.979  -5.936  0.00  0.00     0.146 C 
ATOM      3  C   UNL d   1      25.826 -11.079  -6.020  0.00  0.00     0.142 C 
ATOM      4  N   UNL d   1      25.904 -10.062  -5.019  0.00  0.00    -0.358 N 
ATOM      5  C   UNL d   1      26.387 -10.301  -3.768  0.00  0.00     0.241 C 
ATOM      6  O   UNL d   1      26.220  -9.389  -2.961  0.00  0.00    -0.271 OA
ATOM      7  C   UNL d   1      27.178 -11.663  -3.485  0.00  0.00     0.188 C 
ATOM      8  H   UNL d   1      25.393  -9.193  -5.115  0.00  0.00     0.162 HD
ENDROOT
BRANCH   1   9
ATOM      9  C   UNL d   1      27.531 -14.024  -4.656  0.00  0.00     0.177 C 
ATOM     10  S   UNL d   1      28.402 -14.617  -5.986  0.00  0.00    -0.041 SA
BRANCH   9  11
ATOM     11  N   UNL d   1      27.112 -14.851  -3.592  0.00  0.00    -0.299 N 
ATOM     12  C   UNL d   1      25.771 -15.168  -3.242  0.00  0.00     0.257 C 
ATOM     13  O   UNL d   1      24.780 -14.723  -3.815  0.00  0.00    -0.267 OA
ATOM     14  H   UNL d   1      27.830 -15.168  -2.969  0.00  0.00     0.171 HD
BRANCH  12  15
ATOM     15  C   UNL d   1      25.462 -16.090  -2.100  0.00  0.00     0.035 A 
ATOM     16  C   UNL d   1      26.551 -16.701  -1.435  0.00  0.00     0.017 A 
ATOM     17  C   UNL d   1      26.361 -17.501  -0.307  0.00  0.00     0.004 A 
ATOM     18  C   UNL d   1      25.071 -17.750   0.142  0.00  0.00     0.037 A 
ATOM     19  C   UNL d   1      23.985 -17.157  -0.503  0.00  0.00     0.069 A 
ATOM     20  C   UNL d   1      24.179 -16.329  -1.619  0.00  0.00     0.053 A 
BRANCH  19  21
ATOM     21  O   UNL d   1      22.770 -17.361   0.100  0.00  0.00    -0.351 OA
BRANCH  21  22
ATOM     22  C   UNL d   1      21.848 -18.116  -0.678  0.00  0.00     0.176 C 
BRANCH  22  23
ATOM     23  C   UNL d   1      21.783 -19.541  -0.143  0.00  0.00     0.030 C 
BRANCH  23  24
ATOM     24  C   UNL d   1      20.332 -19.994   0.085  0.00  0.00    -0.021 C 
ATOM     25  C   UNL d   1      19.905 -19.674   1.516  0.00  0.00     0.009 C 
ATOM     26  C   UNL d   1      19.367 -19.332  -0.898  0.00  0.00     0.009 C 
ENDBRANCH  23  24
ENDBRANCH  22  23
ENDBRANCH  21  22
ENDBRANCH  19  21
ENDBRANCH  12  15
ENDBRANCH   9  11
ENDBRANCH   1   9
BRANCH   7  27
ATOM     27  C   UNL d   1      26.773 -12.189  -2.110  0.00  0.00     0.146 C 
BRANCH  27  28
ATOM     28  C   UNL d   1      27.902 -12.880  -1.379  0.00  0.00     0.261 C 
ATOM     29  O   UNL d   1      28.783 -13.552  -1.908  0.00  0.00    -0.265 OA
BRANCH  28  30
ATOM     30  O   UNL d   1      27.760 -12.743  -0.032  0.00  0.00    -0.321 OA
BRANCH  30  31
ATOM     31  C   UNL d   1      27.015 -13.830   0.543  0.00  0.00     0.179 C 
BRANCH  31  32
ATOM     32  C   UNL d   1      26.275 -13.320   1.755  0.00  0.00     0.031 C 
BRANCH  32  33
ATOM     33  C   UNL d   1      27.090 -12.321   2.573  0.00  0.00     0.041 C 
BRANCH  33  34
ATOM     34  C   UNL d   1      27.674 -12.943   3.822  0.00  0.00    -0.058 A 
ATOM     35  C   UNL d   1      27.786 -14.334   3.930  0.00  0.00     0.007 A 
ATOM     36  C   UNL d   1      28.181 -14.914   5.138  0.00  0.00     0.001 A 
ATOM     37  C   UNL d   1      28.543 -14.112   6.221  0.00  0.00     0.000 A 
ATOM     38  C   UNL d   1      28.469 -12.731   6.115  0.00  0.00     0.001 A 
ATOM     39  C   UNL d   1      28.024 -12.156   4.932  0.00  0.00     0.007 A 
ENDBRANCH  33  34
ENDBRANCH  32  33
ENDBRANCH  31  32
ENDBRANCH  30  31
ENDBRANCH  28  30
ENDBRANCH  27  28
ENDBRANCH   7  27
TORSDOF 14
ENDMDL
MODEL 7
REMARK VINA RESULT:    -9.103      5.071      9.300
REMARK INTER + INTRA:         -15.635
REMARK INTER:                 -13.280
REMARK INTRA:                  -2.356
REMARK CONF_INDEPENDENT:        4.176
REMARK UNBOUND:                -2.356
REMARK  14 active torsions:
REMARK  status: ('A' for Active; 'I' for Inactive)
REMARK    1  A    between atoms: C_2  and  C_4 
REMARK    2  A    between atoms: C_4  and  C_5 
REMARK    3  A    between atoms: C_5  and  O_6 
REMARK    4  A    between atoms: O_6  and  C_7 
REMARK    5  A    between atoms: C_11  and  C_12 
REMARK       I    between atoms: C_12  and  N_14 
REMARK    6  A    between atoms: N_14  and  C_15 
REMARK    7  A    between atoms: C_15  and  N_17 
REMARK    8  A    between atoms: C_23  and  C_24 
REMARK    9  A    between atoms: C_24  and  C_25 
REMARK   10  A    between atoms: C_25  and  O_27 
REMARK   11  A    between atoms: O_27  and  C_28 
REMARK   12  A    between atoms: C_28  and  C_29 
REMARK   13  A    between atoms: C_29  and  C_30 
REMARK   14  A    between atoms: C_30  and  C_31 
ROOT
ATOM      1  N   UNL d   1      28.493 -12.910  -4.241  0.00  0.00    -0.343 N 
ATOM      2  C   UNL d   1      29.414 -12.162  -3.347  0.00  0.00     0.146 C 
ATOM      3  C   UNL d   1      30.767 -12.836  -3.343  0.00  0.00     0.142 C 
ATOM      4  N   UNL d   1      31.343 -12.783  -4.649  0.00  0.00    -0.358 N 
ATOM      5  C   UNL d   1      30.603 -12.934  -5.782  0.00  0.00     0.241 C 
ATOM      6  O   UNL d   1      31.253 -13.052  -6.818  0.00  0.00    -0.271 OA
ATOM      7  C   UNL d   1      29.008 -12.860  -5.687  0.00  0.00     0.188 C 
ATOM      8  H   UNL d   1      32.344 -12.866  -4.784  0.00  0.00     0.162 HD
ENDROOT
BRANCH   1   9
ATOM      9  C   UNL d   1      27.133 -12.968  -3.805  0.00  0.00     0.177 C 
ATOM     10  S   UNL d   1      26.024 -11.749  -4.207  0.00  0.00    -0.041 SA
BRANCH   9  11
ATOM     11  N   UNL d   1      26.824 -14.008  -2.902  0.00  0.00    -0.299 N 
ATOM     12  C   UNL d   1      25.690 -14.864  -2.950  0.00  0.00     0.257 C 
ATOM     13  O   UNL d   1      24.793 -14.783  -3.786  0.00  0.00    -0.267 OA
ATOM     14  H   UNL d   1      27.416 -14.086  -2.097  0.00  0.00     0.171 HD
BRANCH  12  15
ATOM     15  C   UNL d   1      25.496 -15.956  -1.941  0.00  0.00     0.035 A 
ATOM     16  C   UNL d   1      26.629 -16.383  -1.208  0.00  0.00     0.017 A 
ATOM     17  C   UNL d   1      26.523 -17.329  -0.187  0.00  0.00     0.004 A 
ATOM     18  C   UNL d   1      25.289 -17.907   0.081  0.00  0.00     0.037 A 
ATOM     19  C   UNL d   1      24.162 -17.500  -0.633  0.00  0.00     0.069 A 
ATOM     20  C   UNL d   1      24.263 -16.527  -1.640  0.00  0.00     0.053 A 
BRANCH  19  21
ATOM     21  O   UNL d   1      22.976 -18.036  -0.201  0.00  0.00    -0.351 OA
BRANCH  21  22
ATOM     22  C   UNL d   1      22.343 -18.897  -1.141  0.00  0.00     0.176 C 
BRANCH  22  23
ATOM     23  C   UNL d   1      20.832 -18.818  -0.961  0.00  0.00     0.030 C 
BRANCH  23  24
ATOM     24  C   UNL d   1      20.328 -19.856   0.053  0.00  0.00    -0.021 C 
ATOM     25  C   UNL d   1      20.515 -19.331   1.475  0.00  0.00     0.009 C 
ATOM     26  C   UNL d   1      18.857 -20.207  -0.174  0.00  0.00     0.009 C 
ENDBRANCH  23  24
ENDBRANCH  22  23
ENDBRANCH  21  22
ENDBRANCH  19  21
ENDBRANCH  12  15
ENDBRANCH   9  11
ENDBRANCH   1   9
BRANCH   7  27
ATOM     27  C   UNL d   1      28.411 -13.918  -6.613  0.00  0.00     0.146 C 
BRANCH  27  28
ATOM     28  C   UNL d   1      27.853 -15.112  -5.873  0.00  0.00     0.261 C 
ATOM     29  O   UNL d   1      26.663 -15.313  -5.647  0.00  0.00    -0.265 OA
BRANCH  28  30
ATOM     30  O   UNL d   1      28.858 -15.898  -5.396  0.00  0.00    -0.321 OA
BRANCH  30  31
ATOM     31  C   UNL d   1      28.951 -15.839  -3.962  0.00  0.00     0.179 C 
BRANCH  31  32
ATOM     32  C   UNL d   1      29.653 -17.082  -3.473  0.00  0.00     0.031 C 
BRANCH  32  33
ATOM     33  C   UNL d   1      30.983 -17.331  -4.181  0.00  0.00     0.041 C 
BRANCH  33  34
ATOM     34  C   UNL d   1      30.833 -18.243  -5.379  0.00  0.00    -0.058 A 
ATOM     35  C   UNL d   1      30.795 -19.632  -5.206  0.00  0.00     0.007 A 
ATOM     36  C   UNL d   1      30.810 -20.477  -6.319  0.00  0.00     0.001 A 
ATOM     37  C   UNL d   1      30.783 -19.946  -7.609  0.00  0.00     0.000 A 
ATOM     38  C   UNL d   1      30.785 -18.571  -7.792  0.00  0.00     0.001 A 
ATOM     39  C   UNL d   1      30.825 -17.731  -6.687  0.00  0.00     0.007 A 
ENDBRANCH  33  34
ENDBRANCH  32  33
ENDBRANCH  31  32
ENDBRANCH  30  31
ENDBRANCH  28  30
ENDBRANCH  27  28
ENDBRANCH   7  27
TORSDOF 14
ENDMDL
MODEL 8
REMARK VINA RESULT:    -8.758      4.438      8.745
REMARK INTER + INTRA:         -16.545
REMARK INTER:                 -12.935
REMARK INTRA:                  -3.610
REMARK CONF_INDEPENDENT:        4.176
REMARK UNBOUND:                -3.610
REMARK  14 active torsions:
REMARK  status: ('A' for Active; 'I' for Inactive)
REMARK    1  A    between atoms: C_2  and  C_4 
REMARK    2  A    between atoms: C_4  and  C_5 
REMARK    3  A    between atoms: C_5  and  O_6 
REMARK    4  A    between atoms: O_6  and  C_7 
REMARK    5  A    between atoms: C_11  and  C_12 
REMARK       I    between atoms: C_12  and  N_14 
REMARK    6  A    between atoms: N_14  and  C_15 
REMARK    7  A    between atoms: C_15  and  N_17 
REMARK    8  A    between atoms: C_23  and  C_24 
REMARK    9  A    between atoms: C_24  and  C_25 
REMARK   10  A    between atoms: C_25  and  O_27 
REMARK   11  A    between atoms: O_27  and  C_28 
REMARK   12  A    between atoms: C_28  and  C_29 
REMARK   13  A    between atoms: C_29  and  C_30 
REMARK   14  A    between atoms: C_30  and  C_31 
ROOT
ATOM      1  N   UNL d   1      26.586 -11.771  -3.201  0.00  0.00    -0.343 N 
ATOM      2  C   UNL d   1      25.890 -10.516  -2.818  0.00  0.00     0.146 C 
ATOM      3  C   UNL d   1      26.215  -9.434  -3.823  0.00  0.00     0.142 C 
ATOM      4  N   UNL d   1      25.712  -9.797  -5.110  0.00  0.00    -0.358 N 
ATOM      5  C   UNL d   1      25.746 -11.077  -5.576  0.00  0.00     0.241 C 
ATOM      6  O   UNL d   1      25.453 -11.209  -6.762  0.00  0.00    -0.271 OA
ATOM      7  C   UNL d   1      26.067 -12.269  -4.557  0.00  0.00     0.188 C 
ATOM      8  H   UNL d   1      25.528  -9.096  -5.817  0.00  0.00     0.162 HD
ENDROOT
BRANCH   1   9
ATOM      9  C   UNL d   1      27.061 -12.562  -2.109  0.00  0.00     0.177 C 
ATOM     10  S   UNL d   1      28.428 -12.103  -1.215  0.00  0.00    -0.041 SA
BRANCH   9  11
ATOM     11  N   UNL d   1      26.420 -13.807  -1.931  0.00  0.00    -0.299 N 
ATOM     12  C   UNL d   1      26.324 -14.547  -0.722  0.00  0.00     0.257 C 
ATOM     13  O   UNL d   1      26.830 -14.204   0.345  0.00  0.00    -0.267 OA
ATOM     14  H   UNL d   1      26.083 -14.253  -2.763  0.00  0.00     0.171 HD
BRANCH  12  15
ATOM     15  C   UNL d   1      25.583 -15.850  -0.663  0.00  0.00     0.035 A 
ATOM     16  C   UNL d   1      26.300 -16.995  -0.243  0.00  0.00     0.017 A 
ATOM     17  C   UNL d   1      25.669 -18.228  -0.073  0.00  0.00     0.004 A 
ATOM     18  C   UNL d   1      24.319 -18.351  -0.374  0.00  0.00     0.037 A 
ATOM     19  C   UNL d   1      23.597 -17.232  -0.790  0.00  0.00     0.069 A 
ATOM     20  C   UNL d   1      24.225 -15.985  -0.933  0.00  0.00     0.053 A 
BRANCH  19  21
ATOM     21  O   UNL d   1      22.248 -17.432  -0.933  0.00  0.00    -0.351 OA
BRANCH  21  22
ATOM     22  C   UNL d   1      21.866 -18.796  -1.064  0.00  0.00     0.176 C 
BRANCH  22  23
ATOM     23  C   UNL d   1      20.364 -18.924  -0.842  0.00  0.00     0.030 C 
BRANCH  23  24
ATOM     24  C   UNL d   1      20.031 -20.072   0.124  0.00  0.00    -0.021 C 
ATOM     25  C   UNL d   1      20.280 -19.630   1.564  0.00  0.00     0.009 C 
ATOM     26  C   UNL d   1      18.583 -20.541  -0.026  0.00  0.00     0.009 C 
ENDBRANCH  23  24
ENDBRANCH  22  23
ENDBRANCH  21  22
ENDBRANCH  19  21
ENDBRANCH  12  15
ENDBRANCH   9  11
ENDBRANCH   1   9
BRANCH   7  27
ATOM     27  C   UNL d   1      26.972 -13.280  -5.255  0.00  0.00     0.146 C 
BRANCH  27  28
ATOM     28  C   UNL d   1      26.512 -14.710  -5.086  0.00  0.00     0.261 C 
ATOM     29  O   UNL d   1      25.526 -15.066  -4.445  0.00  0.00    -0.265 OA
BRANCH  28  30
ATOM     30  O   UNL d   1      27.395 -15.574  -5.658  0.00  0.00    -0.321 OA
BRANCH  30  31
ATOM     31  C   UNL d   1      28.520 -14.887  -6.234  0.00  0.00     0.179 C 
BRANCH  31  32
ATOM     32  C   UNL d   1      29.733 -15.145  -5.375  0.00  0.00     0.031 C 
BRANCH  32  33
ATOM     33  C   UNL d   1      29.678 -16.489  -4.654  0.00  0.00     0.041 C 
BRANCH  33  34
ATOM     34  C   UNL d   1      29.641 -16.333  -3.149  0.00  0.00    -0.058 A 
ATOM     35  C   UNL d   1      29.608 -15.057  -2.575  0.00  0.00     0.007 A 
ATOM     36  C   UNL d   1      29.727 -14.909  -1.191  0.00  0.00     0.001 A 
ATOM     37  C   UNL d   1      29.800 -16.030  -0.364  0.00  0.00     0.000 A 
ATOM     38  C   UNL d   1      29.798 -17.301  -0.920  0.00  0.00     0.001 A 
ATOM     39  C   UNL d   1      29.734 -17.447  -2.299  0.00  0.00     0.007 A 
ENDBRANCH  33  34
ENDBRANCH  32  33
ENDBRANCH  31  32
ENDBRANCH  30  31
ENDBRANCH  28  30
ENDBRANCH  27  28
ENDBRANCH   7  27
TORSDOF 14
ENDMDL
MODEL 9
REMARK VINA RESULT:    -8.431      5.572      7.742
REMARK INTER + INTRA:         -15.918
REMARK INTER:                 -12.607
REMARK INTRA:                  -3.311
REMARK CONF_INDEPENDENT:        4.176
REMARK UNBOUND:                -3.311
REMARK  14 active torsions:
REMARK  status: ('A' for Active; 'I' for Inactive)
REMARK    1  A    between atoms: C_2  and  C_4 
REMARK    2  A    between atoms: C_4  and  C_5 
REMARK    3  A    between atoms: C_5  and  O_6 
REMARK    4  A    between atoms: O_6  and  C_7 
REMARK    5  A    between atoms: C_11  and  C_12 
REMARK       I    between atoms: C_12  and  N_14 
REMARK    6  A    between atoms: N_14  and  C_15 
REMARK    7  A    between atoms: C_15  and  N_17 
REMARK    8  A    between atoms: C_23  and  C_24 
REMARK    9  A    between atoms: C_24  and  C_25 
REMARK   10  A    between atoms: C_25  and  O_27 
REMARK   11  A    between atoms: O_27  and  C_28 
REMARK   12  A    between atoms: C_28  and  C_29 
REMARK   13  A    between atoms: C_29  and  C_30 
REMARK   14  A    between atoms: C_30  and  C_31 
ROOT
ATOM      1  N   UNL d   1      27.569 -12.397  -6.274  0.00  0.00    -0.343 N 
ATOM      2  C   UNL d   1      27.225 -11.048  -6.792  0.00  0.00     0.146 C 
ATOM      3  C   UNL d   1      25.766 -10.763  -6.520  0.00  0.00     0.142 C 
ATOM      4  N   UNL d   1      25.530 -10.724  -5.111  0.00  0.00    -0.358 N 
ATOM      5  C   UNL d   1      26.146 -11.574  -4.243  0.00  0.00     0.241 C 
ATOM      6  O   UNL d   1      25.711 -11.552  -3.094  0.00  0.00    -0.271 OA
ATOM      7  C   UNL d   1      27.397 -12.435  -4.749  0.00  0.00     0.188 C 
ATOM      8  H   UNL d   1      24.733 -10.233  -4.727  0.00  0.00     0.162 HD
ENDROOT
BRANCH   1   9
ATOM      9  C   UNL d   1      28.512 -13.130  -7.060  0.00  0.00     0.177 C 
ATOM     10  S   UNL d   1      29.008 -12.578  -8.586  0.00  0.00    -0.041 SA
BRANCH   9  11
ATOM     11  N   UNL d   1      28.874 -14.398  -6.557  0.00  0.00    -0.299 N 
ATOM     12  C   UNL d   1      30.187 -14.844  -6.245  0.00  0.00     0.257 C 
ATOM     13  O   UNL d   1      31.205 -14.177  -6.410  0.00  0.00    -0.267 OA
ATOM     14  H   UNL d   1      28.139 -15.079  -6.505  0.00  0.00     0.171 HD
BRANCH  12  15
ATOM     15  C   UNL d   1      30.431 -16.214  -5.684  0.00  0.00     0.035 A 
ATOM     16  C   UNL d   1      30.404 -17.306  -6.582  0.00  0.00     0.017 A 
ATOM     17  C   UNL d   1      30.709 -18.602  -6.163  0.00  0.00     0.004 A 
ATOM     18  C   UNL d   1      30.992 -18.837  -4.823  0.00  0.00     0.037 A 
ATOM     19  C   UNL d   1      31.021 -17.771  -3.923  0.00  0.00     0.069 A 
ATOM     20  C   UNL d   1      30.743 -16.463  -4.351  0.00  0.00     0.053 A 
BRANCH  19  21
ATOM     21  O   UNL d   1      31.440 -18.091  -2.657  0.00  0.00    -0.351 OA
BRANCH  21  22
ATOM     22  C   UNL d   1      30.397 -18.153  -1.691  0.00  0.00     0.176 C 
BRANCH  22  23
ATOM     23  C   UNL d   1      30.484 -16.938  -0.775  0.00  0.00     0.030 C 
BRANCH  23  24
ATOM     24  C   UNL d   1      29.094 -16.358  -0.472  0.00  0.00    -0.021 C 
ATOM     25  C   UNL d   1      28.620 -15.500  -1.643  0.00  0.00     0.009 C 
ATOM     26  C   UNL d   1      28.067 -17.454  -0.190  0.00  0.00     0.009 C 
ENDBRANCH  23  24
ENDBRANCH  22  23
ENDBRANCH  21  22
ENDBRANCH  19  21
ENDBRANCH  12  15
ENDBRANCH   9  11
ENDBRANCH   1   9
BRANCH   7  27
ATOM     27  C   UNL d   1      27.301 -13.837  -4.152  0.00  0.00     0.146 C 
BRANCH  27  28
ATOM     28  C   UNL d   1      26.297 -14.719  -4.860  0.00  0.00     0.261 C 
ATOM     29  O   UNL d   1      26.572 -15.575  -5.697  0.00  0.00    -0.265 OA
BRANCH  28  30
ATOM     30  O   UNL d   1      25.025 -14.373  -4.521  0.00  0.00    -0.321 OA
BRANCH  30  31
ATOM     31  C   UNL d   1      24.806 -14.455  -3.102  0.00  0.00     0.179 C 
BRANCH  31  32
ATOM     32  C   UNL d   1      25.405 -15.744  -2.596  0.00  0.00     0.031 C 
BRANCH  32  33
ATOM     33  C   UNL d   1      25.182 -15.957  -1.101  0.00  0.00     0.041 C 
BRANCH  33  34
ATOM     34  C   UNL d   1      24.125 -17.003  -0.821  0.00  0.00    -0.058 A 
ATOM     35  C   UNL d   1      24.497 -18.331  -0.576  0.00  0.00     0.007 A 
ATOM     36  C   UNL d   1      23.519 -19.323  -0.469  0.00  0.00     0.001 A 
ATOM     37  C   UNL d   1      22.165 -18.990  -0.526  0.00  0.00     0.000 A 
ATOM     38  C   UNL d   1      21.785 -17.672  -0.733  0.00  0.00     0.001 A 
ATOM     39  C   UNL d   1      22.757 -16.694  -0.894  0.00  0.00     0.007 A 
ENDBRANCH  33  34
ENDBRANCH  32  33
ENDBRANCH  31  32
ENDBRANCH  30  31
ENDBRANCH  28  30
ENDBRANCH  27  28
ENDBRANCH   7  27
TORSDOF 14
ENDMDL
