MODEL 1
REMARK VINA RESULT:    -9.037      0.000      0.000
REMARK INTER + INTRA:         -16.781
REMARK INTER:                 -13.213
REMARK INTRA:                  -3.568
REMARK CONF_INDEPENDENT:        4.176
REMARK UNBOUND:                -3.568
REMARK  14 active torsions:
REMARK  status: ('A' for Active; 'I' for Inactive)
REMARK    1  A    between atoms: C_2  and  C_3 
REMARK    2  A    between atoms: C_3  and  C_4 
REMARK    3  A    between atoms: C_4  and  C_5 
REMARK    4  A    between atoms: C_5  and  C_6 
REMARK    5  A    between atoms: C_6  and  N_7 
REMARK       I    between atoms: N_7  and  C_8 
REMARK    6  A    between atoms: N_7  and  C_13 
REMARK    7  A    between atoms: C_8  and  C_10 
REMARK    8  A    between atoms: C_10  and  C_11 
REMARK    9  A    between atoms: C_13  and  C_14 
REMARK   10  A    between atoms: C_13  and  C_28 
REMARK       I    between atoms: C_14  and  N_16 
REMARK   11  A    between atoms: N_16  and  C_17 
REMARK   12  A    between atoms: C_17  and  S_18 
REMARK   13  A    between atoms: S_18  and  C_21 
REMARK   14  A    between atoms: C_31  and  N_32 
ROOT
ATOM      1  C   UNL d   1      27.379 -16.347  -0.091  0.00  0.00     0.212 C 
ENDROOT
BRANCH   1   2
ATOM      2  N   UNL d   1      27.491 -15.018   0.627  0.00  0.00    -0.335 N 
ATOM      3  C   UNL d   1      26.970 -13.896  -0.064  0.00  0.00     0.220 C 
ATOM      4  O   UNL d   1      26.501 -14.000  -1.201  0.00  0.00    -0.273 OA
BRANCH   2   5
ATOM      5  C   UNL d   1      27.860 -15.081   2.082  0.00  0.00     0.127 C 
BRANCH   5   6
ATOM      6  C   UNL d   1      28.976 -14.182   2.511  0.00  0.00     0.020 C 
BRANCH   6   7
ATOM      7  C   UNL d   1      29.375 -14.212   3.947  0.00  0.00     0.002 C 
BRANCH   7   8
ATOM      8  C   UNL d   1      28.194 -14.838   4.684  0.00  0.00    -0.000 C 
BRANCH   8   9
ATOM      9  C   UNL d   1      27.374 -13.727   5.289  0.00  0.00    -0.005 C 
ATOM     10  C   UNL d   1      28.235 -12.849   6.164  0.00  0.00     0.005 C 
ENDBRANCH   8   9
ENDBRANCH   7   8
ENDBRANCH   6   7
ENDBRANCH   5   6
ENDBRANCH   2   5
BRANCH   3  11
ATOM     11  C   UNL d   1      27.036 -12.509   0.579  0.00  0.00     0.103 C 
BRANCH  11  12
ATOM     12  C   UNL d   1      27.600 -11.344  -0.204  0.00  0.00     0.005 C 
ATOM     13  C   UNL d   1      28.632 -11.872  -1.208  0.00  0.00     0.005 C 
ENDBRANCH  11  12
ENDBRANCH   3  11
ENDBRANCH   1   2
BRANCH   1  14
ATOM     14  C   UNL d   1      28.177 -16.282  -1.476  0.00  0.00     0.246 C 
ATOM     15  O   UNL d   1      29.353 -16.630  -1.601  0.00  0.00    -0.271 OA
ATOM     16  N   UNL d   1      27.499 -15.818  -2.585  0.00  0.00    -0.345 N 
ATOM     17  H   UNL d   1      26.501 -15.680  -2.562  0.00  0.00     0.163 HD
BRANCH  16  18
ATOM     18  C   UNL d   1      28.127 -15.629  -3.903  0.00  0.00     0.268 C 
BRANCH  18  19
ATOM     19  S   UNL d   1      26.985 -15.097  -5.214  0.00  0.00     0.192 S 
ATOM     20  O   UNL d   1      27.705 -15.166  -6.481  0.00  0.00    -0.221 OA
ATOM     21  O   UNL d   1      25.748 -15.831  -5.056  0.00  0.00    -0.221 OA
BRANCH  19  22
ATOM     22  C   UNL d   1      26.663 -13.382  -4.879  0.00  0.00     0.060 A 
ATOM     23  C   UNL d   1      25.835 -13.042  -3.807  0.00  0.00     0.024 A 
ATOM     24  C   UNL d   1      25.531 -11.701  -3.565  0.00  0.00     0.008 A 
ATOM     25  C   UNL d   1      26.068 -10.689  -4.371  0.00  0.00    -0.062 A 
ATOM     26  C   UNL d   1      25.698  -9.251  -4.139  0.00  0.00     0.048 C 
ATOM     27  C   UNL d   1      26.950 -11.039  -5.405  0.00  0.00     0.008 A 
ATOM     28  C   UNL d   1      27.258 -12.382  -5.655  0.00  0.00     0.024 A 
ENDBRANCH  19  22
ENDBRANCH  18  19
ENDBRANCH  16  18
ENDBRANCH   1  14
BRANCH   1  29
ATOM     29  C   UNL d   1      25.910 -16.827  -0.243  0.00  0.00    -0.026 C 
ATOM     30  C   UNL d   1      25.492 -18.119   0.110  0.00  0.00     0.012 C 
ATOM     31  C   UNL d   1      24.201 -18.577  -0.184  0.00  0.00     0.037 C 
ATOM     32  C   UNL d   1      23.305 -17.737  -0.849  0.00  0.00     0.102 C 
ATOM     33  C   UNL d   1      23.659 -16.427  -1.128  0.00  0.00     0.037 C 
ATOM     34  C   UNL d   1      24.901 -15.969  -0.710  0.00  0.00     0.012 C 
BRANCH  32  35
ATOM     35  N   UNL d   1      21.949 -18.184  -1.161  0.00  0.00    -0.116 N 
ATOM     36  O   UNL d   1      21.814 -19.316  -1.643  0.00  0.00    -0.532 OA
ATOM     37  O   UNL d   1      21.016 -17.407  -0.907  0.00  0.00    -0.532 OA
ENDBRANCH  32  35
ENDBRANCH   1  29
TORSDOF 14
ENDMDL
MODEL 2
REMARK VINA RESULT:    -8.870      2.679      4.879
REMARK INTER + INTRA:         -16.635
REMARK INTER:                 -13.046
REMARK INTRA:                  -3.589
REMARK CONF_INDEPENDENT:        4.176
REMARK UNBOUND:                -3.589
REMARK  14 active torsions:
REMARK  status: ('A' for Active; 'I' for Inactive)
REMARK    1  A    between atoms: C_2  and  C_3 
REMARK    2  A    between atoms: C_3  and  C_4 
REMARK    3  A    between atoms: C_4  and  C_5 
REMARK    4  A    between atoms: C_5  and  C_6 
REMARK    5  A    between atoms: C_6  and  N_7 
REMARK       I    between atoms: N_7  and  C_8 
REMARK    6  A    between atoms: N_7  and  C_13 
REMARK    7  A    between atoms: C_8  and  C_10 
REMARK    8  A    between atoms: C_10  and  C_11 
REMARK    9  A    between atoms: C_13  and  C_14 
REMARK   10  A    between atoms: C_13  and  C_28 
REMARK       I    between atoms: C_14  and  N_16 
REMARK   11  A    between atoms: N_16  and  C_17 
REMARK   12  A    between atoms: C_17  and  S_18 
REMARK   13  A    between atoms: S_18  and  C_21 
REMARK   14  A    between atoms: C_31  and  N_32 
ROOT
ATOM      1  C   UNL d   1      26.176 -16.489   0.146  0.00  0.00     0.212 C 
ENDROOT
BRANCH   1   2
ATOM      2  N   UNL d   1      26.569 -15.182  -0.511  0.00  0.00    -0.335 N 
ATOM      3  C   UNL d   1      26.786 -15.234  -1.911  0.00  0.00     0.220 C 
ATOM      4  O   UNL d   1      26.704 -16.294  -2.537  0.00  0.00    -0.273 OA
BRANCH   2   5
ATOM      5  C   UNL d   1      26.397 -13.944   0.323  0.00  0.00     0.127 C 
BRANCH   5   6
ATOM      6  C   UNL d   1      27.606 -13.496   1.082  0.00  0.00     0.020 C 
BRANCH   6   7
ATOM      7  C   UNL d   1      27.431 -13.157   2.524  0.00  0.00     0.002 C 
BRANCH   7   8
ATOM      8  C   UNL d   1      27.832 -14.417   3.288  0.00  0.00    -0.000 C 
BRANCH   8   9
ATOM      9  C   UNL d   1      27.692 -14.138   4.762  0.00  0.00    -0.005 C 
ATOM     10  C   UNL d   1      28.528 -15.103   5.565  0.00  0.00     0.005 C 
ENDBRANCH   8   9
ENDBRANCH   7   8
ENDBRANCH   6   7
ENDBRANCH   5   6
ENDBRANCH   2   5
BRANCH   3  11
ATOM     11  C   UNL d   1      27.187 -13.964  -2.666  0.00  0.00     0.103 C 
BRANCH  11  12
ATOM     12  C   UNL d   1      26.222 -13.337  -3.646  0.00  0.00     0.005 C 
ATOM     13  C   UNL d   1      24.881 -14.077  -3.567  0.00  0.00     0.005 C 
ENDBRANCH  11  12
ENDBRANCH   3  11
ENDBRANCH   1   2
BRANCH   1  14
ATOM     14  C   UNL d   1      27.352 -17.559  -0.035  0.00  0.00     0.246 C 
ATOM     15  O   UNL d   1      27.296 -18.711   0.400  0.00  0.00    -0.271 OA
ATOM     16  N   UNL d   1      28.478 -17.162  -0.725  0.00  0.00    -0.345 N 
ATOM     17  H   UNL d   1      28.496 -16.291  -1.233  0.00  0.00     0.163 HD
BRANCH  16  18
ATOM     18  C   UNL d   1      29.669 -18.012  -0.899  0.00  0.00     0.268 C 
BRANCH  18  19
ATOM     19  S   UNL d   1      30.992 -17.262  -1.895  0.00  0.00     0.192 S 
ATOM     20  O   UNL d   1      30.664 -15.851  -2.073  0.00  0.00    -0.221 OA
ATOM     21  O   UNL d   1      32.261 -17.630  -1.306  0.00  0.00    -0.221 OA
BRANCH  19  22
ATOM     22  C   UNL d   1      30.870 -18.040  -3.489  0.00  0.00     0.060 A 
ATOM     23  C   UNL d   1      31.151 -19.403  -3.603  0.00  0.00     0.024 A 
ATOM     24  C   UNL d   1      31.110 -20.015  -4.857  0.00  0.00     0.008 A 
ATOM     25  C   UNL d   1      30.765 -19.282  -6.000  0.00  0.00    -0.062 A 
ATOM     26  C   UNL d   1      30.772 -19.933  -7.354  0.00  0.00     0.048 C 
ATOM     27  C   UNL d   1      30.423 -17.928  -5.862  0.00  0.00     0.008 A 
ATOM     28  C   UNL d   1      30.463 -17.307  -4.608  0.00  0.00     0.024 A 
ENDBRANCH  19  22
ENDBRANCH  18  19
ENDBRANCH  16  18
ENDBRANCH   1  14
BRANCH   1  29
ATOM     29  C   UNL d   1      24.789 -17.005  -0.325  0.00  0.00    -0.026 C 
ATOM     30  C   UNL d   1      23.722 -16.145  -0.629  0.00  0.00     0.012 C 
ATOM     31  C   UNL d   1      22.438 -16.639  -0.896  0.00  0.00     0.037 C 
ATOM     32  C   UNL d   1      22.204 -18.015  -0.855  0.00  0.00     0.102 C 
ATOM     33  C   UNL d   1      23.257 -18.891  -0.647  0.00  0.00     0.037 C 
ATOM     34  C   UNL d   1      24.538 -18.374  -0.511  0.00  0.00     0.012 C 
BRANCH  32  35
ATOM     35  N   UNL d   1      20.877 -18.558  -1.138  0.00  0.00    -0.116 N 
ATOM     36  O   UNL d   1      19.899 -17.841  -0.895  0.00  0.00    -0.532 OA
ATOM     37  O   UNL d   1      20.816 -19.700  -1.618  0.00  0.00    -0.532 OA
ENDBRANCH  32  35
ENDBRANCH   1  29
TORSDOF 14
ENDMDL
MODEL 3
REMARK VINA RESULT:    -8.692      2.718      4.589
REMARK INTER + INTRA:         -16.355
REMARK INTER:                 -12.868
REMARK INTRA:                  -3.487
REMARK CONF_INDEPENDENT:        4.176
REMARK UNBOUND:                -3.487
REMARK  14 active torsions:
REMARK  status: ('A' for Active; 'I' for Inactive)
REMARK    1  A    between atoms: C_2  and  C_3 
REMARK    2  A    between atoms: C_3  and  C_4 
REMARK    3  A    between atoms: C_4  and  C_5 
REMARK    4  A    between atoms: C_5  and  C_6 
REMARK    5  A    between atoms: C_6  and  N_7 
REMARK       I    between atoms: N_7  and  C_8 
REMARK    6  A    between atoms: N_7  and  C_13 
REMARK    7  A    between atoms: C_8  and  C_10 
REMARK    8  A    between atoms: C_10  and  C_11 
REMARK    9  A    between atoms: C_13  and  C_14 
REMARK   10  A    between atoms: C_13  and  C_28 
REMARK       I    between atoms: C_14  and  N_16 
REMARK   11  A    between atoms: N_16  and  C_17 
REMARK   12  A    between atoms: C_17  and  S_18 
REMARK   13  A    between atoms: S_18  and  C_21 
REMARK   14  A    between atoms: C_31  and  N_32 
ROOT
ATOM      1  C   UNL d   1      26.417 -16.153  -0.305  0.00  0.00     0.212 C 
ENDROOT
BRANCH   1   2
ATOM      2  N   UNL d   1      26.422 -14.729  -0.823  0.00  0.00    -0.335 N 
ATOM      3  C   UNL d   1      25.942 -14.550  -2.145  0.00  0.00     0.220 C 
ATOM      4  O   UNL d   1      25.592 -15.509  -2.838  0.00  0.00    -0.273 OA
BRANCH   2   5
ATOM      5  C   UNL d   1      26.646 -13.653   0.202  0.00  0.00     0.127 C 
BRANCH   5   6
ATOM      6  C   UNL d   1      27.944 -13.716   0.940  0.00  0.00     0.020 C 
BRANCH   6   7
ATOM      7  C   UNL d   1      27.962 -14.435   2.247  0.00  0.00     0.002 C 
BRANCH   7   8
ATOM      8  C   UNL d   1      27.211 -13.528   3.219  0.00  0.00    -0.000 C 
BRANCH   8   9
ATOM      9  C   UNL d   1      27.401 -14.070   4.612  0.00  0.00    -0.005 C 
ATOM     10  C   UNL d   1      28.842 -14.457   4.838  0.00  0.00     0.005 C 
ENDBRANCH   8   9
ENDBRANCH   7   8
ENDBRANCH   6   7
ENDBRANCH   5   6
ENDBRANCH   2   5
BRANCH   3  11
ATOM     11  C   UNL d   1      25.907 -13.148  -2.758  0.00  0.00     0.103 C 
BRANCH  11  12
ATOM     12  C   UNL d   1      27.195 -12.485  -3.190  0.00  0.00     0.005 C 
ATOM     13  C   UNL d   1      27.489 -12.869  -4.645  0.00  0.00     0.005 C 
ENDBRANCH  11  12
ENDBRANCH   3  11
ENDBRANCH   1   2
BRANCH   1  14
ATOM     14  C   UNL d   1      27.576 -16.991  -1.022  0.00  0.00     0.246 C 
ATOM     15  O   UNL d   1      27.972 -18.087  -0.618  0.00  0.00    -0.271 OA
ATOM     16  N   UNL d   1      28.147 -16.454  -2.157  0.00  0.00    -0.345 N 
ATOM     17  H   UNL d   1      27.744 -15.648  -2.610  0.00  0.00     0.163 HD
BRANCH  16  18
ATOM     18  C   UNL d   1      29.274 -17.074  -2.873  0.00  0.00     0.268 C 
BRANCH  18  19
ATOM     19  S   UNL d   1      29.665 -16.306  -4.474  0.00  0.00     0.192 S 
ATOM     20  O   UNL d   1      28.411 -15.846  -5.060  0.00  0.00    -0.221 OA
ATOM     21  O   UNL d   1      30.743 -15.364  -4.269  0.00  0.00    -0.221 OA
BRANCH  19  22
ATOM     22  C   UNL d   1      30.271 -17.634  -5.489  0.00  0.00     0.060 A 
ATOM     23  C   UNL d   1      30.638 -17.367  -6.809  0.00  0.00     0.024 A 
ATOM     24  C   UNL d   1      31.066 -18.410  -7.633  0.00  0.00     0.008 A 
ATOM     25  C   UNL d   1      31.154 -19.718  -7.142  0.00  0.00    -0.062 A 
ATOM     26  C   UNL d   1      31.566 -20.846  -8.046  0.00  0.00     0.048 C 
ATOM     27  C   UNL d   1      30.843 -19.963  -5.796  0.00  0.00     0.008 A 
ATOM     28  C   UNL d   1      30.412 -18.922  -4.964  0.00  0.00     0.024 A 
ENDBRANCH  19  22
ENDBRANCH  18  19
ENDBRANCH  16  18
ENDBRANCH   1  14
BRANCH   1  29
ATOM     29  C   UNL d   1      25.019 -16.821  -0.397  0.00  0.00    -0.026 C 
ATOM     30  C   UNL d   1      24.842 -18.213  -0.411  0.00  0.00     0.012 C 
ATOM     31  C   UNL d   1      23.587 -18.789  -0.654  0.00  0.00     0.037 C 
ATOM     32  C   UNL d   1      22.484 -17.967  -0.895  0.00  0.00     0.102 C 
ATOM     33  C   UNL d   1      22.611 -16.591  -0.797  0.00  0.00     0.037 C 
ATOM     34  C   UNL d   1      23.840 -16.058  -0.431  0.00  0.00     0.012 C 
BRANCH  32  35
ATOM     35  N   UNL d   1      21.163 -18.539  -1.142  0.00  0.00    -0.116 N 
ATOM     36  O   UNL d   1      21.110 -19.700  -1.567  0.00  0.00    -0.532 OA
ATOM     37  O   UNL d   1      20.176 -17.830  -0.896  0.00  0.00    -0.532 OA
ENDBRANCH  32  35
ENDBRANCH   1  29
TORSDOF 14
ENDMDL
MODEL 4
REMARK VINA RESULT:    -8.452      2.169      4.005
REMARK INTER + INTRA:         -16.336
REMARK INTER:                 -12.629
REMARK INTRA:                  -3.707
REMARK CONF_INDEPENDENT:        4.176
REMARK UNBOUND:                -3.707
REMARK  14 active torsions:
REMARK  status: ('A' for Active; 'I' for Inactive)
REMARK    1  A    between atoms: C_2  and  C_3 
REMARK    2  A    between atoms: C_3  and  C_4 
REMARK    3  A    between atoms: C_4  and  C_5 
REMARK    4  A    between atoms: C_5  and  C_6 
REMARK    5  A    between atoms: C_6  and  N_7 
REMARK       I    between atoms: N_7  and  C_8 
REMARK    6  A    between atoms: N_7  and  C_13 
REMARK    7  A    between atoms: C_8  and  C_10 
REMARK    8  A    between atoms: C_10  and  C_11 
REMARK    9  A    between atoms: C_13  and  C_14 
REMARK   10  A    between atoms: C_13  and  C_28 
REMARK       I    between atoms: C_14  and  N_16 
REMARK   11  A    between atoms: N_16  and  C_17 
REMARK   12  A    between atoms: C_17  and  S_18 
REMARK   13  A    between atoms: S_18  and  C_21 
REMARK   14  A    between atoms: C_31  and  N_32 
ROOT
ATOM      1  C   UNL d   1      25.653 -16.455  -0.184  0.00  0.00     0.212 C 
ENDROOT
BRANCH   1   2
ATOM      2  N   UNL d   1      25.930 -15.482  -1.311  0.00  0.00    -0.335 N 
ATOM      3  C   UNL d   1      25.606 -15.936  -2.614  0.00  0.00     0.220 C 
ATOM      4  O   UNL d   1      25.170 -17.074  -2.810  0.00  0.00    -0.273 OA
BRANCH   2   5
ATOM      5  C   UNL d   1      26.231 -14.066  -0.906  0.00  0.00     0.127 C 
BRANCH   5   6
ATOM      6  C   UNL d   1      27.540 -13.850  -0.216  0.00  0.00     0.020 C 
BRANCH   6   7
ATOM      7  C   UNL d   1      27.516 -13.624   1.258  0.00  0.00     0.002 C 
BRANCH   7   8
ATOM      8  C   UNL d   1      28.482 -14.652   1.842  0.00  0.00    -0.000 C 
BRANCH   8   9
ATOM      9  C   UNL d   1      28.901 -14.181   3.210  0.00  0.00    -0.005 C 
ATOM     10  C   UNL d   1      27.786 -14.386   4.206  0.00  0.00     0.005 C 
ENDBRANCH   8   9
ENDBRANCH   7   8
ENDBRANCH   6   7
ENDBRANCH   5   6
ENDBRANCH   2   5
BRANCH   3  11
ATOM     11  C   UNL d   1      25.849 -15.025  -3.820  0.00  0.00     0.103 C 
BRANCH  11  12
ATOM     12  C   UNL d   1      24.995 -13.793  -4.015  0.00  0.00     0.005 C 
ATOM     13  C   UNL d   1      25.910 -12.568  -4.138  0.00  0.00     0.005 C 
ENDBRANCH  11  12
ENDBRANCH   3  11
ENDBRANCH   1   2
BRANCH   1  14
ATOM     14  C   UNL d   1      26.860 -17.498  -0.062  0.00  0.00     0.246 C 
ATOM     15  O   UNL d   1      26.759 -18.593   0.495  0.00  0.00    -0.271 OA
ATOM     16  N   UNL d   1      28.070 -17.145  -0.624  0.00  0.00    -0.345 N 
ATOM     17  H   UNL d   1      28.148 -16.340  -1.225  0.00  0.00     0.163 HD
BRANCH  16  18
ATOM     18  C   UNL d   1      29.286 -17.969  -0.520  0.00  0.00     0.268 C 
BRANCH  18  19
ATOM     19  S   UNL d   1      30.746 -17.266  -1.344  0.00  0.00     0.192 S 
ATOM     20  O   UNL d   1      31.268 -16.206  -0.487  0.00  0.00    -0.221 OA
ATOM     21  O   UNL d   1      31.612 -18.358  -1.734  0.00  0.00    -0.221 OA
BRANCH  19  22
ATOM     22  C   UNL d   1      30.120 -16.497  -2.819  0.00  0.00     0.060 A 
ATOM     23  C   UNL d   1      29.582 -15.211  -2.740  0.00  0.00     0.024 A 
ATOM     24  C   UNL d   1      29.039 -14.616  -3.880  0.00  0.00     0.008 A 
ATOM     25  C   UNL d   1      29.052 -15.285  -5.110  0.00  0.00    -0.062 A 
ATOM     26  C   UNL d   1      28.421 -14.662  -6.323  0.00  0.00     0.048 C 
ATOM     27  C   UNL d   1      29.653 -16.550  -5.190  0.00  0.00     0.008 A 
ATOM     28  C   UNL d   1      30.197 -17.154  -4.051  0.00  0.00     0.024 A 
ENDBRANCH  19  22
ENDBRANCH  18  19
ENDBRANCH  16  18
ENDBRANCH   1  14
BRANCH   1  29
ATOM     29  C   UNL d   1      24.259 -17.128  -0.300  0.00  0.00    -0.026 C 
ATOM     30  C   UNL d   1      24.071 -18.513  -0.172  0.00  0.00     0.012 C 
ATOM     31  C   UNL d   1      22.832 -19.111  -0.439  0.00  0.00     0.037 C 
ATOM     32  C   UNL d   1      21.756 -18.319  -0.847  0.00  0.00     0.102 C 
ATOM     33  C   UNL d   1      21.888 -16.941  -0.894  0.00  0.00     0.037 C 
ATOM     34  C   UNL d   1      23.092 -16.372  -0.503  0.00  0.00     0.012 C 
BRANCH  32  35
ATOM     35  N   UNL d   1      20.450 -18.915  -1.124  0.00  0.00    -0.116 N 
ATOM     36  O   UNL d   1      20.374 -19.725  -2.055  0.00  0.00    -0.532 OA
ATOM     37  O   UNL d   1      19.503 -18.582  -0.395  0.00  0.00    -0.532 OA
ENDBRANCH  32  35
ENDBRANCH   1  29
TORSDOF 14
ENDMDL
MODEL 5
REMARK VINA RESULT:    -8.335      2.125      3.935
REMARK INTER + INTRA:         -16.120
REMARK INTER:                 -12.511
REMARK INTRA:                  -3.609
REMARK CONF_INDEPENDENT:        4.176
REMARK UNBOUND:                -3.609
REMARK  14 active torsions:
REMARK  status: ('A' for Active; 'I' for Inactive)
REMARK    1  A    between atoms: C_2  and  C_3 
REMARK    2  A    between atoms: C_3  and  C_4 
REMARK    3  A    between atoms: C_4  and  C_5 
REMARK    4  A    between atoms: C_5  and  C_6 
REMARK    5  A    between atoms: C_6  and  N_7 
REMARK       I    between atoms: N_7  and  C_8 
REMARK    6  A    between atoms: N_7  and  C_13 
REMARK    7  A    between atoms: C_8  and  C_10 
REMARK    8  A    between atoms: C_10  and  C_11 
REMARK    9  A    between atoms: C_13  and  C_14 
REMARK   10  A    between atoms: C_13  and  C_28 
REMARK       I    between atoms: C_14  and  N_16 
REMARK   11  A    between atoms: N_16  and  C_17 
REMARK   12  A    between atoms: C_17  and  S_18 
REMARK   13  A    between atoms: S_18  and  C_21 
REMARK   14  A    between atoms: C_31  and  N_32 
ROOT
ATOM      1  C   UNL d   1      26.436 -16.703  -1.572  0.00  0.00     0.212 C 
ENDROOT
BRANCH   1   2
ATOM      2  N   UNL d   1      27.331 -16.204  -0.457  0.00  0.00    -0.335 N 
ATOM      3  C   UNL d   1      28.726 -16.287  -0.699  0.00  0.00     0.220 C 
ATOM      4  O   UNL d   1      29.170 -16.783  -1.737  0.00  0.00    -0.273 OA
BRANCH   2   5
ATOM      5  C   UNL d   1      26.657 -15.417   0.632  0.00  0.00     0.127 C 
BRANCH   5   6
ATOM      6  C   UNL d   1      26.977 -13.956   0.674  0.00  0.00     0.020 C 
BRANCH   6   7
ATOM      7  C   UNL d   1      27.045 -13.302   2.012  0.00  0.00     0.002 C 
BRANCH   7   8
ATOM      8  C   UNL d   1      27.786 -14.288   2.910  0.00  0.00    -0.000 C 
BRANCH   8   9
ATOM      9  C   UNL d   1      27.658 -13.817   4.336  0.00  0.00    -0.005 C 
ATOM     10  C   UNL d   1      28.260 -14.824   5.283  0.00  0.00     0.005 C 
ENDBRANCH   8   9
ENDBRANCH   7   8
ENDBRANCH   6   7
ENDBRANCH   5   6
ENDBRANCH   2   5
BRANCH   3  11
ATOM     11  C   UNL d   1      29.713 -15.807   0.367  0.00  0.00     0.103 C 
BRANCH  11  12
ATOM     12  C   UNL d   1      30.448 -14.500   0.176  0.00  0.00     0.005 C 
ATOM     13  C   UNL d   1      31.001 -14.445  -1.254  0.00  0.00     0.005 C 
ENDBRANCH  11  12
ENDBRANCH   3  11
ENDBRANCH   1   2
BRANCH   1  14
ATOM     14  C   UNL d   1      26.341 -15.598  -2.724  0.00  0.00     0.246 C 
ATOM     15  O   UNL d   1      25.314 -15.373  -3.368  0.00  0.00    -0.271 OA
ATOM     16  N   UNL d   1      27.472 -14.857  -2.995  0.00  0.00    -0.345 N 
ATOM     17  H   UNL d   1      28.276 -14.894  -2.387  0.00  0.00     0.163 HD
BRANCH  16  18
ATOM     18  C   UNL d   1      27.554 -13.863  -4.079  0.00  0.00     0.268 C 
BRANCH  18  19
ATOM     19  S   UNL d   1      27.625 -14.574  -5.750  0.00  0.00     0.192 S 
ATOM     20  O   UNL d   1      26.481 -15.468  -5.898  0.00  0.00    -0.221 OA
ATOM     21  O   UNL d   1      27.809 -13.491  -6.692  0.00  0.00    -0.221 OA
BRANCH  19  22
ATOM     22  C   UNL d   1      29.091 -15.580  -5.764  0.00  0.00     0.060 A 
ATOM     23  C   UNL d   1      29.935 -15.536  -6.875  0.00  0.00     0.024 A 
ATOM     24  C   UNL d   1      31.062 -16.360  -6.922  0.00  0.00     0.008 A 
ATOM     25  C   UNL d   1      31.368 -17.213  -5.854  0.00  0.00    -0.062 A 
ATOM     26  C   UNL d   1      32.552 -18.134  -5.930  0.00  0.00     0.048 C 
ATOM     27  C   UNL d   1      30.547 -17.201  -4.717  0.00  0.00     0.008 A 
ATOM     28  C   UNL d   1      29.415 -16.379  -4.663  0.00  0.00     0.024 A 
ENDBRANCH  19  22
ENDBRANCH  18  19
ENDBRANCH  16  18
ENDBRANCH   1  14
BRANCH   1  29
ATOM     29  C   UNL d   1      25.053 -17.188  -1.059  0.00  0.00    -0.026 C 
ATOM     30  C   UNL d   1      24.846 -18.470  -0.526  0.00  0.00     0.012 C 
ATOM     31  C   UNL d   1      23.561 -18.936  -0.220  0.00  0.00     0.037 C 
ATOM     32  C   UNL d   1      22.454 -18.117  -0.453  0.00  0.00     0.102 C 
ATOM     33  C   UNL d   1      22.635 -16.817  -0.893  0.00  0.00     0.037 C 
ATOM     34  C   UNL d   1      23.929 -16.345  -1.067  0.00  0.00     0.012 C 
BRANCH  32  35
ATOM     35  N   UNL d   1      21.103 -18.575  -0.135  0.00  0.00    -0.116 N 
ATOM     36  O   UNL d   1      20.183 -18.211  -0.879  0.00  0.00    -0.532 OA
ATOM     37  O   UNL d   1      20.965 -19.313   0.852  0.00  0.00    -0.532 OA
ENDBRANCH  32  35
ENDBRANCH   1  29
TORSDOF 14
ENDMDL
MODEL 6
REMARK VINA RESULT:    -8.245      3.006      6.082
REMARK INTER + INTRA:         -16.534
REMARK INTER:                 -12.421
REMARK INTRA:                  -4.113
REMARK CONF_INDEPENDENT:        4.176
REMARK UNBOUND:                -4.113
REMARK  14 active torsions:
REMARK  status: ('A' for Active; 'I' for Inactive)
REMARK    1  A    between atoms: C_2  and  C_3 
REMARK    2  A    between atoms: C_3  and  C_4 
REMARK    3  A    between atoms: C_4  and  C_5 
REMARK    4  A    between atoms: C_5  and  C_6 
REMARK    5  A    between atoms: C_6  and  N_7 
REMARK       I    between atoms: N_7  and  C_8 
REMARK    6  A    between atoms: N_7  and  C_13 
REMARK    7  A    between atoms: C_8  and  C_10 
REMARK    8  A    between atoms: C_10  and  C_11 
REMARK    9  A    between atoms: C_13  and  C_14 
REMARK   10  A    between atoms: C_13  and  C_28 
REMARK       I    between atoms: C_14  and  N_16 
REMARK   11  A    between atoms: N_16  and  C_17 
REMARK   12  A    between atoms: C_17  and  S_18 
REMARK   13  A    between atoms: S_18  and  C_21 
REMARK   14  A    between atoms: C_31  and  N_32 
ROOT
ATOM      1  C   UNL d   1      25.973 -16.448  -0.174  0.00  0.00     0.212 C 
ENDROOT
BRANCH   1   2
ATOM      2  N   UNL d   1      26.177 -15.275  -1.110  0.00  0.00    -0.335 N 
ATOM      3  C   UNL d   1      27.188 -14.354  -0.736  0.00  0.00     0.220 C 
ATOM      4  O   UNL d   1      27.822 -14.485   0.314  0.00  0.00    -0.273 OA
BRANCH   2   5
ATOM      5  C   UNL d   1      25.509 -15.374  -2.453  0.00  0.00     0.127 C 
BRANCH   5   6
ATOM      6  C   UNL d   1      26.421 -15.575  -3.621  0.00  0.00     0.020 C 
BRANCH   6   7
ATOM      7  C   UNL d   1      25.912 -15.192  -4.970  0.00  0.00     0.002 C 
BRANCH   7   8
ATOM      8  C   UNL d   1      27.027 -14.365  -5.605  0.00  0.00    -0.000 C 
BRANCH   8   9
ATOM      9  C   UNL d   1      28.346 -14.991  -5.235  0.00  0.00    -0.005 C 
ATOM     10  C   UNL d   1      29.306 -14.930  -6.398  0.00  0.00     0.005 C 
ENDBRANCH   8   9
ENDBRANCH   7   8
ENDBRANCH   6   7
ENDBRANCH   5   6
ENDBRANCH   2   5
BRANCH   3  11
ATOM     11  C   UNL d   1      27.470 -13.135  -1.617  0.00  0.00     0.103 C 
BRANCH  11  12
ATOM     12  C   UNL d   1      26.330 -12.241  -2.051  0.00  0.00     0.005 C 
ATOM     13  C   UNL d   1      26.643 -11.676  -3.442  0.00  0.00     0.005 C 
ENDBRANCH  11  12
ENDBRANCH   3  11
ENDBRANCH   1   2
BRANCH   1  14
ATOM     14  C   UNL d   1      27.175 -17.490  -0.344  0.00  0.00     0.246 C 
ATOM     15  O   UNL d   1      27.063 -18.699  -0.129  0.00  0.00    -0.271 OA
ATOM     16  N   UNL d   1      28.393 -16.999  -0.765  0.00  0.00    -0.345 N 
ATOM     17  H   UNL d   1      28.483 -16.054  -1.107  0.00  0.00     0.163 HD
BRANCH  16  18
ATOM     18  C   UNL d   1      29.606 -17.825  -0.889  0.00  0.00     0.268 C 
BRANCH  18  19
ATOM     19  S   UNL d   1      30.889 -17.126  -1.970  0.00  0.00     0.192 S 
ATOM     20  O   UNL d   1      30.481 -15.768  -2.316  0.00  0.00    -0.221 OA
ATOM     21  O   UNL d   1      32.174 -17.346  -1.343  0.00  0.00    -0.221 OA
BRANCH  19  22
ATOM     22  C   UNL d   1      30.821 -18.096  -3.458  0.00  0.00     0.060 A 
ATOM     23  C   UNL d   1      31.156 -19.450  -3.403  0.00  0.00     0.024 A 
ATOM     24  C   UNL d   1      31.157 -20.212  -4.573  0.00  0.00     0.008 A 
ATOM     25  C   UNL d   1      30.801 -19.637  -5.800  0.00  0.00    -0.062 A 
ATOM     26  C   UNL d   1      30.853 -20.447  -7.064  0.00  0.00     0.048 C 
ATOM     27  C   UNL d   1      30.405 -18.292  -5.832  0.00  0.00     0.008 A 
ATOM     28  C   UNL d   1      30.402 -17.522  -4.663  0.00  0.00     0.024 A 
ENDBRANCH  19  22
ENDBRANCH  18  19
ENDBRANCH  16  18
ENDBRANCH   1  14
BRANCH   1  29
ATOM     29  C   UNL d   1      24.568 -17.092  -0.316  0.00  0.00    -0.026 C 
ATOM     30  C   UNL d   1      24.377 -18.474  -0.475  0.00  0.00     0.012 C 
ATOM     31  C   UNL d   1      23.114 -19.010  -0.760  0.00  0.00     0.037 C 
ATOM     32  C   UNL d   1      22.016 -18.159  -0.897  0.00  0.00     0.102 C 
ATOM     33  C   UNL d   1      22.157 -16.802  -0.657  0.00  0.00     0.037 C 
ATOM     34  C   UNL d   1      23.395 -16.321  -0.254  0.00  0.00     0.012 C 
BRANCH  32  35
ATOM     35  N   UNL d   1      20.686 -18.692  -1.185  0.00  0.00    -0.116 N 
ATOM     36  O   UNL d   1      20.615 -19.821  -1.686  0.00  0.00    -0.532 OA
ATOM     37  O   UNL d   1      19.710 -17.984  -0.895  0.00  0.00    -0.532 OA
ENDBRANCH  32  35
ENDBRANCH   1  29
TORSDOF 14
ENDMDL
MODEL 7
REMARK VINA RESULT:    -8.107      3.501      6.665
REMARK INTER + INTRA:         -16.060
REMARK INTER:                 -12.283
REMARK INTRA:                  -3.777
REMARK CONF_INDEPENDENT:        4.176
REMARK UNBOUND:                -3.777
REMARK  14 active torsions:
REMARK  status: ('A' for Active; 'I' for Inactive)
REMARK    1  A    between atoms: C_2  and  C_3 
REMARK    2  A    between atoms: C_3  and  C_4 
REMARK    3  A    between atoms: C_4  and  C_5 
REMARK    4  A    between atoms: C_5  and  C_6 
REMARK    5  A    between atoms: C_6  and  N_7 
REMARK       I    between atoms: N_7  and  C_8 
REMARK    6  A    between atoms: N_7  and  C_13 
REMARK    7  A    between atoms: C_8  and  C_10 
REMARK    8  A    between atoms: C_10  and  C_11 
REMARK    9  A    between atoms: C_13  and  C_14 
REMARK   10  A    between atoms: C_13  and  C_28 
REMARK       I    between atoms: C_14  and  N_16 
REMARK   11  A    between atoms: N_16  and  C_17 
REMARK   12  A    between atoms: C_17  and  S_18 
REMARK   13  A    between atoms: S_18  and  C_21 
REMARK   14  A    between atoms: C_31  and  N_32 
ROOT
ATOM      1  C   UNL d   1      27.150 -13.468   2.538  0.00  0.00     0.212 C 
ENDROOT
BRANCH   1   2
ATOM      2  N   UNL d   1      28.399 -14.005   3.204  0.00  0.00    -0.335 N 
ATOM      3  C   UNL d   1      29.624 -13.432   2.777  0.00  0.00     0.220 C 
ATOM      4  O   UNL d   1      29.659 -12.583   1.883  0.00  0.00    -0.273 OA
BRANCH   2   5
ATOM      5  C   UNL d   1      28.186 -14.852   4.428  0.00  0.00     0.127 C 
BRANCH   5   6
ATOM      6  C   UNL d   1      28.691 -14.278   5.714  0.00  0.00     0.020 C 
BRANCH   6   7
ATOM      7  C   UNL d   1      27.976 -13.093   6.270  0.00  0.00     0.002 C 
BRANCH   7   8
ATOM      8  C   UNL d   1      28.775 -12.679   7.503  0.00  0.00    -0.000 C 
BRANCH   8   9
ATOM      9  C   UNL d   1      29.482 -13.897   8.038  0.00  0.00    -0.005 C 
ATOM     10  C   UNL d   1      28.904 -14.303   9.371  0.00  0.00     0.005 C 
ENDBRANCH   8   9
ENDBRANCH   7   8
ENDBRANCH   6   7
ENDBRANCH   5   6
ENDBRANCH   2   5
BRANCH   3  11
ATOM     11  C   UNL d   1      30.942 -13.908   3.392  0.00  0.00     0.103 C 
BRANCH  11  12
ATOM     12  C   UNL d   1      31.904 -14.728   2.562  0.00  0.00     0.005 C 
ATOM     13  C   UNL d   1      31.156 -15.300   1.352  0.00  0.00     0.005 C 
ENDBRANCH  11  12
ENDBRANCH   3  11
ENDBRANCH   1   2
BRANCH   1  14
ATOM     14  C   UNL d   1      27.021 -14.075   1.064  0.00  0.00     0.246 C 
ATOM     15  O   UNL d   1      25.957 -14.471   0.581  0.00  0.00    -0.271 OA
ATOM     16  N   UNL d   1      28.166 -14.144   0.297  0.00  0.00    -0.345 N 
ATOM     17  H   UNL d   1      29.015 -13.685   0.589  0.00  0.00     0.163 HD
BRANCH  16  18
ATOM     18  C   UNL d   1      28.213 -14.751  -1.044  0.00  0.00     0.268 C 
BRANCH  18  19
ATOM     19  S   UNL d   1      28.165 -16.568  -1.053  0.00  0.00     0.192 S 
ATOM     20  O   UNL d   1      28.590 -17.013  -2.376  0.00  0.00    -0.221 OA
ATOM     21  O   UNL d   1      28.869 -17.041   0.119  0.00  0.00    -0.221 OA
BRANCH  19  22
ATOM     22  C   UNL d   1      26.447 -16.987  -0.878  0.00  0.00     0.060 A 
ATOM     23  C   UNL d   1      26.053 -17.820   0.171  0.00  0.00     0.024 A 
ATOM     24  C   UNL d   1      24.715 -18.200   0.290  0.00  0.00     0.008 A 
ATOM     25  C   UNL d   1      23.757 -17.734  -0.619  0.00  0.00    -0.062 A 
ATOM     26  C   UNL d   1      22.327 -18.186  -0.519  0.00  0.00     0.048 C 
ATOM     27  C   UNL d   1      24.153 -16.847  -1.631  0.00  0.00     0.008 A 
ATOM     28  C   UNL d   1      25.494 -16.463  -1.757  0.00  0.00     0.024 A 
ENDBRANCH  19  22
ENDBRANCH  18  19
ENDBRANCH  16  18
ENDBRANCH   1  14
BRANCH   1  29
ATOM     29  C   UNL d   1      27.064 -11.919   2.582  0.00  0.00    -0.026 C 
ATOM     30  C   UNL d   1      27.404 -11.171   3.720  0.00  0.00     0.012 C 
ATOM     31  C   UNL d   1      27.167  -9.791   3.786  0.00  0.00     0.037 C 
ATOM     32  C   UNL d   1      26.573  -9.139   2.704  0.00  0.00     0.102 C 
ATOM     33  C   UNL d   1      26.310  -9.834   1.535  0.00  0.00     0.037 C 
ATOM     34  C   UNL d   1      26.673 -11.172   1.458  0.00  0.00     0.012 C 
BRANCH  32  35
ATOM     35  N   UNL d   1      26.322  -7.700   2.742  0.00  0.00    -0.116 N 
ATOM     36  O   UNL d   1      25.530  -7.232   1.914  0.00  0.00    -0.532 OA
ATOM     37  O   UNL d   1      26.907  -7.039   3.614  0.00  0.00    -0.532 OA
ENDBRANCH  32  35
ENDBRANCH   1  29
TORSDOF 14
ENDMDL
MODEL 8
REMARK VINA RESULT:    -8.000      3.124      5.141
REMARK INTER + INTRA:         -16.457
REMARK INTER:                 -12.176
REMARK INTRA:                  -4.281
REMARK CONF_INDEPENDENT:        4.176
REMARK UNBOUND:                -4.281
REMARK  14 active torsions:
REMARK  status: ('A' for Active; 'I' for Inactive)
REMARK    1  A    between atoms: C_2  and  C_3 
REMARK    2  A    between atoms: C_3  and  C_4 
REMARK    3  A    between atoms: C_4  and  C_5 
REMARK    4  A    between atoms: C_5  and  C_6 
REMARK    5  A    between atoms: C_6  and  N_7 
REMARK       I    between atoms: N_7  and  C_8 
REMARK    6  A    between atoms: N_7  and  C_13 
REMARK    7  A    between atoms: C_8  and  C_10 
REMARK    8  A    between atoms: C_10  and  C_11 
REMARK    9  A    between atoms: C_13  and  C_14 
REMARK   10  A    between atoms: C_13  and  C_28 
REMARK       I    between atoms: C_14  and  N_16 
REMARK   11  A    between atoms: N_16  and  C_17 
REMARK   12  A    between atoms: C_17  and  S_18 
REMARK   13  A    between atoms: S_18  and  C_21 
REMARK   14  A    between atoms: C_31  and  N_32 
ROOT
ATOM      1  C   UNL d   1      25.580 -16.515  -0.145  0.00  0.00     0.212 C 
ENDROOT
BRANCH   1   2
ATOM      2  N   UNL d   1      25.776 -15.352  -1.096  0.00  0.00    -0.335 N 
ATOM      3  C   UNL d   1      26.730 -14.382  -0.699  0.00  0.00     0.220 C 
ATOM      4  O   UNL d   1      27.323 -14.466   0.380  0.00  0.00    -0.273 OA
BRANCH   2   5
ATOM      5  C   UNL d   1      25.171 -15.505  -2.463  0.00  0.00     0.127 C 
BRANCH   5   6
ATOM      6  C   UNL d   1      26.139 -15.575  -3.600  0.00  0.00     0.020 C 
BRANCH   6   7
ATOM      7  C   UNL d   1      25.698 -15.034  -4.918  0.00  0.00     0.002 C 
BRANCH   7   8
ATOM      8  C   UNL d   1      25.140 -13.645  -4.620  0.00  0.00    -0.000 C 
BRANCH   8   9
ATOM      9  C   UNL d   1      26.278 -12.659  -4.668  0.00  0.00    -0.005 C 
ATOM     10  C   UNL d   1      25.907 -11.462  -5.508  0.00  0.00     0.005 C 
ENDBRANCH   8   9
ENDBRANCH   7   8
ENDBRANCH   6   7
ENDBRANCH   5   6
ENDBRANCH   2   5
BRANCH   3  11
ATOM     11  C   UNL d   1      26.999 -13.169  -1.592  0.00  0.00     0.103 C 
BRANCH  11  12
ATOM     12  C   UNL d   1      27.502 -11.881  -0.980  0.00  0.00     0.005 C 
ATOM     13  C   UNL d   1      27.065 -10.706  -1.864  0.00  0.00     0.005 C 
ENDBRANCH  11  12
ENDBRANCH   3  11
ENDBRANCH   1   2
BRANCH   1  14
ATOM     14  C   UNL d   1      26.803 -17.537  -0.284  0.00  0.00     0.246 C 
ATOM     15  O   UNL d   1      26.692 -18.756  -0.133  0.00  0.00    -0.271 OA
ATOM     16  N   UNL d   1      28.040 -17.016  -0.602  0.00  0.00    -0.345 N 
ATOM     17  H   UNL d   1      28.140 -16.056  -0.893  0.00  0.00     0.163 HD
BRANCH  16  18
ATOM     18  C   UNL d   1      29.268 -17.826  -0.684  0.00  0.00     0.268 C 
BRANCH  18  19
ATOM     19  S   UNL d   1      30.711 -16.942  -1.348  0.00  0.00     0.192 S 
ATOM     20  O   UNL d   1      30.967 -15.799  -0.477  0.00  0.00    -0.221 OA
ATOM     21  O   UNL d   1      31.762 -17.909  -1.582  0.00  0.00    -0.221 OA
BRANCH  19  22
ATOM     22  C   UNL d   1      30.181 -16.303  -2.920  0.00  0.00     0.060 A 
ATOM     23  C   UNL d   1      29.598 -15.036  -2.978  0.00  0.00     0.024 A 
ATOM     24  C   UNL d   1      29.130 -14.544  -4.198  0.00  0.00     0.008 A 
ATOM     25  C   UNL d   1      29.261 -15.299  -5.370  0.00  0.00    -0.062 A 
ATOM     26  C   UNL d   1      28.710 -14.788  -6.671  0.00  0.00     0.048 C 
ATOM     27  C   UNL d   1      29.905 -16.543  -5.310  0.00  0.00     0.008 A 
ATOM     28  C   UNL d   1      30.376 -17.044  -4.090  0.00  0.00     0.024 A 
ENDBRANCH  19  22
ENDBRANCH  18  19
ENDBRANCH  16  18
ENDBRANCH   1  14
BRANCH   1  29
ATOM     29  C   UNL d   1      24.189 -17.187  -0.295  0.00  0.00    -0.026 C 
ATOM     30  C   UNL d   1      24.003 -18.576  -0.223  0.00  0.00     0.012 C 
ATOM     31  C   UNL d   1      22.767 -19.166  -0.519  0.00  0.00     0.037 C 
ATOM     32  C   UNL d   1      21.692 -18.362  -0.902  0.00  0.00     0.102 C 
ATOM     33  C   UNL d   1      21.820 -16.983  -0.895  0.00  0.00     0.037 C 
ATOM     34  C   UNL d   1      23.021 -16.427  -0.475  0.00  0.00     0.012 C 
BRANCH  32  35
ATOM     35  N   UNL d   1      20.389 -18.949  -1.209  0.00  0.00    -0.116 N 
ATOM     36  O   UNL d   1      20.361 -19.912  -1.985  0.00  0.00    -0.532 OA
ATOM     37  O   UNL d   1      19.394 -18.454  -0.658  0.00  0.00    -0.532 OA
ENDBRANCH  32  35
ENDBRANCH   1  29
TORSDOF 14
ENDMDL
MODEL 9
REMARK VINA RESULT:    -7.820      2.861      5.985
REMARK INTER + INTRA:         -16.175
REMARK INTER:                 -11.997
REMARK INTRA:                  -4.178
REMARK CONF_INDEPENDENT:        4.176
REMARK UNBOUND:                -4.178
REMARK  14 active torsions:
REMARK  status: ('A' for Active; 'I' for Inactive)
REMARK    1  A    between atoms: C_2  and  C_3 
REMARK    2  A    between atoms: C_3  and  C_4 
REMARK    3  A    between atoms: C_4  and  C_5 
REMARK    4  A    between atoms: C_5  and  C_6 
REMARK    5  A    between atoms: C_6  and  N_7 
REMARK       I    between atoms: N_7  and  C_8 
REMARK    6  A    between atoms: N_7  and  C_13 
REMARK    7  A    between atoms: C_8  and  C_10 
REMARK    8  A    between atoms: C_10  and  C_11 
REMARK    9  A    between atoms: C_13  and  C_14 
REMARK   10  A    between atoms: C_13  and  C_28 
REMARK       I    between atoms: C_14  and  N_16 
REMARK   11  A    between atoms: N_16  and  C_17 
REMARK   12  A    between atoms: C_17  and  S_18 
REMARK   13  A    between atoms: S_18  and  C_21 
REMARK   14  A    between atoms: C_31  and  N_32 
ROOT
ATOM      1  C   UNL d   1      27.167 -13.073   0.044  0.00  0.00     0.212 C 
ENDROOT
BRANCH   1   2
ATOM      2  N   UNL d   1      28.555 -13.659   0.199  0.00  0.00    -0.335 N 
ATOM      3  C   UNL d   1      29.623 -12.853  -0.271  0.00  0.00     0.220 C 
ATOM      4  O   UNL d   1      29.418 -11.765  -0.814  0.00  0.00    -0.273 OA
BRANCH   2   5
ATOM      5  C   UNL d   1      28.669 -14.869   1.084  0.00  0.00     0.127 C 
BRANCH   5   6
ATOM      6  C   UNL d   1      27.883 -14.822   2.356  0.00  0.00     0.020 C 
BRANCH   6   7
ATOM      7  C   UNL d   1      28.288 -13.818   3.382  0.00  0.00     0.002 C 
BRANCH   7   8
ATOM      8  C   UNL d   1      27.405 -14.100   4.595  0.00  0.00    -0.000 C 
BRANCH   8   9
ATOM      9  C   UNL d   1      28.199 -14.926   5.574  0.00  0.00    -0.005 C 
ATOM     10  C   UNL d   1      29.674 -14.828   5.276  0.00  0.00     0.005 C 
ENDBRANCH   8   9
ENDBRANCH   7   8
ENDBRANCH   6   7
ENDBRANCH   5   6
ENDBRANCH   2   5
BRANCH   3  11
ATOM     11  C   UNL d   1      31.063 -13.358  -0.158  0.00  0.00     0.103 C 
BRANCH  11  12
ATOM     12  C   UNL d   1      31.876 -13.042   1.078  0.00  0.00     0.005 C 
ATOM     13  C   UNL d   1      30.996 -12.268   2.067  0.00  0.00     0.005 C 
ENDBRANCH  11  12
ENDBRANCH   3  11
ENDBRANCH   1   2
BRANCH   1  14
ATOM     14  C   UNL d   1      26.740 -13.098  -1.497  0.00  0.00     0.246 C 
ATOM     15  O   UNL d   1      25.579 -12.947  -1.884  0.00  0.00    -0.271 OA
ATOM     16  N   UNL d   1      27.735 -13.288  -2.434  0.00  0.00    -0.345 N 
ATOM     17  H   UNL d   1      28.708 -13.251  -2.174  0.00  0.00     0.163 HD
BRANCH  16  18
ATOM     18  C   UNL d   1      27.479 -13.411  -3.879  0.00  0.00     0.268 C 
BRANCH  18  19
ATOM     19  S   UNL d   1      26.496 -14.866  -4.350  0.00  0.00     0.192 S 
ATOM     20  O   UNL d   1      25.133 -14.413  -4.607  0.00  0.00    -0.221 OA
ATOM     21  O   UNL d   1      27.216 -15.580  -5.383  0.00  0.00    -0.221 OA
BRANCH  19  22
ATOM     22  C   UNL d   1      26.452 -15.886  -2.895  0.00  0.00     0.060 A 
ATOM     23  C   UNL d   1      25.218 -16.303  -2.394  0.00  0.00     0.024 A 
ATOM     24  C   UNL d   1      25.166 -17.061  -1.222  0.00  0.00     0.008 A 
ATOM     25  C   UNL d   1      26.342 -17.428  -0.557  0.00  0.00    -0.062 A 
ATOM     26  C   UNL d   1      26.280 -18.200   0.731  0.00  0.00     0.048 C 
ATOM     27  C   UNL d   1      27.579 -17.057  -1.105  0.00  0.00     0.008 A 
ATOM     28  C   UNL d   1      27.639 -16.296  -2.278  0.00  0.00     0.024 A 
ENDBRANCH  19  22
ENDBRANCH  18  19
ENDBRANCH  16  18
ENDBRANCH   1  14
BRANCH   1  29
ATOM     29  C   UNL d   1      27.027 -11.676   0.706  0.00  0.00    -0.026 C 
ATOM     30  C   UNL d   1      26.750 -11.506   2.071  0.00  0.00     0.012 C 
ATOM     31  C   UNL d   1      26.472 -10.243   2.610  0.00  0.00     0.037 C 
ATOM     32  C   UNL d   1      26.462  -9.122   1.776  0.00  0.00     0.102 C 
ATOM     33  C   UNL d   1      26.820  -9.247   0.443  0.00  0.00     0.037 C 
ATOM     34  C   UNL d   1      27.212 -10.493  -0.029  0.00  0.00     0.012 C 
BRANCH  32  35
ATOM     35  N   UNL d   1      26.184  -7.792   2.311  0.00  0.00    -0.116 N 
ATOM     36  O   UNL d   1      26.662  -7.505   3.416  0.00  0.00    -0.532 OA
ATOM     37  O   UNL d   1      25.497  -7.027   1.617  0.00  0.00    -0.532 OA
ENDBRANCH  32  35
ENDBRANCH   1  29
TORSDOF 14
ENDMDL
