MODEL 1
REMARK VINA RESULT:    -9.145      0.000      0.000
REMARK INTER + INTRA:         -10.695
REMARK INTER:                 -10.338
REMARK INTRA:                  -0.357
REMARK CONF_INDEPENDENT:        1.193
REMARK UNBOUND:                -0.357
REMARK  4 active torsions:
REMARK  status: ('A' for Active; 'I' for Inactive)
REMARK    1  A    between atoms: C_2  and  C_3 
REMARK       I    between atoms: C_2  and  N_19 
REMARK    2  A    between atoms: C_3  and  S_4 
REMARK    3  A    between atoms: S_4  and  C_5 
REMARK    4  A    between atoms: N_19  and  C_20 
ROOT
ATOM      1  S   UNL d   1      27.288 -14.728  -2.740  0.00  0.00    -0.080 SA
ENDROOT
BRANCH   1   2
ATOM      2  C   UNL d   1      26.471 -16.271  -2.274  0.00  0.00     0.185 C 
BRANCH   2   3
ATOM      3  C   UNL d   1      26.866 -16.751  -0.856  0.00  0.00     0.231 C 
ATOM      4  O   UNL d   1      28.010 -16.646  -0.404  0.00  0.00    -0.272 OA
ATOM      5  N   UNL d   1      25.880 -17.216   0.002  0.00  0.00    -0.326 N 
ATOM      6  H   UNL d   1      26.197 -17.316   0.963  0.00  0.00     0.169 HD
BRANCH   5   7
ATOM      7  C   UNL d   1      24.513 -17.419  -0.273  0.00  0.00     0.037 A 
ATOM      8  C   UNL d   1      23.720 -16.360  -0.710  0.00  0.00     0.032 A 
ATOM      9  C   UNL d   1      22.350 -16.510  -0.894  0.00  0.00     0.042 A 
ATOM     10  C   UNL d   1      21.762 -17.751  -0.709  0.00  0.00     0.102 A 
ATOM     11  C   UNL d   1      22.544 -18.840  -0.308  0.00  0.00     0.104 A 
ATOM     12  O   UNL d   1      20.415 -17.822  -0.953  0.00  0.00    -0.346 OA
ATOM     13  C   UNL d   1      23.932 -18.687  -0.131  0.00  0.00     0.069 A 
ATOM     14  O   UNL d   1      21.996 -20.078  -0.059  0.00  0.00    -0.346 OA
ATOM     15  C   UNL d   1      20.561 -20.011   0.050  0.00  0.00     0.202 C 
ATOM     16  C   UNL d   1      19.982 -19.180  -1.082  0.00  0.00     0.202 C 
ENDBRANCH   5   7
ENDBRANCH   2   3
ENDBRANCH   1   2
BRANCH   1  17
ATOM     17  C   UNL d   1      27.670 -14.891  -4.434  0.00  0.00     0.211 A 
ATOM     18  N   UNL d   1      28.304 -15.915  -4.970  0.00  0.00    -0.107 NA
ATOM     19  N   UNL d   1      28.679 -15.566  -6.256  0.00  0.00     0.045 NA
ATOM     20  C   UNL d   1      28.257 -14.344  -6.471  0.00  0.00     0.734 A 
ATOM     21  N   UNL d   1      28.403 -13.572  -7.600  0.00  0.00    -0.152 N 
ATOM     22  N   UNL d   1      27.593 -13.858  -5.360  0.00  0.00    -0.122 N 
ATOM     23  C   UNL d   1      27.884 -12.306  -7.668  0.00  0.00     0.268 A 
ATOM     24  H   UNL d   1      28.902 -13.935  -8.401  0.00  0.00     0.188 HD
ATOM     25  O   UNL d   1      28.004 -11.610  -8.678  0.00  0.00    -0.267 OA
ATOM     26  C   UNL d   1      27.153 -11.795  -6.461  0.00  0.00     0.034 A 
ATOM     27  C   UNL d   1      27.038 -12.574  -5.357  0.00  0.00     0.048 A 
ATOM     28  C   UNL d   1      26.560 -10.414  -6.564  0.00  0.00     0.046 C 
ATOM     29  C   UNL d   1      26.317 -12.080  -4.133  0.00  0.00     0.059 C 
ATOM     30  C   UNL d   1      26.093 -10.578  -4.130  0.00  0.00     0.006 C 
ATOM     31  C   UNL d   1      25.524 -10.152  -5.469  0.00  0.00     0.005 C 
ENDBRANCH   1  17
TORSDOF 4
ENDMDL
MODEL 2
REMARK VINA RESULT:    -8.786      2.519      8.417
REMARK INTER + INTRA:         -10.901
REMARK INTER:                  -9.979
REMARK INTRA:                  -0.922
REMARK CONF_INDEPENDENT:        1.193
REMARK UNBOUND:                -0.922
REMARK  4 active torsions:
REMARK  status: ('A' for Active; 'I' for Inactive)
REMARK    1  A    between atoms: C_2  and  C_3 
REMARK       I    between atoms: C_2  and  N_19 
REMARK    2  A    between atoms: C_3  and  S_4 
REMARK    3  A    between atoms: S_4  and  C_5 
REMARK    4  A    between atoms: N_19  and  C_20 
ROOT
ATOM      1  S   UNL d   1      25.202 -14.009  -2.898  0.00  0.00    -0.080 SA
ENDROOT
BRANCH   1   2
ATOM      2  C   UNL d   1      25.475 -14.667  -4.559  0.00  0.00     0.185 C 
BRANCH   2   3
ATOM      3  C   UNL d   1      26.946 -14.534  -5.020  0.00  0.00     0.231 C 
ATOM      4  O   UNL d   1      27.627 -15.496  -5.388  0.00  0.00    -0.272 OA
ATOM      5  N   UNL d   1      27.508 -13.271  -5.141  0.00  0.00    -0.326 N 
ATOM      6  H   UNL d   1      28.397 -13.271  -5.635  0.00  0.00     0.169 HD
BRANCH   5   7
ATOM      7  C   UNL d   1      26.938 -12.029  -4.797  0.00  0.00     0.037 A 
ATOM      8  C   UNL d   1      27.082 -11.525  -3.506  0.00  0.00     0.032 A 
ATOM      9  C   UNL d   1      26.448 -10.352  -3.112  0.00  0.00     0.042 A 
ATOM     10  C   UNL d   1      25.712  -9.624  -4.034  0.00  0.00     0.102 A 
ATOM     11  C   UNL d   1      25.585 -10.089  -5.348  0.00  0.00     0.104 A 
ATOM     12  O   UNL d   1      25.157  -8.458  -3.576  0.00  0.00    -0.346 OA
ATOM     13  C   UNL d   1      26.235 -11.273  -5.745  0.00  0.00     0.069 A 
ATOM     14  O   UNL d   1      24.821  -9.429  -6.283  0.00  0.00    -0.346 OA
ATOM     15  C   UNL d   1      23.961  -8.450  -5.671  0.00  0.00     0.202 C 
ATOM     16  C   UNL d   1      24.736  -7.623  -4.659  0.00  0.00     0.202 C 
ENDBRANCH   5   7
ENDBRANCH   2   3
ENDBRANCH   1   2
BRANCH   1  17
ATOM     17  C   UNL d   1      26.437 -14.727  -1.898  0.00  0.00     0.211 A 
ATOM     18  N   UNL d   1      27.704 -14.363  -1.885  0.00  0.00    -0.107 NA
ATOM     19  N   UNL d   1      28.424 -15.329  -1.203  0.00  0.00     0.045 NA
ATOM     20  C   UNL d   1      27.576 -16.249  -0.813  0.00  0.00     0.734 A 
ATOM     21  N   UNL d   1      27.827 -17.406  -0.111  0.00  0.00    -0.152 N 
ATOM     22  N   UNL d   1      26.291 -15.923  -1.207  0.00  0.00    -0.122 N 
ATOM     23  C   UNL d   1      26.815 -18.262   0.234  0.00  0.00     0.268 A 
ATOM     24  H   UNL d   1      28.773 -17.637   0.160  0.00  0.00     0.188 HD
ATOM     25  O   UNL d   1      27.030 -19.297   0.869  0.00  0.00    -0.267 OA
ATOM     26  C   UNL d   1      25.424 -17.891  -0.187  0.00  0.00     0.034 A 
ATOM     27  C   UNL d   1      25.209 -16.752  -0.891  0.00  0.00     0.048 A 
ATOM     28  C   UNL d   1      24.319 -18.827   0.228  0.00  0.00     0.046 C 
ATOM     29  C   UNL d   1      23.824 -16.363  -1.331  0.00  0.00     0.059 C 
ATOM     30  C   UNL d   1      22.823 -17.502  -1.248  0.00  0.00     0.006 C 
ATOM     31  C   UNL d   1      22.940 -18.175   0.105  0.00  0.00     0.005 C 
ENDBRANCH   1  17
TORSDOF 4
ENDMDL
MODEL 3
REMARK VINA RESULT:    -8.448      2.621      8.418
REMARK INTER + INTRA:         -10.476
REMARK INTER:                  -9.642
REMARK INTRA:                  -0.835
REMARK CONF_INDEPENDENT:        1.193
REMARK UNBOUND:                -0.835
REMARK  4 active torsions:
REMARK  status: ('A' for Active; 'I' for Inactive)
REMARK    1  A    between atoms: C_2  and  C_3 
REMARK       I    between atoms: C_2  and  N_19 
REMARK    2  A    between atoms: C_3  and  S_4 
REMARK    3  A    between atoms: S_4  and  C_5 
REMARK    4  A    between atoms: N_19  and  C_20 
ROOT
ATOM      1  S   UNL d   1      25.510 -13.815  -2.756  0.00  0.00    -0.080 SA
ENDROOT
BRANCH   1   2
ATOM      2  C   UNL d   1      25.533 -14.694  -4.335  0.00  0.00     0.185 C 
BRANCH   2   3
ATOM      3  C   UNL d   1      26.897 -14.590  -5.057  0.00  0.00     0.231 C 
ATOM      4  O   UNL d   1      27.522 -15.575  -5.462  0.00  0.00    -0.272 OA
ATOM      5  N   UNL d   1      27.402 -13.338  -5.376  0.00  0.00    -0.326 N 
ATOM      6  H   UNL d   1      28.190 -13.373  -6.018  0.00  0.00     0.169 HD
BRANCH   5   7
ATOM      7  C   UNL d   1      26.876 -12.076  -5.035  0.00  0.00     0.037 A 
ATOM      8  C   UNL d   1      25.985 -11.433  -5.892  0.00  0.00     0.032 A 
ATOM      9  C   UNL d   1      25.528 -10.146  -5.627  0.00  0.00     0.042 A 
ATOM     10  C   UNL d   1      25.905  -9.509  -4.456  0.00  0.00     0.102 A 
ATOM     11  C   UNL d   1      26.769 -10.149  -3.561  0.00  0.00     0.104 A 
ATOM     12  O   UNL d   1      25.376  -8.261  -4.252  0.00  0.00    -0.346 OA
ATOM     13  C   UNL d   1      27.223 -11.454  -3.827  0.00  0.00     0.069 A 
ATOM     14  O   UNL d   1      27.214  -9.535  -2.412  0.00  0.00    -0.346 OA
ATOM     15  C   UNL d   1      26.953  -8.118  -2.433  0.00  0.00     0.202 C 
ATOM     16  C   UNL d   1      25.530  -7.848  -2.891  0.00  0.00     0.202 C 
ENDBRANCH   5   7
ENDBRANCH   2   3
ENDBRANCH   1   2
BRANCH   1  17
ATOM     17  C   UNL d   1      26.693 -14.614  -1.755  0.00  0.00     0.211 A 
ATOM     18  N   UNL d   1      27.975 -14.309  -1.711  0.00  0.00    -0.107 NA
ATOM     19  N   UNL d   1      28.638 -15.324  -1.042  0.00  0.00     0.045 NA
ATOM     20  C   UNL d   1      27.742 -16.214  -0.690  0.00  0.00     0.734 A 
ATOM     21  N   UNL d   1      27.928 -17.398  -0.015  0.00  0.00    -0.152 N 
ATOM     22  N   UNL d   1      26.481 -15.819  -1.098  0.00  0.00    -0.122 N 
ATOM     23  C   UNL d   1      26.872 -18.215   0.291  0.00  0.00     0.268 A 
ATOM     24  H   UNL d   1      28.857 -17.680   0.266  0.00  0.00     0.188 HD
ATOM     25  O   UNL d   1      27.028 -19.274   0.902  0.00  0.00    -0.267 OA
ATOM     26  C   UNL d   1      25.506 -17.770  -0.144  0.00  0.00     0.034 A 
ATOM     27  C   UNL d   1      25.356 -16.605  -0.822  0.00  0.00     0.048 A 
ATOM     28  C   UNL d   1      24.352 -18.664   0.228  0.00  0.00     0.046 C 
ATOM     29  C   UNL d   1      23.999 -16.142  -1.274  0.00  0.00     0.059 C 
ATOM     30  C   UNL d   1      22.946 -17.235  -1.238  0.00  0.00     0.006 C 
ATOM     31  C   UNL d   1      23.008 -17.947   0.099  0.00  0.00     0.005 C 
ENDBRANCH   1  17
TORSDOF 4
ENDMDL
MODEL 4
REMARK VINA RESULT:    -8.447      3.316      8.587
REMARK INTER + INTRA:         -10.459
REMARK INTER:                  -9.640
REMARK INTRA:                  -0.819
REMARK CONF_INDEPENDENT:        1.193
REMARK UNBOUND:                -0.819
REMARK  4 active torsions:
REMARK  status: ('A' for Active; 'I' for Inactive)
REMARK    1  A    between atoms: C_2  and  C_3 
REMARK       I    between atoms: C_2  and  N_19 
REMARK    2  A    between atoms: C_3  and  S_4 
REMARK    3  A    between atoms: S_4  and  C_5 
REMARK    4  A    between atoms: N_19  and  C_20 
ROOT
ATOM      1  S   UNL d   1      25.693 -14.929  -3.684  0.00  0.00    -0.080 SA
ENDROOT
BRANCH   1   2
ATOM      2  C   UNL d   1      26.653 -15.009  -5.213  0.00  0.00     0.185 C 
BRANCH   2   3
ATOM      3  C   UNL d   1      27.791 -13.962  -5.259  0.00  0.00     0.231 C 
ATOM      4  O   UNL d   1      27.596 -12.749  -5.130  0.00  0.00    -0.272 OA
ATOM      5  N   UNL d   1      29.108 -14.393  -5.331  0.00  0.00    -0.326 N 
ATOM      6  H   UNL d   1      29.784 -13.654  -5.154  0.00  0.00     0.169 HD
BRANCH   5   7
ATOM      7  C   UNL d   1      29.584 -15.711  -5.474  0.00  0.00     0.037 A 
ATOM      8  C   UNL d   1      29.611 -16.570  -4.378  0.00  0.00     0.032 A 
ATOM      9  C   UNL d   1      30.166 -17.842  -4.468  0.00  0.00     0.042 A 
ATOM     10  C   UNL d   1      30.643 -18.299  -5.686  0.00  0.00     0.102 A 
ATOM     11  C   UNL d   1      30.592 -17.470  -6.811  0.00  0.00     0.104 A 
ATOM     12  O   UNL d   1      31.134 -19.579  -5.698  0.00  0.00    -0.346 OA
ATOM     13  C   UNL d   1      30.022 -16.186  -6.718  0.00  0.00     0.069 A 
ATOM     14  O   UNL d   1      31.103 -17.860  -8.029  0.00  0.00    -0.346 OA
ATOM     15  C   UNL d   1      31.939 -19.026  -7.904  0.00  0.00     0.202 C 
ATOM     16  C   UNL d   1      31.263 -20.073  -7.035  0.00  0.00     0.202 C 
ENDBRANCH   5   7
ENDBRANCH   2   3
ENDBRANCH   1   2
BRANCH   1  17
ATOM     17  C   UNL d   1      26.798 -15.373  -2.410  0.00  0.00     0.211 A 
ATOM     18  N   UNL d   1      28.081 -15.074  -2.386  0.00  0.00    -0.107 NA
ATOM     19  N   UNL d   1      28.681 -15.827  -1.391  0.00  0.00     0.045 NA
ATOM     20  C   UNL d   1      27.746 -16.556  -0.831  0.00  0.00     0.734 A 
ATOM     21  N   UNL d   1      27.866 -17.465   0.195  0.00  0.00    -0.152 N 
ATOM     22  N   UNL d   1      26.520 -16.306  -1.419  0.00  0.00    -0.122 N 
ATOM     23  C   UNL d   1      26.775 -18.139   0.678  0.00  0.00     0.268 A 
ATOM     24  H   UNL d   1      28.770 -17.646   0.608  0.00  0.00     0.188 HD
ATOM     25  O   UNL d   1      26.872 -18.949   1.602  0.00  0.00    -0.267 OA
ATOM     26  C   UNL d   1      25.448 -17.849   0.041  0.00  0.00     0.034 A 
ATOM     27  C   UNL d   1      25.364 -16.960  -0.978  0.00  0.00     0.048 A 
ATOM     28  C   UNL d   1      24.254 -18.575   0.606  0.00  0.00     0.046 C 
ATOM     29  C   UNL d   1      24.045 -16.660  -1.637  0.00  0.00     0.059 C 
ATOM     30  C   UNL d   1      22.967 -17.680  -1.321  0.00  0.00     0.006 C 
ATOM     31  C   UNL d   1      22.936 -17.931   0.174  0.00  0.00     0.005 C 
ENDBRANCH   1  17
TORSDOF 4
ENDMDL
MODEL 5
REMARK VINA RESULT:    -8.353      5.924      8.739
REMARK INTER + INTRA:         -10.374
REMARK INTER:                  -9.546
REMARK INTRA:                  -0.828
REMARK CONF_INDEPENDENT:        1.193
REMARK UNBOUND:                -0.828
REMARK  4 active torsions:
REMARK  status: ('A' for Active; 'I' for Inactive)
REMARK    1  A    between atoms: C_2  and  C_3 
REMARK       I    between atoms: C_2  and  N_19 
REMARK    2  A    between atoms: C_3  and  S_4 
REMARK    3  A    between atoms: S_4  and  C_5 
REMARK    4  A    between atoms: N_19  and  C_20 
ROOT
ATOM      1  S   UNL d   1      27.224 -12.843   2.087  0.00  0.00    -0.080 SA
ENDROOT
BRANCH   1   2
ATOM      2  C   UNL d   1      28.057 -13.426   0.593  0.00  0.00     0.185 C 
BRANCH   2   3
ATOM      3  C   UNL d   1      29.042 -14.586   0.873  0.00  0.00     0.231 C 
ATOM      4  O   UNL d   1      30.135 -14.424   1.425  0.00  0.00    -0.272 OA
ATOM      5  N   UNL d   1      28.650 -15.889   0.604  0.00  0.00    -0.326 N 
ATOM      6  H   UNL d   1      29.273 -16.588   1.002  0.00  0.00     0.169 HD
BRANCH   5   7
ATOM      7  C   UNL d   1      27.461 -16.330  -0.009  0.00  0.00     0.037 A 
ATOM      8  C   UNL d   1      27.084 -15.829  -1.253  0.00  0.00     0.032 A 
ATOM      9  C   UNL d   1      25.869 -16.173  -1.835  0.00  0.00     0.042 A 
ATOM     10  C   UNL d   1      25.039 -17.086  -1.205  0.00  0.00     0.102 A 
ATOM     11  C   UNL d   1      25.412 -17.634   0.027  0.00  0.00     0.104 A 
ATOM     12  O   UNL d   1      23.881 -17.403  -1.866  0.00  0.00    -0.346 OA
ATOM     13  C   UNL d   1      26.647 -17.290   0.609  0.00  0.00     0.069 A 
ATOM     14  O   UNL d   1      24.596 -18.503   0.716  0.00  0.00    -0.346 OA
ATOM     15  C   UNL d   1      23.255 -18.503   0.188  0.00  0.00     0.202 C 
ATOM     16  C   UNL d   1      23.283 -18.587  -1.329  0.00  0.00     0.202 C 
ENDBRANCH   5   7
ENDBRANCH   2   3
ENDBRANCH   1   2
BRANCH   1  17
ATOM     17  C   UNL d   1      27.830 -13.840   3.384  0.00  0.00     0.211 A 
ATOM     18  N   UNL d   1      27.781 -15.157   3.410  0.00  0.00    -0.107 NA
ATOM     19  N   UNL d   1      28.081 -15.575   4.695  0.00  0.00     0.045 NA
ATOM     20  C   UNL d   1      28.312 -14.504   5.414  0.00  0.00     0.734 A 
ATOM     21  N   UNL d   1      28.638 -14.419   6.748  0.00  0.00    -0.152 N 
ATOM     22  N   UNL d   1      28.185 -13.364   4.640  0.00  0.00    -0.122 N 
ATOM     23  C   UNL d   1      28.864 -13.209   7.349  0.00  0.00     0.268 A 
ATOM     24  H   UNL d   1      28.715 -15.259   7.304  0.00  0.00     0.188 HD
ATOM     25  O   UNL d   1      29.164 -13.123   8.541  0.00  0.00    -0.267 OA
ATOM     26  C   UNL d   1      28.737 -11.980   6.496  0.00  0.00     0.034 A 
ATOM     27  C   UNL d   1      28.400 -12.094   5.187  0.00  0.00     0.048 A 
ATOM     28  C   UNL d   1      29.021 -10.660   7.164  0.00  0.00     0.046 C 
ATOM     29  C   UNL d   1      28.259 -10.877   4.315  0.00  0.00     0.059 C 
ATOM     30  C   UNL d   1      28.157  -9.582   5.100  0.00  0.00     0.006 C 
ATOM     31  C   UNL d   1      29.253  -9.542   6.147  0.00  0.00     0.005 C 
ENDBRANCH   1  17
TORSDOF 4
ENDMDL
MODEL 6
REMARK VINA RESULT:    -8.256      1.807      2.555
REMARK INTER + INTRA:         -10.456
REMARK INTER:                  -9.449
REMARK INTRA:                  -1.007
REMARK CONF_INDEPENDENT:        1.193
REMARK UNBOUND:                -1.007
REMARK  4 active torsions:
REMARK  status: ('A' for Active; 'I' for Inactive)
REMARK    1  A    between atoms: C_2  and  C_3 
REMARK       I    between atoms: C_2  and  N_19 
REMARK    2  A    between atoms: C_3  and  S_4 
REMARK    3  A    between atoms: S_4  and  C_5 
REMARK    4  A    between atoms: N_19  and  C_20 
ROOT
ATOM      1  S   UNL d   1      25.514 -13.790  -3.666  0.00  0.00    -0.080 SA
ENDROOT
BRANCH   1   2
ATOM      2  C   UNL d   1      26.636 -13.491  -2.281  0.00  0.00     0.185 C 
BRANCH   2   3
ATOM      3  C   UNL d   1      27.955 -14.291  -2.398  0.00  0.00     0.231 C 
ATOM      4  O   UNL d   1      28.990 -13.818  -2.878  0.00  0.00    -0.272 OA
ATOM      5  N   UNL d   1      28.032 -15.559  -1.839  0.00  0.00    -0.326 N 
ATOM      6  H   UNL d   1      28.981 -15.920  -1.788  0.00  0.00     0.169 HD
BRANCH   5   7
ATOM      7  C   UNL d   1      27.002 -16.306  -1.234  0.00  0.00     0.037 A 
ATOM      8  C   UNL d   1      27.186 -16.858   0.032  0.00  0.00     0.032 A 
ATOM      9  C   UNL d   1      26.225 -17.680   0.610  0.00  0.00     0.042 A 
ATOM     10  C   UNL d   1      25.027 -17.906  -0.048  0.00  0.00     0.102 A 
ATOM     11  C   UNL d   1      24.801 -17.331  -1.303  0.00  0.00     0.104 A 
ATOM     12  O   UNL d   1      24.117 -18.692   0.611  0.00  0.00    -0.346 OA
ATOM     13  C   UNL d   1      25.773 -16.493  -1.882  0.00  0.00     0.069 A 
ATOM     14  O   UNL d   1      23.649 -17.571  -2.018  0.00  0.00    -0.346 OA
ATOM     15  C   UNL d   1      22.912 -18.685  -1.479  0.00  0.00     0.202 C 
ATOM     16  C   UNL d   1      22.814 -18.573   0.033  0.00  0.00     0.202 C 
ENDBRANCH   5   7
ENDBRANCH   2   3
ENDBRANCH   1   2
BRANCH   1  17
ATOM     17  C   UNL d   1      26.530 -14.271  -5.000  0.00  0.00     0.211 A 
ATOM     18  N   UNL d   1      27.035 -15.476  -5.168  0.00  0.00    -0.107 NA
ATOM     19  N   UNL d   1      28.005 -15.405  -6.153  0.00  0.00     0.045 NA
ATOM     20  C   UNL d   1      28.058 -14.161  -6.564  0.00  0.00     0.734 A 
ATOM     21  N   UNL d   1      28.875 -13.608  -7.522  0.00  0.00    -0.152 N 
ATOM     22  N   UNL d   1      27.136 -13.387  -5.884  0.00  0.00    -0.122 N 
ATOM     23  C   UNL d   1      28.792 -12.279  -7.846  0.00  0.00     0.268 A 
ATOM     24  H   UNL d   1      29.553 -14.183  -8.002  0.00  0.00     0.188 HD
ATOM     25  O   UNL d   1      29.515 -11.776  -8.708  0.00  0.00    -0.267 OA
ATOM     26  C   UNL d   1      27.778 -11.452  -7.112  0.00  0.00     0.034 A 
ATOM     27  C   UNL d   1      26.997 -12.022  -6.161  0.00  0.00     0.048 A 
ATOM     28  C   UNL d   1      27.678 -10.001  -7.503  0.00  0.00     0.046 C 
ATOM     29  C   UNL d   1      25.979 -11.212  -5.407  0.00  0.00     0.059 C 
ATOM     30  C   UNL d   1      26.184  -9.713  -5.539  0.00  0.00     0.006 C 
ATOM     31  C   UNL d   1      26.382  -9.361  -7.000  0.00  0.00     0.005 C 
ENDBRANCH   1  17
TORSDOF 4
ENDMDL
MODEL 7
REMARK VINA RESULT:    -8.123      4.875      6.831
REMARK INTER + INTRA:         -10.524
REMARK INTER:                  -9.316
REMARK INTRA:                  -1.208
REMARK CONF_INDEPENDENT:        1.193
REMARK UNBOUND:                -1.208
REMARK  4 active torsions:
REMARK  status: ('A' for Active; 'I' for Inactive)
REMARK    1  A    between atoms: C_2  and  C_3 
REMARK       I    between atoms: C_2  and  N_19 
REMARK    2  A    between atoms: C_3  and  S_4 
REMARK    3  A    between atoms: S_4  and  C_5 
REMARK    4  A    between atoms: N_19  and  C_20 
ROOT
ATOM      1  S   UNL d   1      30.434 -13.943  -1.340  0.00  0.00    -0.080 SA
ENDROOT
BRANCH   1   2
ATOM      2  C   UNL d   1      29.842 -15.569  -1.862  0.00  0.00     0.185 C 
BRANCH   2   3
ATOM      3  C   UNL d   1      30.133 -16.673  -0.818  0.00  0.00     0.231 C 
ATOM      4  O   UNL d   1      31.276 -16.990  -0.473  0.00  0.00    -0.272 OA
ATOM      5  N   UNL d   1      29.075 -17.265  -0.144  0.00  0.00    -0.326 N 
ATOM      6  H   UNL d   1      29.368 -17.825   0.654  0.00  0.00     0.169 HD
BRANCH   5   7
ATOM      7  C   UNL d   1      27.695 -17.069  -0.348  0.00  0.00     0.037 A 
ATOM      8  C   UNL d   1      27.218 -15.832  -0.775  0.00  0.00     0.032 A 
ATOM      9  C   UNL d   1      25.855 -15.582  -0.890  0.00  0.00     0.042 A 
ATOM     10  C   UNL d   1      24.946 -16.599  -0.644  0.00  0.00     0.102 A 
ATOM     11  C   UNL d   1      25.401 -17.862  -0.252  0.00  0.00     0.104 A 
ATOM     12  O   UNL d   1      23.624 -16.281  -0.822  0.00  0.00    -0.346 OA
ATOM     13  C   UNL d   1      26.782 -18.114  -0.145  0.00  0.00     0.069 A 
ATOM     14  O   UNL d   1      24.535 -18.887   0.054  0.00  0.00    -0.346 OA
ATOM     15  C   UNL d   1      23.188 -18.408   0.229  0.00  0.00     0.202 C 
ATOM     16  C   UNL d   1      22.813 -17.458  -0.896  0.00  0.00     0.202 C 
ENDBRANCH   5   7
ENDBRANCH   2   3
ENDBRANCH   1   2
BRANCH   1  17
ATOM     17  C   UNL d   1      31.129 -14.180   0.242  0.00  0.00     0.211 A 
ATOM     18  N   UNL d   1      32.338 -14.652   0.473  0.00  0.00    -0.107 NA
ATOM     19  N   UNL d   1      32.428 -14.969   1.817  0.00  0.00     0.045 NA
ATOM     20  C   UNL d   1      31.276 -14.675   2.370  0.00  0.00     0.734 A 
ATOM     21  N   UNL d   1      30.890 -14.825   3.681  0.00  0.00    -0.152 N 
ATOM     22  N   UNL d   1      30.407 -14.153   1.429  0.00  0.00    -0.122 N 
ATOM     23  C   UNL d   1      29.641 -14.450   4.102  0.00  0.00     0.268 A 
ATOM     24  H   UNL d   1      31.531 -15.219   4.356  0.00  0.00     0.188 HD
ATOM     25  O   UNL d   1      29.289 -14.574   5.277  0.00  0.00    -0.267 OA
ATOM     26  C   UNL d   1      28.712 -13.872   3.075  0.00  0.00     0.034 A 
ATOM     27  C   UNL d   1      29.116 -13.750   1.786  0.00  0.00     0.048 A 
ATOM     28  C   UNL d   1      27.355 -13.434   3.561  0.00  0.00     0.046 C 
ATOM     29  C   UNL d   1      28.199 -13.181   0.739  0.00  0.00     0.059 C 
ATOM     30  C   UNL d   1      26.745 -13.131   1.172  0.00  0.00     0.006 C 
ATOM     31  C   UNL d   1      26.655 -12.518   2.556  0.00  0.00     0.005 C 
ENDBRANCH   1  17
TORSDOF 4
ENDMDL
MODEL 8
REMARK VINA RESULT:    -7.656      3.064      7.980
REMARK INTER + INTRA:         -10.787
REMARK INTER:                  -8.849
REMARK INTRA:                  -1.938
REMARK CONF_INDEPENDENT:        1.193
REMARK UNBOUND:                -1.938
REMARK  4 active torsions:
REMARK  status: ('A' for Active; 'I' for Inactive)
REMARK    1  A    between atoms: C_2  and  C_3 
REMARK       I    between atoms: C_2  and  N_19 
REMARK    2  A    between atoms: C_3  and  S_4 
REMARK    3  A    between atoms: S_4  and  C_5 
REMARK    4  A    between atoms: N_19  and  C_20 
ROOT
ATOM      1  S   UNL d   1      26.258 -13.163  -1.699  0.00  0.00    -0.080 SA
ENDROOT
BRANCH   1   2
ATOM      2  C   UNL d   1      26.790 -13.204  -3.425  0.00  0.00     0.185 C 
BRANCH   2   3
ATOM      3  C   UNL d   1      26.033 -14.266  -4.258  0.00  0.00     0.231 C 
ATOM      4  O   UNL d   1      24.844 -14.156  -4.570  0.00  0.00    -0.272 OA
ATOM      5  N   UNL d   1      26.735 -15.342  -4.784  0.00  0.00    -0.326 N 
ATOM      6  H   UNL d   1      26.205 -15.870  -5.474  0.00  0.00     0.169 HD
BRANCH   5   7
ATOM      7  C   UNL d   1      28.086 -15.681  -4.581  0.00  0.00     0.037 A 
ATOM      8  C   UNL d   1      29.011 -15.527  -5.612  0.00  0.00     0.032 A 
ATOM      9  C   UNL d   1      30.330 -15.945  -5.471  0.00  0.00     0.042 A 
ATOM     10  C   UNL d   1      30.761 -16.464  -4.260  0.00  0.00     0.102 A 
ATOM     11  C   UNL d   1      29.862 -16.592  -3.196  0.00  0.00     0.104 A 
ATOM     12  O   UNL d   1      32.085 -16.811  -4.191  0.00  0.00    -0.346 OA
ATOM     13  C   UNL d   1      28.530 -16.160  -3.340  0.00  0.00     0.069 A 
ATOM     14  O   UNL d   1      30.230 -17.151  -1.993  0.00  0.00    -0.346 OA
ATOM     15  C   UNL d   1      31.490 -17.843  -2.094  0.00  0.00     0.202 C 
ATOM     16  C   UNL d   1      32.505 -16.990  -2.835  0.00  0.00     0.202 C 
ENDBRANCH   5   7
ENDBRANCH   2   3
ENDBRANCH   1   2
BRANCH   1  17
ATOM     17  C   UNL d   1      27.348 -14.224  -0.845  0.00  0.00     0.211 A 
ATOM     18  N   UNL d   1      28.626 -13.983  -0.634  0.00  0.00    -0.107 NA
ATOM     19  N   UNL d   1      29.219 -15.153  -0.193  0.00  0.00     0.045 NA
ATOM     20  C   UNL d   1      28.286 -16.072  -0.140  0.00  0.00     0.734 A 
ATOM     21  N   UNL d   1      28.401 -17.392   0.231  0.00  0.00    -0.152 N 
ATOM     22  N   UNL d   1      27.067 -15.547  -0.526  0.00  0.00    -0.122 N 
ATOM     23  C   UNL d   1      27.312 -18.224   0.246  0.00  0.00     0.268 A 
ATOM     24  H   UNL d   1      29.301 -17.766   0.499  0.00  0.00     0.188 HD
ATOM     25  O   UNL d   1      27.405 -19.406   0.584  0.00  0.00    -0.267 OA
ATOM     26  C   UNL d   1      25.992 -17.639  -0.161  0.00  0.00     0.034 A 
ATOM     27  C   UNL d   1      25.912 -16.338  -0.536  0.00  0.00     0.048 A 
ATOM     28  C   UNL d   1      24.799 -18.558  -0.108  0.00  0.00     0.046 C 
ATOM     29  C   UNL d   1      24.601 -15.732  -0.956  0.00  0.00     0.059 C 
ATOM     30  C   UNL d   1      23.533 -16.764  -1.269  0.00  0.00     0.006 C 
ATOM     31  C   UNL d   1      23.479 -17.786  -0.151  0.00  0.00     0.005 C 
ENDBRANCH   1  17
TORSDOF 4
ENDMDL
MODEL 9
REMARK VINA RESULT:    -7.153      2.942      7.489
REMARK INTER + INTRA:         -10.564
REMARK INTER:                  -8.346
REMARK INTRA:                  -2.218
REMARK CONF_INDEPENDENT:        1.193
REMARK UNBOUND:                -2.218
REMARK  4 active torsions:
REMARK  status: ('A' for Active; 'I' for Inactive)
REMARK    1  A    between atoms: C_2  and  C_3 
REMARK       I    between atoms: C_2  and  N_19 
REMARK    2  A    between atoms: C_3  and  S_4 
REMARK    3  A    between atoms: S_4  and  C_5 
REMARK    4  A    between atoms: N_19  and  C_20 
ROOT
ATOM      1  S   UNL d   1      26.279 -15.350  -4.129  0.00  0.00    -0.080 SA
ENDROOT
BRANCH   1   2
ATOM      2  C   UNL d   1      27.040 -13.897  -4.888  0.00  0.00     0.185 C 
BRANCH   2   3
ATOM      3  C   UNL d   1      26.302 -12.583  -4.536  0.00  0.00     0.231 C 
ATOM      4  O   UNL d   1      25.531 -12.014  -5.314  0.00  0.00    -0.272 OA
ATOM      5  N   UNL d   1      26.409 -12.068  -3.252  0.00  0.00    -0.326 N 
ATOM      6  H   UNL d   1      25.740 -11.328  -3.058  0.00  0.00     0.169 HD
BRANCH   5   7
ATOM      7  C   UNL d   1      27.211 -12.536  -2.192  0.00  0.00     0.037 A 
ATOM      8  C   UNL d   1      28.598 -12.432  -2.262  0.00  0.00     0.032 A 
ATOM      9  C   UNL d   1      29.416 -12.973  -1.276  0.00  0.00     0.042 A 
ATOM     10  C   UNL d   1      28.847 -13.569  -0.162  0.00  0.00     0.102 A 
ATOM     11  C   UNL d   1      27.456 -13.651  -0.048  0.00  0.00     0.104 A 
ATOM     12  O   UNL d   1      29.723 -14.037   0.783  0.00  0.00    -0.346 OA
ATOM     13  C   UNL d   1      26.631 -13.094  -1.044  0.00  0.00     0.069 A 
ATOM     14  O   UNL d   1      26.846 -14.281   1.014  0.00  0.00    -0.346 OA
ATOM     15  C   UNL d   1      27.781 -15.080   1.764  0.00  0.00     0.202 C 
ATOM     16  C   UNL d   1      29.058 -14.299   2.023  0.00  0.00     0.202 C 
ENDBRANCH   5   7
ENDBRANCH   2   3
ENDBRANCH   1   2
BRANCH   1  17
ATOM     17  C   UNL d   1      27.350 -15.821  -2.836  0.00  0.00     0.211 A 
ATOM     18  N   UNL d   1      28.664 -15.725  -2.871  0.00  0.00    -0.107 NA
ATOM     19  N   UNL d   1      29.178 -16.451  -1.810  0.00  0.00     0.045 NA
ATOM     20  C   UNL d   1      28.165 -16.961  -1.153  0.00  0.00     0.734 A 
ATOM     21  N   UNL d   1      28.182 -17.762  -0.035  0.00  0.00    -0.152 N 
ATOM     22  N   UNL d   1      26.970 -16.588  -1.742  0.00  0.00    -0.122 N 
ATOM     23  C   UNL d   1      27.020 -18.202   0.542  0.00  0.00     0.268 A 
ATOM     24  H   UNL d   1      29.063 -18.037   0.377  0.00  0.00     0.188 HD
ATOM     25  O   UNL d   1      27.025 -18.914   1.548  0.00  0.00    -0.267 OA
ATOM     26  C   UNL d   1      25.729 -17.779  -0.097  0.00  0.00     0.034 A 
ATOM     27  C   UNL d   1      25.744 -17.002  -1.208  0.00  0.00     0.048 A 
ATOM     28  C   UNL d   1      24.460 -18.245   0.569  0.00  0.00     0.046 C 
ATOM     29  C   UNL d   1      24.464 -16.573  -1.870  0.00  0.00     0.059 C 
ATOM     30  C   UNL d   1      23.255 -17.373  -1.421  0.00  0.00     0.006 C 
ATOM     31  C   UNL d   1      23.241 -17.454   0.093  0.00  0.00     0.005 C 
ENDBRANCH   1  17
TORSDOF 4
ENDMDL
