MODEL 1
REMARK VINA RESULT:    -8.255      0.000      0.000
REMARK INTER + INTRA:         -11.346
REMARK INTER:                 -10.044
REMARK INTRA:                  -1.301
REMARK CONF_INDEPENDENT:        1.790
REMARK UNBOUND:                -1.301
REMARK  6 active torsions:
REMARK  status: ('A' for Active; 'I' for Inactive)
REMARK       I    between atoms: C_2  and  N_3 
REMARK    1  A    between atoms: C_2  and  C_15 
REMARK    2  A    between atoms: N_3  and  C_4 
REMARK    3  A    between atoms: C_4  and  C_5 
REMARK    4  A    between atoms: C_5  and  C_6 
REMARK       I    between atoms: C_15  and  N_17 
REMARK    5  A    between atoms: N_17  and  C_18 
REMARK    6  A    between atoms: C_21  and  N_22 
ROOT
ATOM      1  O   UNL d   1      27.036 -13.328   3.910  0.00  0.00    -0.262 OA
ATOM      2  C   UNL d   1      27.804 -14.185   3.474  0.00  0.00     0.309 C 
ATOM      3  N   UNL d   1      28.645 -14.898   4.318  0.00  0.00    -0.353 N 
ATOM      4  H   UNL d   1      29.299 -15.579   3.974  0.00  0.00     0.162 HD
ENDROOT
BRANCH   2   5
ATOM      5  C   UNL d   1      27.815 -14.481   1.947  0.00  0.00     0.314 C 
ATOM      6  O   UNL d   1      28.885 -14.825   1.449  0.00  0.00    -0.262 OA
ATOM      7  N   UNL d   1      26.651 -14.257   1.203  0.00  0.00    -0.317 N 
ATOM      8  H   UNL d   1      25.957 -13.633   1.586  0.00  0.00     0.169 HD
BRANCH   7   9
ATOM      9  C   UNL d   1      26.571 -14.536  -0.200  0.00  0.00     0.057 A 
ATOM     10  C   UNL d   1      26.597 -13.446  -1.092  0.00  0.00     0.034 A 
ATOM     11  C   UNL d   1      26.513 -13.642  -2.485  0.00  0.00     0.038 A 
ATOM     12  C   UNL d   1      26.382 -14.936  -2.999  0.00  0.00     0.104 A 
ATOM     13  C   UNL d   1      26.333 -16.030  -2.132  0.00  0.00     0.062 A 
ATOM     14  C   UNL d   1      26.417 -15.832  -0.745  0.00  0.00     0.063 A 
ATOM     15 CL   UNL d   1      26.111 -17.240   0.216  0.00  0.00    -0.082 Cl
BRANCH  12  16
ATOM     16  N   UNL d   1      26.262 -15.156  -4.449  0.00  0.00    -0.116 N 
ATOM     17  O   UNL d   1      25.167 -14.917  -4.978  0.00  0.00    -0.532 OA
ATOM     18  O   UNL d   1      27.259 -15.575  -5.054  0.00  0.00    -0.532 OA
ENDBRANCH  12  16
ENDBRANCH   7   9
ENDBRANCH   2   5
BRANCH   3  19
ATOM     19  C   UNL d   1      28.607 -14.619   5.755  0.00  0.00     0.128 C 
BRANCH  19  20
ATOM     20  C   UNL d   1      29.507 -13.451   6.138  0.00  0.00     0.060 C 
BRANCH  20  21
ATOM     21  C   UNL d   1      29.069 -12.722   7.367  0.00  0.00    -0.029 A 
ATOM     22  C   UNL d   1      28.874 -11.363   7.527  0.00  0.00     0.096 A 
ATOM     23  N   UNL d   1      28.526 -11.128   8.835  0.00  0.00    -0.365 N 
ATOM     24  C   UNL d   1      28.534 -12.306   9.547  0.00  0.00     0.042 A 
ATOM     25  H   UNL d   1      28.330 -10.218   9.230  0.00  0.00     0.165 HD
ATOM     26  C   UNL d   1      28.313 -12.556  10.908  0.00  0.00     0.030 A 
ATOM     27  C   UNL d   1      28.840 -13.323   8.642  0.00  0.00    -0.002 A 
ATOM     28  C   UNL d   1      28.425 -13.882  11.347  0.00  0.00     0.002 A 
ATOM     29  C   UNL d   1      28.709 -14.917  10.461  0.00  0.00     0.001 A 
ATOM     30  C   UNL d   1      28.905 -14.650   9.106  0.00  0.00     0.014 A 
ENDBRANCH  20  21
ENDBRANCH  19  20
ENDBRANCH   3  19
TORSDOF 6
ENDMDL
MODEL 2
REMARK VINA RESULT:    -7.709      1.099      1.407
REMARK INTER + INTRA:         -10.819
REMARK INTER:                  -9.499
REMARK INTRA:                  -1.320
REMARK CONF_INDEPENDENT:        1.790
REMARK UNBOUND:                -1.320
REMARK  6 active torsions:
REMARK  status: ('A' for Active; 'I' for Inactive)
REMARK       I    between atoms: C_2  and  N_3 
REMARK    1  A    between atoms: C_2  and  C_15 
REMARK    2  A    between atoms: N_3  and  C_4 
REMARK    3  A    between atoms: C_4  and  C_5 
REMARK    4  A    between atoms: C_5  and  C_6 
REMARK       I    between atoms: C_15  and  N_17 
REMARK    5  A    between atoms: N_17  and  C_18 
REMARK    6  A    between atoms: C_21  and  N_22 
ROOT
ATOM      1  O   UNL d   1      27.000 -13.302   3.917  0.00  0.00    -0.262 OA
ATOM      2  C   UNL d   1      27.796 -14.113   3.446  0.00  0.00     0.309 C 
ATOM      3  N   UNL d   1      28.672 -14.820   4.259  0.00  0.00    -0.353 N 
ATOM      4  H   UNL d   1      29.349 -15.463   3.887  0.00  0.00     0.162 HD
ENDROOT
BRANCH   2   5
ATOM      5  C   UNL d   1      27.804 -14.356   1.911  0.00  0.00     0.314 C 
ATOM      6  O   UNL d   1      28.874 -14.682   1.399  0.00  0.00    -0.262 OA
ATOM      7  N   UNL d   1      26.639 -14.108   1.177  0.00  0.00    -0.317 N 
ATOM      8  H   UNL d   1      25.944 -13.500   1.582  0.00  0.00     0.169 HD
BRANCH   7   9
ATOM      9  C   UNL d   1      26.557 -14.340  -0.234  0.00  0.00     0.057 A 
ATOM     10  C   UNL d   1      25.899 -15.504  -0.676  0.00  0.00     0.034 A 
ATOM     11  C   UNL d   1      25.787 -15.804  -2.048  0.00  0.00     0.038 A 
ATOM     12  C   UNL d   1      26.354 -14.945  -2.995  0.00  0.00     0.104 A 
ATOM     13  C   UNL d   1      27.030 -13.796  -2.580  0.00  0.00     0.062 A 
ATOM     14  C   UNL d   1      27.139 -13.500  -1.213  0.00  0.00     0.063 A 
ATOM     15 CL   UNL d   1      28.194 -12.181  -0.830  0.00  0.00    -0.082 Cl
BRANCH  12  16
ATOM     16  N   UNL d   1      26.274 -15.259  -4.431  0.00  0.00    -0.116 N 
ATOM     17  O   UNL d   1      25.161 -15.199  -4.971  0.00  0.00    -0.532 OA
ATOM     18  O   UNL d   1      27.322 -15.573  -5.013  0.00  0.00    -0.532 OA
ENDBRANCH  12  16
ENDBRANCH   7   9
ENDBRANCH   2   5
BRANCH   3  19
ATOM     19  C   UNL d   1      28.636 -14.592   5.705  0.00  0.00     0.128 C 
BRANCH  19  20
ATOM     20  C   UNL d   1      29.566 -13.463   6.133  0.00  0.00     0.060 C 
BRANCH  20  21
ATOM     21  C   UNL d   1      29.121 -12.738   7.361  0.00  0.00    -0.029 A 
ATOM     22  C   UNL d   1      28.924 -11.380   7.524  0.00  0.00     0.096 A 
ATOM     23  N   UNL d   1      28.568 -11.149   8.831  0.00  0.00    -0.365 N 
ATOM     24  C   UNL d   1      28.574 -12.330   9.539  0.00  0.00     0.042 A 
ATOM     25  H   UNL d   1      28.370 -10.240   9.227  0.00  0.00     0.165 HD
ATOM     26  C   UNL d   1      28.345 -12.584  10.898  0.00  0.00     0.030 A 
ATOM     27  C   UNL d   1      28.886 -13.343   8.633  0.00  0.00    -0.002 A 
ATOM     28  C   UNL d   1      28.456 -13.910  11.334  0.00  0.00     0.002 A 
ATOM     29  C   UNL d   1      28.745 -14.942  10.446  0.00  0.00     0.001 A 
ATOM     30  C   UNL d   1      28.949 -14.671   9.093  0.00  0.00     0.014 A 
ENDBRANCH  20  21
ENDBRANCH  19  20
ENDBRANCH   3  19
TORSDOF 6
ENDMDL
MODEL 3
REMARK VINA RESULT:    -7.569      7.898      9.556
REMARK INTER + INTRA:         -10.486
REMARK INTER:                  -9.359
REMARK INTRA:                  -1.128
REMARK CONF_INDEPENDENT:        1.790
REMARK UNBOUND:                -1.128
REMARK  6 active torsions:
REMARK  status: ('A' for Active; 'I' for Inactive)
REMARK       I    between atoms: C_2  and  N_3 
REMARK    1  A    between atoms: C_2  and  C_15 
REMARK    2  A    between atoms: N_3  and  C_4 
REMARK    3  A    between atoms: C_4  and  C_5 
REMARK    4  A    between atoms: C_5  and  C_6 
REMARK       I    between atoms: C_15  and  N_17 
REMARK    5  A    between atoms: N_17  and  C_18 
REMARK    6  A    between atoms: C_21  and  N_22 
ROOT
ATOM      1  O   UNL d   1      26.365 -17.225  -0.428  0.00  0.00    -0.262 OA
ATOM      2  C   UNL d   1      25.526 -17.055  -1.312  0.00  0.00     0.309 C 
ATOM      3  N   UNL d   1      24.288 -17.682  -1.263  0.00  0.00    -0.353 N 
ATOM      4  H   UNL d   1      23.604 -17.578  -1.993  0.00  0.00     0.162 HD
ENDROOT
BRANCH   2   5
ATOM      5  C   UNL d   1      25.862 -16.106  -2.497  0.00  0.00     0.314 C 
ATOM      6  O   UNL d   1      24.917 -15.671  -3.154  0.00  0.00    -0.262 OA
ATOM      7  N   UNL d   1      27.203 -15.865  -2.817  0.00  0.00    -0.317 N 
ATOM      8  H   UNL d   1      27.892 -16.529  -2.498  0.00  0.00     0.169 HD
BRANCH   7   9
ATOM      9  C   UNL d   1      27.593 -14.978  -3.872  0.00  0.00     0.057 A 
ATOM     10  C   UNL d   1      26.781 -13.854  -4.123  0.00  0.00     0.034 A 
ATOM     11  C   UNL d   1      27.095 -12.942  -5.150  0.00  0.00     0.038 A 
ATOM     12  C   UNL d   1      28.221 -13.159  -5.952  0.00  0.00     0.104 A 
ATOM     13  C   UNL d   1      29.028 -14.278  -5.735  0.00  0.00     0.062 A 
ATOM     14  C   UNL d   1      28.712 -15.184  -4.711  0.00  0.00     0.063 A 
ATOM     15 CL   UNL d   1      29.655 -16.637  -4.702  0.00  0.00    -0.082 Cl
BRANCH  12  16
ATOM     16  N   UNL d   1      28.546 -12.234  -7.049  0.00  0.00    -0.116 N 
ATOM     17  O   UNL d   1      29.562 -11.535  -6.930  0.00  0.00    -0.532 OA
ATOM     18  O   UNL d   1      27.781 -12.202  -8.024  0.00  0.00    -0.532 OA
ENDBRANCH  12  16
ENDBRANCH   7   9
ENDBRANCH   2   5
BRANCH   3  19
ATOM     19  C   UNL d   1      23.983 -18.558  -0.130  0.00  0.00     0.128 C 
BRANCH  19  20
ATOM     20  C   UNL d   1      22.659 -18.200   0.533  0.00  0.00     0.060 C 
BRANCH  20  21
ATOM     21  C   UNL d   1      21.475 -18.892  -0.060  0.00  0.00    -0.029 A 
ATOM     22  C   UNL d   1      21.099 -18.950  -1.388  0.00  0.00     0.096 A 
ATOM     23  N   UNL d   1      19.917 -19.644  -1.473  0.00  0.00    -0.365 N 
ATOM     24  C   UNL d   1      19.487 -20.003  -0.215  0.00  0.00     0.042 A 
ATOM     25  H   UNL d   1      19.413 -19.832  -2.329  0.00  0.00     0.165 HD
ATOM     26  C   UNL d   1      18.319 -20.656   0.203  0.00  0.00     0.030 A 
ATOM     27  C   UNL d   1      20.462 -19.571   0.684  0.00  0.00    -0.002 A 
ATOM     28  C   UNL d   1      18.147 -20.853   1.579  0.00  0.00     0.002 A 
ATOM     29  C   UNL d   1      19.115 -20.450   2.494  0.00  0.00     0.001 A 
ATOM     30  C   UNL d   1      20.280 -19.820   2.057  0.00  0.00     0.014 A 
ENDBRANCH  20  21
ENDBRANCH  19  20
ENDBRANCH   3  19
TORSDOF 6
ENDMDL
MODEL 4
REMARK VINA RESULT:    -7.352      7.045      9.214
REMARK INTER + INTRA:         -10.215
REMARK INTER:                  -9.142
REMARK INTRA:                  -1.072
REMARK CONF_INDEPENDENT:        1.790
REMARK UNBOUND:                -1.072
REMARK  6 active torsions:
REMARK  status: ('A' for Active; 'I' for Inactive)
REMARK       I    between atoms: C_2  and  N_3 
REMARK    1  A    between atoms: C_2  and  C_15 
REMARK    2  A    between atoms: N_3  and  C_4 
REMARK    3  A    between atoms: C_4  and  C_5 
REMARK    4  A    between atoms: C_5  and  C_6 
REMARK       I    between atoms: C_15  and  N_17 
REMARK    5  A    between atoms: N_17  and  C_18 
REMARK    6  A    between atoms: C_21  and  N_22 
ROOT
ATOM      1  O   UNL d   1      25.220 -14.815  -4.131  0.00  0.00    -0.262 OA
ATOM      2  C   UNL d   1      26.419 -14.878  -3.864  0.00  0.00     0.309 C 
ATOM      3  N   UNL d   1      26.890 -14.605  -2.587  0.00  0.00    -0.353 N 
ATOM      4  H   UNL d   1      27.870 -14.623  -2.361  0.00  0.00     0.162 HD
ENDROOT
BRANCH   2   5
ATOM      5  C   UNL d   1      27.419 -15.289  -4.982  0.00  0.00     0.314 C 
ATOM      6  O   UNL d   1      27.030 -15.198  -6.145  0.00  0.00    -0.262 OA
ATOM      7  N   UNL d   1      28.661 -15.822  -4.620  0.00  0.00    -0.317 N 
ATOM      8  H   UNL d   1      28.758 -16.212  -3.696  0.00  0.00     0.169 HD
BRANCH   7   9
ATOM      9  C   UNL d   1      29.649 -16.193  -5.589  0.00  0.00     0.057 A 
ATOM     10  C   UNL d   1      30.154 -17.507  -5.547  0.00  0.00     0.034 A 
ATOM     11  C   UNL d   1      31.134 -17.941  -6.462  0.00  0.00     0.038 A 
ATOM     12  C   UNL d   1      31.634 -17.053  -7.420  0.00  0.00     0.104 A 
ATOM     13  C   UNL d   1      31.163 -15.739  -7.466  0.00  0.00     0.062 A 
ATOM     14  C   UNL d   1      30.187 -15.310  -6.555  0.00  0.00     0.063 A 
ATOM     15 CL   UNL d   1      29.865 -13.608  -6.573  0.00  0.00    -0.082 Cl
BRANCH  12  16
ATOM     16  N   UNL d   1      32.680 -17.481  -8.362  0.00  0.00    -0.116 N 
ATOM     17  O   UNL d   1      33.644 -16.722  -8.535  0.00  0.00    -0.532 OA
ATOM     18  O   UNL d   1      32.531 -18.571  -8.933  0.00  0.00    -0.532 OA
ENDBRANCH  12  16
ENDBRANCH   7   9
ENDBRANCH   2   5
BRANCH   3  19
ATOM     19  C   UNL d   1      25.931 -14.239  -1.543  0.00  0.00     0.128 C 
BRANCH  19  20
ATOM     20  C   UNL d   1      26.262 -14.888  -0.205  0.00  0.00     0.060 C 
BRANCH  20  21
ATOM     21  C   UNL d   1      25.925 -16.342  -0.134  0.00  0.00    -0.029 A 
ATOM     22  C   UNL d   1      26.782 -17.407   0.077  0.00  0.00     0.096 A 
ATOM     23  N   UNL d   1      26.052 -18.568   0.010  0.00  0.00    -0.365 N 
ATOM     24  C   UNL d   1      24.738 -18.286  -0.288  0.00  0.00     0.042 A 
ATOM     25  H   UNL d   1      26.430 -19.499   0.122  0.00  0.00     0.165 HD
ATOM     26  C   UNL d   1      23.648 -19.136  -0.519  0.00  0.00     0.030 A 
ATOM     27  C   UNL d   1      24.627 -16.897  -0.352  0.00  0.00    -0.002 A 
ATOM     28  C   UNL d   1      22.421 -18.540  -0.838  0.00  0.00     0.002 A 
ATOM     29  C   UNL d   1      22.279 -17.156  -0.888  0.00  0.00     0.001 A 
ATOM     30  C   UNL d   1      23.372 -16.327  -0.633  0.00  0.00     0.014 A 
ENDBRANCH  20  21
ENDBRANCH  19  20
ENDBRANCH   3  19
TORSDOF 6
ENDMDL
MODEL 5
REMARK VINA RESULT:    -7.068      3.781      5.262
REMARK INTER + INTRA:         -10.237
REMARK INTER:                  -8.858
REMARK INTRA:                  -1.379
REMARK CONF_INDEPENDENT:        1.790
REMARK UNBOUND:                -1.379
REMARK  6 active torsions:
REMARK  status: ('A' for Active; 'I' for Inactive)
REMARK       I    between atoms: C_2  and  N_3 
REMARK    1  A    between atoms: C_2  and  C_15 
REMARK    2  A    between atoms: N_3  and  C_4 
REMARK    3  A    between atoms: C_4  and  C_5 
REMARK    4  A    between atoms: C_5  and  C_6 
REMARK       I    between atoms: C_15  and  N_17 
REMARK    5  A    between atoms: N_17  and  C_18 
REMARK    6  A    between atoms: C_21  and  N_22 
ROOT
ATOM      1  O   UNL d   1      30.570 -15.638  -1.596  0.00  0.00    -0.262 OA
ATOM      2  C   UNL d   1      29.818 -16.048  -0.714  0.00  0.00     0.309 C 
ATOM      3  N   UNL d   1      30.234 -16.134   0.608  0.00  0.00    -0.353 N 
ATOM      4  H   UNL d   1      29.642 -16.496   1.335  0.00  0.00     0.162 HD
ENDROOT
BRANCH   2   5
ATOM      5  C   UNL d   1      28.368 -16.463  -1.093  0.00  0.00     0.314 C 
ATOM      6  O   UNL d   1      28.166 -16.798  -2.258  0.00  0.00    -0.262 OA
ATOM      7  N   UNL d   1      27.356 -16.350  -0.132  0.00  0.00    -0.317 N 
ATOM      8  H   UNL d   1      27.511 -15.731   0.648  0.00  0.00     0.169 HD
BRANCH   7   9
ATOM      9  C   UNL d   1      26.003 -16.743  -0.393  0.00  0.00     0.057 A 
ATOM     10  C   UNL d   1      25.547 -17.953   0.166  0.00  0.00     0.034 A 
ATOM     11  C   UNL d   1      24.232 -18.409  -0.054  0.00  0.00     0.038 A 
ATOM     12  C   UNL d   1      23.364 -17.663  -0.859  0.00  0.00     0.104 A 
ATOM     13  C   UNL d   1      23.801 -16.472  -1.441  0.00  0.00     0.062 A 
ATOM     14  C   UNL d   1      25.111 -16.020  -1.219  0.00  0.00     0.063 A 
ATOM     15 CL   UNL d   1      25.591 -14.662  -2.181  0.00  0.00    -0.082 Cl
BRANCH  12  16
ATOM     16  N   UNL d   1      21.998 -18.141  -1.125  0.00  0.00    -0.116 N 
ATOM     17  O   UNL d   1      21.062 -17.362  -0.896  0.00  0.00    -0.532 OA
ATOM     18  O   UNL d   1      21.863 -19.296  -1.555  0.00  0.00    -0.532 OA
ENDBRANCH  12  16
ENDBRANCH   7   9
ENDBRANCH   2   5
BRANCH   3  19
ATOM     19  C   UNL d   1      31.597 -15.721   0.949  0.00  0.00     0.128 C 
BRANCH  19  20
ATOM     20  C   UNL d   1      31.627 -14.380   1.673  0.00  0.00     0.060 C 
BRANCH  20  21
ATOM     21  C   UNL d   1      30.276 -13.843   2.016  0.00  0.00    -0.029 A 
ATOM     22  C   UNL d   1      29.483 -12.990   1.271  0.00  0.00     0.096 A 
ATOM     23  N   UNL d   1      28.348 -12.713   1.993  0.00  0.00    -0.365 N 
ATOM     24  C   UNL d   1      28.405 -13.334   3.221  0.00  0.00     0.042 A 
ATOM     25  H   UNL d   1      27.598 -12.109   1.687  0.00  0.00     0.165 HD
ATOM     26  C   UNL d   1      27.523 -13.294   4.309  0.00  0.00     0.030 A 
ATOM     27  C   UNL d   1      29.587 -14.073   3.246  0.00  0.00    -0.002 A 
ATOM     28  C   UNL d   1      27.877 -14.019   5.454  0.00  0.00     0.002 A 
ATOM     29  C   UNL d   1      29.041 -14.781   5.497  0.00  0.00     0.001 A 
ATOM     30  C   UNL d   1      29.895 -14.825   4.395  0.00  0.00     0.014 A 
ENDBRANCH  20  21
ENDBRANCH  19  20
ENDBRANCH   3  19
TORSDOF 6
ENDMDL
MODEL 6
REMARK VINA RESULT:    -7.045      3.705      5.840
REMARK INTER + INTRA:          -9.757
REMARK INTER:                  -8.834
REMARK INTRA:                  -0.922
REMARK CONF_INDEPENDENT:        1.790
REMARK UNBOUND:                -0.922
REMARK  6 active torsions:
REMARK  status: ('A' for Active; 'I' for Inactive)
REMARK       I    between atoms: C_2  and  N_3 
REMARK    1  A    between atoms: C_2  and  C_15 
REMARK    2  A    between atoms: N_3  and  C_4 
REMARK    3  A    between atoms: C_4  and  C_5 
REMARK    4  A    between atoms: C_5  and  C_6 
REMARK       I    between atoms: C_15  and  N_17 
REMARK    5  A    between atoms: N_17  and  C_18 
REMARK    6  A    between atoms: C_21  and  N_22 
ROOT
ATOM      1  O   UNL d   1      27.074 -13.427  -2.865  0.00  0.00    -0.262 OA
ATOM      2  C   UNL d   1      26.871 -14.120  -1.869  0.00  0.00     0.309 C 
ATOM      3  N   UNL d   1      27.609 -13.945  -0.705  0.00  0.00    -0.353 N 
ATOM      4  H   UNL d   1      27.476 -14.523   0.107  0.00  0.00     0.162 HD
ENDROOT
BRANCH   2   5
ATOM      5  C   UNL d   1      25.755 -15.201  -1.917  0.00  0.00     0.314 C 
ATOM      6  O   UNL d   1      25.380 -15.573  -3.027  0.00  0.00    -0.262 OA
ATOM      7  N   UNL d   1      25.170 -15.628  -0.719  0.00  0.00    -0.317 N 
ATOM      8  H   UNL d   1      25.249 -15.027   0.086  0.00  0.00     0.169 HD
BRANCH   7   9
ATOM      9  C   UNL d   1      24.160 -16.643  -0.678  0.00  0.00     0.057 A 
ATOM     10  C   UNL d   1      22.828 -16.259  -0.928  0.00  0.00     0.034 A 
ATOM     11  C   UNL d   1      21.779 -17.200  -0.895  0.00  0.00     0.038 A 
ATOM     12  C   UNL d   1      22.054 -18.537  -0.590  0.00  0.00     0.104 A 
ATOM     13  C   UNL d   1      23.364 -18.936  -0.318  0.00  0.00     0.062 A 
ATOM     14  C   UNL d   1      24.406 -17.997  -0.352  0.00  0.00     0.063 A 
ATOM     15 CL   UNL d   1      25.932 -18.575   0.229  0.00  0.00    -0.082 Cl
BRANCH  12  16
ATOM     16  N   UNL d   1      20.966 -19.526  -0.521  0.00  0.00    -0.116 N 
ATOM     17  O   UNL d   1      20.349 -19.776  -1.566  0.00  0.00    -0.532 OA
ATOM     18  O   UNL d   1      20.726 -20.044   0.579  0.00  0.00    -0.532 OA
ENDBRANCH  12  16
ENDBRANCH   7   9
ENDBRANCH   2   5
BRANCH   3  19
ATOM     19  C   UNL d   1      28.643 -12.909  -0.672  0.00  0.00     0.128 C 
BRANCH  19  20
ATOM     20  C   UNL d   1      28.590 -12.085   0.608  0.00  0.00     0.060 C 
BRANCH  20  21
ATOM     21  C   UNL d   1      28.690 -12.895   1.859  0.00  0.00    -0.029 A 
ATOM     22  C   UNL d   1      28.977 -14.242   1.982  0.00  0.00     0.096 A 
ATOM     23  N   UNL d   1      28.911 -14.579   3.311  0.00  0.00    -0.365 N 
ATOM     24  C   UNL d   1      28.539 -13.485   4.059  0.00  0.00     0.042 A 
ATOM     25  H   UNL d   1      29.072 -15.504   3.685  0.00  0.00     0.165 HD
ATOM     26  C   UNL d   1      28.280 -13.357   5.431  0.00  0.00     0.030 A 
ATOM     27  C   UNL d   1      28.425 -12.411   3.176  0.00  0.00    -0.002 A 
ATOM     28  C   UNL d   1      27.881 -12.099   5.898  0.00  0.00     0.002 A 
ATOM     29  C   UNL d   1      27.780 -11.007   5.041  0.00  0.00     0.001 A 
ATOM     30  C   UNL d   1      28.063 -11.149   3.683  0.00  0.00     0.014 A 
ENDBRANCH  20  21
ENDBRANCH  19  20
ENDBRANCH   3  19
TORSDOF 6
ENDMDL
MODEL 7
REMARK VINA RESULT:    -6.760      1.234      2.643
REMARK INTER + INTRA:          -9.953
REMARK INTER:                  -8.549
REMARK INTRA:                  -1.404
REMARK CONF_INDEPENDENT:        1.790
REMARK UNBOUND:                -1.404
REMARK  6 active torsions:
REMARK  status: ('A' for Active; 'I' for Inactive)
REMARK       I    between atoms: C_2  and  N_3 
REMARK    1  A    between atoms: C_2  and  C_15 
REMARK    2  A    between atoms: N_3  and  C_4 
REMARK    3  A    between atoms: C_4  and  C_5 
REMARK    4  A    between atoms: C_5  and  C_6 
REMARK       I    between atoms: C_15  and  N_17 
REMARK    5  A    between atoms: N_17  and  C_18 
REMARK    6  A    between atoms: C_21  and  N_22 
ROOT
ATOM      1  O   UNL d   1      26.745 -13.085   3.408  0.00  0.00    -0.262 OA
ATOM      2  C   UNL d   1      27.440 -14.053   3.106  0.00  0.00     0.309 C 
ATOM      3  N   UNL d   1      28.107 -14.793   4.074  0.00  0.00    -0.353 N 
ATOM      4  H   UNL d   1      28.703 -15.569   3.840  0.00  0.00     0.162 HD
ENDROOT
BRANCH   2   5
ATOM      5  C   UNL d   1      27.557 -14.460   1.610  0.00  0.00     0.314 C 
ATOM      6  O   UNL d   1      28.576 -15.057   1.268  0.00  0.00    -0.262 OA
ATOM      7  N   UNL d   1      26.559 -14.056   0.716  0.00  0.00    -0.317 N 
ATOM      8  H   UNL d   1      25.978 -13.274   0.977  0.00  0.00     0.169 HD
BRANCH   7   9
ATOM      9  C   UNL d   1      26.578 -14.418  -0.670  0.00  0.00     0.057 A 
ATOM     10  C   UNL d   1      26.764 -13.393  -1.618  0.00  0.00     0.034 A 
ATOM     11  C   UNL d   1      26.783 -13.672  -2.999  0.00  0.00     0.038 A 
ATOM     12  C   UNL d   1      26.597 -14.984  -3.447  0.00  0.00     0.104 A 
ATOM     13  C   UNL d   1      26.390 -16.013  -2.526  0.00  0.00     0.062 A 
ATOM     14  C   UNL d   1      26.371 -15.733  -1.151  0.00  0.00     0.063 A 
ATOM     15 CL   UNL d   1      25.876 -17.050  -0.141  0.00  0.00    -0.082 Cl
BRANCH  12  16
ATOM     16  N   UNL d   1      26.584 -15.287  -4.886  0.00  0.00    -0.116 N 
ATOM     17  O   UNL d   1      25.504 -15.621  -5.394  0.00  0.00    -0.532 OA
ATOM     18  O   UNL d   1      27.654 -15.200  -5.505  0.00  0.00    -0.532 OA
ENDBRANCH  12  16
ENDBRANCH   7   9
ENDBRANCH   2   5
BRANCH   3  19
ATOM     19  C   UNL d   1      27.970 -14.407   5.479  0.00  0.00     0.128 C 
BRANCH  19  20
ATOM     20  C   UNL d   1      29.297 -13.970   6.088  0.00  0.00     0.060 C 
BRANCH  20  21
ATOM     21  C   UNL d   1      29.195 -12.773   6.976  0.00  0.00    -0.029 A 
ATOM     22  C   UNL d   1      28.753 -12.717   8.285  0.00  0.00     0.096 A 
ATOM     23  N   UNL d   1      28.775 -11.406   8.693  0.00  0.00    -0.365 N 
ATOM     24  C   UNL d   1      29.180 -10.594   7.658  0.00  0.00     0.042 A 
ATOM     25  H   UNL d   1      28.497 -11.078   9.608  0.00  0.00     0.165 HD
ATOM     26  C   UNL d   1      29.293  -9.200   7.577  0.00  0.00     0.030 A 
ATOM     27  C   UNL d   1      29.479 -11.430   6.582  0.00  0.00    -0.002 A 
ATOM     28  C   UNL d   1      29.708  -8.655   6.355  0.00  0.00     0.002 A 
ATOM     29  C   UNL d   1      30.031  -9.468   5.273  0.00  0.00     0.001 A 
ATOM     30  C   UNL d   1      29.933 -10.856   5.380  0.00  0.00     0.014 A 
ENDBRANCH  20  21
ENDBRANCH  19  20
ENDBRANCH   3  19
TORSDOF 6
ENDMDL
MODEL 8
REMARK VINA RESULT:    -6.477      3.466      4.784
REMARK INTER + INTRA:          -9.903
REMARK INTER:                  -8.267
REMARK INTRA:                  -1.636
REMARK CONF_INDEPENDENT:        1.790
REMARK UNBOUND:                -1.636
REMARK  6 active torsions:
REMARK  status: ('A' for Active; 'I' for Inactive)
REMARK       I    between atoms: C_2  and  N_3 
REMARK    1  A    between atoms: C_2  and  C_15 
REMARK    2  A    between atoms: N_3  and  C_4 
REMARK    3  A    between atoms: C_4  and  C_5 
REMARK    4  A    between atoms: C_5  and  C_6 
REMARK       I    between atoms: C_15  and  N_17 
REMARK    5  A    between atoms: N_17  and  C_18 
REMARK    6  A    between atoms: C_21  and  N_22 
ROOT
ATOM      1  O   UNL d   1      29.916 -15.848   0.008  0.00  0.00    -0.262 OA
ATOM      2  C   UNL d   1      29.102 -15.224   0.688  0.00  0.00     0.309 C 
ATOM      3  N   UNL d   1      29.507 -14.221   1.559  0.00  0.00    -0.353 N 
ATOM      4  H   UNL d   1      28.858 -13.724   2.143  0.00  0.00     0.162 HD
ENDROOT
BRANCH   2   5
ATOM      5  C   UNL d   1      27.590 -15.560   0.550  0.00  0.00     0.314 C 
ATOM      6  O   UNL d   1      26.799 -14.855   1.173  0.00  0.00    -0.262 OA
ATOM      7  N   UNL d   1      27.208 -16.685  -0.189  0.00  0.00    -0.317 N 
ATOM      8  H   UNL d   1      27.896 -17.406  -0.342  0.00  0.00     0.169 HD
BRANCH   7   9
ATOM      9  C   UNL d   1      25.835 -17.042  -0.390  0.00  0.00     0.057 A 
ATOM     10  C   UNL d   1      25.308 -18.098   0.379  0.00  0.00     0.034 A 
ATOM     11  C   UNL d   1      23.970 -18.511   0.230  0.00  0.00     0.038 A 
ATOM     12  C   UNL d   1      23.148 -17.881  -0.709  0.00  0.00     0.104 A 
ATOM     13  C   UNL d   1      23.655 -16.846  -1.498  0.00  0.00     0.062 A 
ATOM     14  C   UNL d   1      24.988 -16.435  -1.347  0.00  0.00     0.063 A 
ATOM     15 CL   UNL d   1      25.548 -15.310  -2.538  0.00  0.00    -0.082 Cl
BRANCH  12  16
ATOM     16  N   UNL d   1      21.756 -18.321  -0.900  0.00  0.00    -0.116 N 
ATOM     17  O   UNL d   1      20.875 -17.450  -0.914  0.00  0.00    -0.532 OA
ATOM     18  O   UNL d   1      21.547 -19.536  -1.026  0.00  0.00    -0.532 OA
ENDBRANCH  12  16
ENDBRANCH   7   9
ENDBRANCH   2   5
BRANCH   3  19
ATOM     19  C   UNL d   1      30.933 -13.906   1.661  0.00  0.00     0.128 C 
BRANCH  19  20
ATOM     20  C   UNL d   1      31.495 -14.225   3.041  0.00  0.00     0.060 C 
BRANCH  20  21
ATOM     21  C   UNL d   1      30.481 -14.177   4.138  0.00  0.00    -0.029 A 
ATOM     22  C   UNL d   1      30.078 -15.204   4.970  0.00  0.00     0.096 A 
ATOM     23  N   UNL d   1      29.086 -14.729   5.793  0.00  0.00    -0.365 N 
ATOM     24  C   UNL d   1      28.800 -13.418   5.483  0.00  0.00     0.042 A 
ATOM     25  H   UNL d   1      28.606 -15.271   6.498  0.00  0.00     0.165 HD
ATOM     26  C   UNL d   1      27.833 -12.545   5.997  0.00  0.00     0.030 A 
ATOM     27  C   UNL d   1      29.682 -13.041   4.470  0.00  0.00    -0.002 A 
ATOM     28  C   UNL d   1      27.764 -11.259   5.445  0.00  0.00     0.002 A 
ATOM     29  C   UNL d   1      28.647 -10.852   4.448  0.00  0.00     0.001 A 
ATOM     30  C   UNL d   1      29.617 -11.730   3.964  0.00  0.00     0.014 A 
ENDBRANCH  20  21
ENDBRANCH  19  20
ENDBRANCH   3  19
TORSDOF 6
ENDMDL
MODEL 9
REMARK VINA RESULT:    -6.195      2.420      4.011
REMARK INTER + INTRA:         -10.020
REMARK INTER:                  -7.985
REMARK INTRA:                  -2.035
REMARK CONF_INDEPENDENT:        1.790
REMARK UNBOUND:                -2.035
REMARK  6 active torsions:
REMARK  status: ('A' for Active; 'I' for Inactive)
REMARK       I    between atoms: C_2  and  N_3 
REMARK    1  A    between atoms: C_2  and  C_15 
REMARK    2  A    between atoms: N_3  and  C_4 
REMARK    3  A    between atoms: C_4  and  C_5 
REMARK    4  A    between atoms: C_5  and  C_6 
REMARK       I    between atoms: C_15  and  N_17 
REMARK    5  A    between atoms: N_17  and  C_18 
REMARK    6  A    between atoms: C_21  and  N_22 
ROOT
ATOM      1  O   UNL d   1      26.856 -13.701   3.560  0.00  0.00    -0.262 OA
ATOM      2  C   UNL d   1      27.782 -14.362   3.091  0.00  0.00     0.309 C 
ATOM      3  N   UNL d   1      28.815 -14.826   3.894  0.00  0.00    -0.353 N 
ATOM      4  H   UNL d   1      29.594 -15.341   3.522  0.00  0.00     0.162 HD
ENDROOT
BRANCH   2   5
ATOM      5  C   UNL d   1      27.779 -14.693   1.572  0.00  0.00     0.314 C 
ATOM      6  O   UNL d   1      28.802 -15.187   1.103  0.00  0.00    -0.262 OA
ATOM      7  N   UNL d   1      26.668 -14.335   0.801  0.00  0.00    -0.317 N 
ATOM      8  H   UNL d   1      26.056 -13.617   1.156  0.00  0.00     0.169 HD
BRANCH   7   9
ATOM      9  C   UNL d   1      26.576 -14.634  -0.597  0.00  0.00     0.057 A 
ATOM     10  C   UNL d   1      26.883 -13.610  -1.514  0.00  0.00     0.034 A 
ATOM     11  C   UNL d   1      26.805 -13.826  -2.904  0.00  0.00     0.038 A 
ATOM     12  C   UNL d   1      26.398 -15.073  -3.391  0.00  0.00     0.104 A 
ATOM     13  C   UNL d   1      26.069 -16.097  -2.501  0.00  0.00     0.062 A 
ATOM     14  C   UNL d   1      26.147 -15.878  -1.117  0.00  0.00     0.063 A 
ATOM     15 CL   UNL d   1      25.492 -17.146  -0.136  0.00  0.00    -0.082 Cl
BRANCH  12  16
ATOM     16  N   UNL d   1      26.282 -15.307  -4.839  0.00  0.00    -0.116 N 
ATOM     17  O   UNL d   1      25.157 -15.560  -5.292  0.00  0.00    -0.532 OA
ATOM     18  O   UNL d   1      27.317 -15.245  -5.519  0.00  0.00    -0.532 OA
ENDBRANCH  12  16
ENDBRANCH   7   9
ENDBRANCH   2   5
BRANCH   3  19
ATOM     19  C   UNL d   1      28.791 -14.521   5.326  0.00  0.00     0.128 C 
BRANCH  19  20
ATOM     20  C   UNL d   1      29.486 -13.204   5.646  0.00  0.00     0.060 C 
BRANCH  20  21
ATOM     21  C   UNL d   1      28.771 -11.997   5.131  0.00  0.00    -0.029 A 
ATOM     22  C   UNL d   1      27.827 -11.224   5.782  0.00  0.00     0.096 A 
ATOM     23  N   UNL d   1      27.395 -10.250   4.915  0.00  0.00    -0.365 N 
ATOM     24  C   UNL d   1      28.006 -10.400   3.691  0.00  0.00     0.042 A 
ATOM     25  H   UNL d   1      26.700  -9.548   5.130  0.00  0.00     0.165 HD
ATOM     26  C   UNL d   1      27.839  -9.696   2.491  0.00  0.00     0.030 A 
ATOM     27  C   UNL d   1      28.895 -11.468   3.811  0.00  0.00    -0.002 A 
ATOM     28  C   UNL d   1      28.594 -10.112   1.387  0.00  0.00     0.002 A 
ATOM     29  C   UNL d   1      29.503 -11.162   1.487  0.00  0.00     0.001 A 
ATOM     30  C   UNL d   1      29.671 -11.836   2.696  0.00  0.00     0.014 A 
ENDBRANCH  20  21
ENDBRANCH  19  20
ENDBRANCH   3  19
TORSDOF 6
ENDMDL
