MODEL 1
REMARK VINA RESULT:    -8.812      0.000      0.000
REMARK INTER + INTRA:         -10.366
REMARK INTER:                  -9.707
REMARK INTRA:                  -0.659
REMARK CONF_INDEPENDENT:        0.895
REMARK UNBOUND:                -0.659
REMARK  3 active torsions:
REMARK  status: ('A' for Active; 'I' for Inactive)
REMARK    1  A    between atoms: C_8  and  N_9 
REMARK       I    between atoms: N_9  and  C_10 
REMARK    2  A    between atoms: C_10  and  C_12 
REMARK    3  A    between atoms: C_17  and  O_18 
ROOT
ATOM      1  N   UNL d   1      22.479 -18.527   0.414  0.00  0.00    -0.322 N 
ATOM      2  C   UNL d   1      21.234 -18.613  -0.192  0.00  0.00     0.259 C 
ATOM      3  O   UNL d   1      20.825 -18.159  -1.259  0.00  0.00    -0.267 OA
ATOM      4  H   UNL d   1      22.521 -18.908   1.357  0.00  0.00     0.169 HD
ENDROOT
BRANCH   1   5
ATOM      5  C   UNL d   1      23.689 -17.923  -0.082  0.00  0.00     0.042 A 
ATOM      6  C   UNL d   1      24.907 -18.575   0.228  0.00  0.00     0.030 A 
ATOM      7  C   UNL d   1      26.142 -18.074  -0.220  0.00  0.00     0.004 A 
ATOM      8  C   UNL d   1      26.188 -16.918  -0.987  0.00  0.00     0.024 A 
ATOM      9  C   UNL d   1      25.012 -16.258  -1.307  0.00  0.00     0.042 A 
ATOM     10  C   UNL d   1      23.764 -16.738  -0.863  0.00  0.00    -0.013 A 
ATOM     11 CL   UNL d   1      25.165 -14.830  -2.281  0.00  0.00    -0.084 Cl
ATOM     12  C   UNL d   1      22.555 -15.950  -1.240  0.00  0.00     0.052 C 
ENDBRANCH   1   5
BRANCH   2  13
ATOM     13  C   UNL d   1      20.137 -19.325   0.444  0.00  0.00     0.065 A 
ATOM     14  C   UNL d   1      20.280 -19.551   1.831  0.00  0.00     0.020 A 
ATOM     15  C   UNL d   1      19.454 -20.450   2.483  0.00  0.00     0.001 A 
ATOM     16  C   UNL d   1      18.500 -21.137   1.740  0.00  0.00     0.003 A 
ATOM     17  C   UNL d   1      18.382 -20.942   0.352  0.00  0.00     0.037 A 
ATOM     18  C   UNL d   1      19.205 -20.028  -0.301  0.00  0.00     0.081 A 
BRANCH  18  19
ATOM     19  O   UNL d   1      19.155 -19.850  -1.653  0.00  0.00    -0.360 OA
ATOM     20  H   UNL d   1      18.855 -18.950  -1.856  0.00  0.00     0.217 HD
ENDBRANCH  18  19
ENDBRANCH   2  13
TORSDOF 3
ENDMDL
MODEL 2
REMARK VINA RESULT:    -8.452      1.280      2.012
REMARK INTER + INTRA:         -10.212
REMARK INTER:                  -9.347
REMARK INTRA:                  -0.865
REMARK CONF_INDEPENDENT:        0.895
REMARK UNBOUND:                -0.865
REMARK  3 active torsions:
REMARK  status: ('A' for Active; 'I' for Inactive)
REMARK    1  A    between atoms: C_8  and  N_9 
REMARK       I    between atoms: N_9  and  C_10 
REMARK    2  A    between atoms: C_10  and  C_12 
REMARK    3  A    between atoms: C_17  and  O_18 
ROOT
ATOM      1  N   UNL d   1      22.558 -17.665  -0.113  0.00  0.00    -0.322 N 
ATOM      2  C   UNL d   1      21.782 -18.676  -0.662  0.00  0.00     0.259 C 
ATOM      3  O   UNL d   1      21.891 -19.289  -1.722  0.00  0.00    -0.267 OA
ATOM      4  H   UNL d   1      22.183 -17.254   0.739  0.00  0.00     0.169 HD
ENDROOT
BRANCH   1   5
ATOM      5  C   UNL d   1      23.778 -17.085  -0.613  0.00  0.00     0.042 A 
ATOM      6  C   UNL d   1      23.654 -16.083  -1.606  0.00  0.00     0.030 A 
ATOM      7  C   UNL d   1      24.783 -15.446  -2.150  0.00  0.00     0.004 A 
ATOM      8  C   UNL d   1      26.055 -15.790  -1.715  0.00  0.00     0.024 A 
ATOM      9  C   UNL d   1      26.208 -16.767  -0.743  0.00  0.00     0.042 A 
ATOM     10  C   UNL d   1      25.092 -17.424  -0.189  0.00  0.00    -0.013 A 
ATOM     11 CL   UNL d   1      27.834 -17.122  -0.251  0.00  0.00    -0.084 Cl
ATOM     12  C   UNL d   1      25.356 -18.475   0.835  0.00  0.00     0.052 C 
ENDBRANCH   1   5
BRANCH   2  13
ATOM     13  C   UNL d   1      20.605 -19.177   0.029  0.00  0.00     0.065 A 
ATOM     14  C   UNL d   1      20.735 -19.325   1.428  0.00  0.00     0.020 A 
ATOM     15  C   UNL d   1      19.799 -20.048   2.146  0.00  0.00     0.001 A 
ATOM     16  C   UNL d   1      18.745 -20.641   1.458  0.00  0.00     0.003 A 
ATOM     17  C   UNL d   1      18.636 -20.527   0.060  0.00  0.00     0.037 A 
ATOM     18  C   UNL d   1      19.571 -19.788  -0.660  0.00  0.00     0.081 A 
BRANCH  18  19
ATOM     19  O   UNL d   1      19.526 -19.700  -2.021  0.00  0.00    -0.360 OA
ATOM     20  H   UNL d   1      20.301 -19.213  -2.344  0.00  0.00     0.217 HD
ENDBRANCH  18  19
ENDBRANCH   2  13
TORSDOF 3
ENDMDL
MODEL 3
REMARK VINA RESULT:    -6.503      4.878      8.765
REMARK INTER + INTRA:          -8.335
REMARK INTER:                  -7.398
REMARK INTRA:                  -0.937
REMARK CONF_INDEPENDENT:        0.895
REMARK UNBOUND:                -0.937
REMARK  3 active torsions:
REMARK  status: ('A' for Active; 'I' for Inactive)
REMARK    1  A    between atoms: C_8  and  N_9 
REMARK       I    between atoms: N_9  and  C_10 
REMARK    2  A    between atoms: C_10  and  C_12 
REMARK    3  A    between atoms: C_17  and  O_18 
ROOT
ATOM      1  N   UNL d   1      26.399 -15.332  -3.193  0.00  0.00    -0.322 N 
ATOM      2  C   UNL d   1      25.775 -14.511  -4.122  0.00  0.00     0.259 C 
ATOM      3  O   UNL d   1      24.585 -14.264  -4.308  0.00  0.00    -0.267 OA
ATOM      4  H   UNL d   1      27.402 -15.440  -3.325  0.00  0.00     0.169 HD
ENDROOT
BRANCH   1   5
ATOM      5  C   UNL d   1      25.815 -16.088  -2.115  0.00  0.00     0.042 A 
ATOM      6  C   UNL d   1      24.404 -16.056  -1.998  0.00  0.00     0.030 A 
ATOM      7  C   UNL d   1      23.736 -16.772  -0.989  0.00  0.00     0.004 A 
ATOM      8  C   UNL d   1      24.456 -17.534  -0.081  0.00  0.00     0.024 A 
ATOM      9  C   UNL d   1      25.839 -17.585  -0.171  0.00  0.00     0.042 A 
ATOM     10  C   UNL d   1      26.530 -16.871  -1.170  0.00  0.00    -0.013 A 
ATOM     11 CL   UNL d   1      26.655 -18.575   0.998  0.00  0.00    -0.084 Cl
ATOM     12  C   UNL d   1      28.018 -16.972  -1.175  0.00  0.00     0.052 C 
ENDBRANCH   1   5
BRANCH   2  13
ATOM     13  C   UNL d   1      26.548 -13.771  -5.107  0.00  0.00     0.065 A 
ATOM     14  C   UNL d   1      27.570 -14.501  -5.755  0.00  0.00     0.020 A 
ATOM     15  C   UNL d   1      28.540 -13.844  -6.491  0.00  0.00     0.001 A 
ATOM     16  C   UNL d   1      28.499 -12.455  -6.559  0.00  0.00     0.003 A 
ATOM     17  C   UNL d   1      27.504 -11.725  -5.883  0.00  0.00     0.037 A 
ATOM     18  C   UNL d   1      26.520 -12.387  -5.153  0.00  0.00     0.081 A 
BRANCH  18  19
ATOM     19  O   UNL d   1      25.572 -11.711  -4.443  0.00  0.00    -0.360 OA
ATOM     20  H   UNL d   1      24.704 -12.125  -4.575  0.00  0.00     0.217 HD
ENDBRANCH  18  19
ENDBRANCH   2  13
TORSDOF 3
ENDMDL
MODEL 4
REMARK VINA RESULT:    -6.425      4.721      8.237
REMARK INTER + INTRA:          -8.307
REMARK INTER:                  -7.319
REMARK INTRA:                  -0.987
REMARK CONF_INDEPENDENT:        0.895
REMARK UNBOUND:                -0.987
REMARK  3 active torsions:
REMARK  status: ('A' for Active; 'I' for Inactive)
REMARK    1  A    between atoms: C_8  and  N_9 
REMARK       I    between atoms: N_9  and  C_10 
REMARK    2  A    between atoms: C_10  and  C_12 
REMARK    3  A    between atoms: C_17  and  O_18 
ROOT
ATOM      1  N   UNL d   1      26.573 -15.222  -2.229  0.00  0.00    -0.322 N 
ATOM      2  C   UNL d   1      26.197 -14.955  -3.538  0.00  0.00     0.259 C 
ATOM      3  O   UNL d   1      25.487 -15.587  -4.317  0.00  0.00    -0.267 OA
ATOM      4  H   UNL d   1      27.261 -14.580  -1.844  0.00  0.00     0.169 HD
ENDROOT
BRANCH   1   5
ATOM      5  C   UNL d   1      26.169 -16.308  -1.374  0.00  0.00     0.042 A 
ATOM      6  C   UNL d   1      27.199 -17.076  -0.779  0.00  0.00     0.030 A 
ATOM      7  C   UNL d   1      26.910 -18.149   0.082  0.00  0.00     0.004 A 
ATOM      8  C   UNL d   1      25.593 -18.477   0.370  0.00  0.00     0.024 A 
ATOM      9  C   UNL d   1      24.563 -17.743  -0.198  0.00  0.00     0.042 A 
ATOM     10  C   UNL d   1      24.828 -16.668  -1.068  0.00  0.00    -0.013 A 
ATOM     11 CL   UNL d   1      22.949 -18.216   0.230  0.00  0.00    -0.084 Cl
ATOM     12  C   UNL d   1      23.655 -15.950  -1.645  0.00  0.00     0.052 C 
ENDBRANCH   1   5
BRANCH   2  13
ATOM     13  C   UNL d   1      26.665 -13.761  -4.224  0.00  0.00     0.065 A 
ATOM     14  C   UNL d   1      26.132 -12.539  -3.757  0.00  0.00     0.020 A 
ATOM     15  C   UNL d   1      26.278 -11.381  -4.500  0.00  0.00     0.001 A 
ATOM     16  C   UNL d   1      26.941 -11.453  -5.721  0.00  0.00     0.003 A 
ATOM     17  C   UNL d   1      27.438 -12.676  -6.205  0.00  0.00     0.037 A 
ATOM     18  C   UNL d   1      27.302 -13.839  -5.451  0.00  0.00     0.081 A 
BRANCH  18  19
ATOM     19  O   UNL d   1      27.726 -15.051  -5.912  0.00  0.00    -0.360 OA
ATOM     20  H   UNL d   1      27.086 -15.738  -5.666  0.00  0.00     0.217 HD
ENDBRANCH  18  19
ENDBRANCH   2  13
TORSDOF 3
ENDMDL
MODEL 5
REMARK VINA RESULT:    -6.417      2.871      6.526
REMARK INTER + INTRA:          -8.311
REMARK INTER:                  -7.312
REMARK INTRA:                  -0.999
REMARK CONF_INDEPENDENT:        0.895
REMARK UNBOUND:                -0.999
REMARK  3 active torsions:
REMARK  status: ('A' for Active; 'I' for Inactive)
REMARK    1  A    between atoms: C_8  and  N_9 
REMARK       I    between atoms: N_9  and  C_10 
REMARK    2  A    between atoms: C_10  and  C_12 
REMARK    3  A    between atoms: C_17  and  O_18 
ROOT
ATOM      1  N   UNL d   1      21.814 -18.316   0.666  0.00  0.00    -0.322 N 
ATOM      2  C   UNL d   1      22.886 -18.601  -0.169  0.00  0.00     0.259 C 
ATOM      3  O   UNL d   1      23.223 -19.648  -0.718  0.00  0.00    -0.267 OA
ATOM      4  H   UNL d   1      21.827 -17.383   1.071  0.00  0.00     0.169 HD
ENDROOT
BRANCH   1   5
ATOM      5  C   UNL d   1      20.733 -19.174   1.077  0.00  0.00     0.042 A 
ATOM      6  C   UNL d   1      20.655 -19.495   2.454  0.00  0.00     0.030 A 
ATOM      7  C   UNL d   1      19.629 -20.314   2.959  0.00  0.00     0.004 A 
ATOM      8  C   UNL d   1      18.662 -20.825   2.106  0.00  0.00     0.024 A 
ATOM      9  C   UNL d   1      18.713 -20.528   0.753  0.00  0.00     0.042 A 
ATOM     10  C   UNL d   1      19.734 -19.715   0.223  0.00  0.00    -0.013 A 
ATOM     11 CL   UNL d   1      17.454 -21.200  -0.236  0.00  0.00    -0.084 Cl
ATOM     12  C   UNL d   1      19.717 -19.467  -1.247  0.00  0.00     0.052 C 
ENDBRANCH   1   5
BRANCH   2  13
ATOM     13  C   UNL d   1      23.854 -17.575  -0.523  0.00  0.00     0.065 A 
ATOM     14  C   UNL d   1      23.345 -16.483  -1.261  0.00  0.00     0.020 A 
ATOM     15  C   UNL d   1      24.206 -15.601  -1.891  0.00  0.00     0.001 A 
ATOM     16  C   UNL d   1      25.576 -15.827  -1.798  0.00  0.00     0.003 A 
ATOM     17  C   UNL d   1      26.082 -16.935  -1.096  0.00  0.00     0.037 A 
ATOM     18  C   UNL d   1      25.217 -17.815  -0.451  0.00  0.00     0.081 A 
BRANCH  18  19
ATOM     19  O   UNL d   1      25.669 -18.928   0.195  0.00  0.00    -0.360 OA
ATOM     20  H   UNL d   1      25.212 -19.714  -0.145  0.00  0.00     0.217 HD
ENDBRANCH  18  19
ENDBRANCH   2  13
TORSDOF 3
ENDMDL
