MODEL 1
REMARK VINA RESULT:    -8.341      0.000      0.000
REMARK INTER + INTRA:         -11.632
REMARK INTER:                 -10.429
REMARK INTRA:                  -1.203
REMARK CONF_INDEPENDENT:        2.088
REMARK UNBOUND:                -1.203
REMARK  7 active torsions:
REMARK  status: ('A' for Active; 'I' for Inactive)
REMARK    1  A    between atoms: C_4  and  S_5 
REMARK    2  A    between atoms: S_5  and  N_6 
REMARK    3  A    between atoms: C_10  and  N_11 
REMARK       I    between atoms: N_11  and  C_12 
REMARK    4  A    between atoms: C_12  and  C_14 
REMARK    5  A    between atoms: C_14  and  O_15 
REMARK    6  A    between atoms: O_15  and  C_16 
REMARK    7  A    between atoms: C_19  and  N_20 
ROOT
ATOM      1  N   UNL d   1      26.068 -15.980  -2.990  0.00  0.00    -0.325 N 
ATOM      2  C   UNL d   1      25.434 -14.868  -3.552  0.00  0.00     0.246 C 
ATOM      3  O   UNL d   1      24.362 -14.404  -3.161  0.00  0.00    -0.271 OA
ATOM      4  H   UNL d   1      26.954 -16.263  -3.387  0.00  0.00     0.169 HD
ENDROOT
BRANCH   1   5
ATOM      5  C   UNL d   1      25.561 -16.754  -1.892  0.00  0.00     0.042 A 
ATOM      6  C   UNL d   1      24.192 -17.065  -1.824  0.00  0.00     0.055 A 
ATOM      7  C   UNL d   1      23.644 -17.830  -0.799  0.00  0.00     0.082 A 
ATOM      8  C   UNL d   1      24.450 -18.297   0.224  0.00  0.00     0.032 A 
ATOM      9  C   UNL d   1      25.825 -18.006   0.213  0.00  0.00    -0.052 A 
ATOM     10  C   UNL d   1      26.652 -18.537   1.360  0.00  0.00     0.049 C 
ATOM     11  C   UNL d   1      26.402 -17.243  -0.855  0.00  0.00    -0.029 A 
ATOM     12  C   UNL d   1      27.897 -17.011  -0.825  0.00  0.00     0.051 C 
BRANCH   7  13
ATOM     13  S   UNL d   1      21.918 -18.239  -0.876  0.00  0.00     0.256 S 
ATOM     14  O   UNL d   1      21.176 -17.002  -0.977  0.00  0.00    -0.201 OA
ATOM     15  O   UNL d   1      21.753 -19.325  -1.809  0.00  0.00    -0.201 OA
BRANCH  13  16
ATOM     16  N   UNL d   1      21.635 -18.869   0.643  0.00  0.00    -0.324 N 
ATOM     17  H   UNL d   1      21.410 -18.196   1.372  0.00  0.00     0.169 HD
ATOM     18  H   UNL d   1      22.131 -19.723   0.874  0.00  0.00     0.169 HD
ENDBRANCH  13  16
ENDBRANCH   7  13
ENDBRANCH   1   5
BRANCH   2  19
ATOM     19  C   UNL d   1      26.147 -14.193  -4.730  0.00  0.00     0.278 C 
BRANCH  19  20
ATOM     20  O   UNL d   1      26.871 -15.248  -5.391  0.00  0.00    -0.342 OA
BRANCH  20  21
ATOM     21  C   UNL d   1      28.109 -14.969  -5.878  0.00  0.00     0.072 A 
ATOM     22  C   UNL d   1      28.363 -13.988  -6.829  0.00  0.00     0.039 A 
ATOM     23  C   UNL d   1      29.677 -13.744  -7.248  0.00  0.00     0.042 A 
ATOM     24  C   UNL d   1      30.739 -14.484  -6.700  0.00  0.00     0.141 A 
ATOM     25  C   UNL d   1      30.482 -15.435  -5.716  0.00  0.00     0.151 A 
ATOM     26  F   UNL d   1      31.455 -16.160  -5.150  0.00  0.00    -0.203 F 
ATOM     27  C   UNL d   1      29.173 -15.664  -5.294  0.00  0.00     0.081 A 
BRANCH  24  28
ATOM     28  N   UNL d   1      32.103 -14.251  -7.175  0.00  0.00    -0.113 N 
ATOM     29  O   UNL d   1      32.796 -13.449  -6.531  0.00  0.00    -0.532 OA
ATOM     30  O   UNL d   1      32.494 -14.845  -8.187  0.00  0.00    -0.532 OA
ENDBRANCH  24  28
ENDBRANCH  20  21
ENDBRANCH  19  20
ENDBRANCH   2  19
TORSDOF 7
ENDMDL
MODEL 2
REMARK VINA RESULT:    -8.300      0.902      1.294
REMARK INTER + INTRA:         -11.632
REMARK INTER:                 -10.388
REMARK INTRA:                  -1.244
REMARK CONF_INDEPENDENT:        2.088
REMARK UNBOUND:                -1.244
REMARK  7 active torsions:
REMARK  status: ('A' for Active; 'I' for Inactive)
REMARK    1  A    between atoms: C_4  and  S_5 
REMARK    2  A    between atoms: S_5  and  N_6 
REMARK    3  A    between atoms: C_10  and  N_11 
REMARK       I    between atoms: N_11  and  C_12 
REMARK    4  A    between atoms: C_12  and  C_14 
REMARK    5  A    between atoms: C_14  and  O_15 
REMARK    6  A    between atoms: O_15  and  C_16 
REMARK    7  A    between atoms: C_19  and  N_20 
ROOT
ATOM      1  N   UNL d   1      26.021 -15.982  -3.022  0.00  0.00    -0.325 N 
ATOM      2  C   UNL d   1      25.401 -14.849  -3.558  0.00  0.00     0.246 C 
ATOM      3  O   UNL d   1      24.356 -14.356  -3.131  0.00  0.00    -0.271 OA
ATOM      4  H   UNL d   1      26.884 -16.288  -3.448  0.00  0.00     0.169 HD
ENDROOT
BRANCH   1   5
ATOM      5  C   UNL d   1      25.527 -16.747  -1.911  0.00  0.00     0.042 A 
ATOM      6  C   UNL d   1      24.160 -17.062  -1.827  0.00  0.00     0.055 A 
ATOM      7  C   UNL d   1      23.624 -17.819  -0.789  0.00  0.00     0.082 A 
ATOM      8  C   UNL d   1      24.441 -18.273   0.230  0.00  0.00     0.032 A 
ATOM      9  C   UNL d   1      25.815 -17.976   0.204  0.00  0.00    -0.052 A 
ATOM     10  C   UNL d   1      26.655 -18.493   1.348  0.00  0.00     0.049 C 
ATOM     11  C   UNL d   1      26.379 -17.222  -0.878  0.00  0.00    -0.029 A 
ATOM     12  C   UNL d   1      27.873 -16.985  -0.865  0.00  0.00     0.051 C 
BRANCH   7  13
ATOM     13  S   UNL d   1      21.899 -18.234  -0.846  0.00  0.00     0.256 S 
ATOM     14  O   UNL d   1      21.151 -17.001  -0.943  0.00  0.00    -0.201 OA
ATOM     15  O   UNL d   1      21.728 -19.325  -1.774  0.00  0.00    -0.201 OA
BRANCH  13  16
ATOM     16  N   UNL d   1      21.636 -18.861   0.678  0.00  0.00    -0.324 N 
ATOM     17  H   UNL d   1      21.408 -18.187   1.406  0.00  0.00     0.169 HD
ATOM     18  H   UNL d   1      22.144 -19.708   0.909  0.00  0.00     0.169 HD
ENDBRANCH  13  16
ENDBRANCH   7  13
ENDBRANCH   1   5
BRANCH   2  19
ATOM     19  C   UNL d   1      26.095 -14.189  -4.756  0.00  0.00     0.278 C 
BRANCH  19  20
ATOM     20  O   UNL d   1      26.779 -15.258  -5.436  0.00  0.00    -0.342 OA
BRANCH  20  21
ATOM     21  C   UNL d   1      28.108 -15.116  -5.681  0.00  0.00     0.072 A 
ATOM     22  C   UNL d   1      29.087 -15.941  -5.139  0.00  0.00     0.039 A 
ATOM     23  C   UNL d   1      30.433 -15.743  -5.475  0.00  0.00     0.042 A 
ATOM     24  C   UNL d   1      30.792 -14.717  -6.366  0.00  0.00     0.141 A 
ATOM     25  C   UNL d   1      29.803 -13.922  -6.938  0.00  0.00     0.151 A 
ATOM     26  F   UNL d   1      30.085 -12.939  -7.803  0.00  0.00    -0.203 F 
ATOM     27  C   UNL d   1      28.463 -14.133  -6.610  0.00  0.00     0.081 A 
BRANCH  24  28
ATOM     28  N   UNL d   1      32.203 -14.491  -6.677  0.00  0.00    -0.113 N 
ATOM     29  O   UNL d   1      32.651 -13.353  -6.470  0.00  0.00    -0.532 OA
ATOM     30  O   UNL d   1      32.872 -15.424  -7.135  0.00  0.00    -0.532 OA
ENDBRANCH  24  28
ENDBRANCH  20  21
ENDBRANCH  19  20
ENDBRANCH   2  19
TORSDOF 7
ENDMDL
MODEL 3
REMARK VINA RESULT:    -8.160      1.428      1.618
REMARK INTER + INTRA:         -11.598
REMARK INTER:                 -10.248
REMARK INTRA:                  -1.350
REMARK CONF_INDEPENDENT:        2.088
REMARK UNBOUND:                -1.350
REMARK  7 active torsions:
REMARK  status: ('A' for Active; 'I' for Inactive)
REMARK    1  A    between atoms: C_4  and  S_5 
REMARK    2  A    between atoms: S_5  and  N_6 
REMARK    3  A    between atoms: C_10  and  N_11 
REMARK       I    between atoms: N_11  and  C_12 
REMARK    4  A    between atoms: C_12  and  C_14 
REMARK    5  A    between atoms: C_14  and  O_15 
REMARK    6  A    between atoms: O_15  and  C_16 
REMARK    7  A    between atoms: C_19  and  N_20 
ROOT
ATOM      1  N   UNL d   1      25.752 -15.212  -2.491  0.00  0.00    -0.325 N 
ATOM      2  C   UNL d   1      24.889 -14.387  -3.219  0.00  0.00     0.246 C 
ATOM      3  O   UNL d   1      23.660 -14.434  -3.157  0.00  0.00    -0.271 OA
ATOM      4  H   UNL d   1      26.745 -15.073  -2.614  0.00  0.00     0.169 HD
ENDROOT
BRANCH   1   5
ATOM      5  C   UNL d   1      25.338 -16.243  -1.581  0.00  0.00     0.042 A 
ATOM      6  C   UNL d   1      24.003 -16.681  -1.575  0.00  0.00     0.055 A 
ATOM      7  C   UNL d   1      23.546 -17.691  -0.734  0.00  0.00     0.082 A 
ATOM      8  C   UNL d   1      24.412 -18.292   0.161  0.00  0.00     0.032 A 
ATOM      9  C   UNL d   1      25.756 -17.885   0.207  0.00  0.00    -0.052 A 
ATOM     10  C   UNL d   1      26.651 -18.572   1.210  0.00  0.00     0.049 C 
ATOM     11  C   UNL d   1      26.241 -16.865  -0.677  0.00  0.00    -0.029 A 
ATOM     12  C   UNL d   1      27.712 -16.514  -0.605  0.00  0.00     0.051 C 
BRANCH   7  13
ATOM     13  S   UNL d   1      21.859 -18.224  -0.889  0.00  0.00     0.256 S 
ATOM     14  O   UNL d   1      21.036 -17.045  -1.035  0.00  0.00    -0.201 OA
ATOM     15  O   UNL d   1      21.818 -19.325  -1.820  0.00  0.00    -0.201 OA
BRANCH  13  16
ATOM     16  N   UNL d   1      21.551 -18.866   0.620  0.00  0.00    -0.324 N 
ATOM     17  H   UNL d   1      21.459 -18.197   1.381  0.00  0.00     0.169 HD
ATOM     18  H   UNL d   1      21.923 -19.792   0.798  0.00  0.00     0.169 HD
ENDBRANCH  13  16
ENDBRANCH   7  13
ENDBRANCH   1   5
BRANCH   2  19
ATOM     19  C   UNL d   1      25.546 -13.355  -4.146  0.00  0.00     0.278 C 
BRANCH  19  20
ATOM     20  O   UNL d   1      26.944 -13.371  -3.803  0.00  0.00    -0.342 OA
BRANCH  20  21
ATOM     21  C   UNL d   1      27.768 -14.191  -4.507  0.00  0.00     0.072 A 
ATOM     22  C   UNL d   1      27.783 -14.266  -5.896  0.00  0.00     0.039 A 
ATOM     23  C   UNL d   1      28.691 -15.114  -6.540  0.00  0.00     0.042 A 
ATOM     24  C   UNL d   1      29.593 -15.883  -5.785  0.00  0.00     0.141 A 
ATOM     25  C   UNL d   1      29.603 -15.771  -4.397  0.00  0.00     0.151 A 
ATOM     26  F   UNL d   1      30.448 -16.468  -3.628  0.00  0.00    -0.203 F 
ATOM     27  C   UNL d   1      28.704 -14.914  -3.762  0.00  0.00     0.081 A 
BRANCH  24  28
ATOM     28  N   UNL d   1      30.510 -16.798  -6.465  0.00  0.00    -0.113 N 
ATOM     29  O   UNL d   1      30.671 -17.917  -5.956  0.00  0.00    -0.532 OA
ATOM     30  O   UNL d   1      31.082 -16.419  -7.493  0.00  0.00    -0.532 OA
ENDBRANCH  24  28
ENDBRANCH  20  21
ENDBRANCH  19  20
ENDBRANCH   2  19
TORSDOF 7
ENDMDL
MODEL 4
REMARK VINA RESULT:    -7.936      4.511      6.006
REMARK INTER + INTRA:         -11.290
REMARK INTER:                 -10.024
REMARK INTRA:                  -1.266
REMARK CONF_INDEPENDENT:        2.088
REMARK UNBOUND:                -1.266
REMARK  7 active torsions:
REMARK  status: ('A' for Active; 'I' for Inactive)
REMARK    1  A    between atoms: C_4  and  S_5 
REMARK    2  A    between atoms: S_5  and  N_6 
REMARK    3  A    between atoms: C_10  and  N_11 
REMARK       I    between atoms: N_11  and  C_12 
REMARK    4  A    between atoms: C_12  and  C_14 
REMARK    5  A    between atoms: C_14  and  O_15 
REMARK    6  A    between atoms: O_15  and  C_16 
REMARK    7  A    between atoms: C_19  and  N_20 
ROOT
ATOM      1  N   UNL d   1      25.755 -14.547  -1.583  0.00  0.00    -0.325 N 
ATOM      2  C   UNL d   1      25.531 -14.124  -2.897  0.00  0.00     0.246 C 
ATOM      3  O   UNL d   1      25.018 -14.818  -3.776  0.00  0.00    -0.271 OA
ATOM      4  H   UNL d   1      26.172 -13.884  -0.944  0.00  0.00     0.169 HD
ENDROOT
BRANCH   1   5
ATOM      5  C   UNL d   1      25.440 -15.850  -1.068  0.00  0.00     0.042 A 
ATOM      6  C   UNL d   1      24.117 -16.322  -1.113  0.00  0.00     0.055 A 
ATOM      7  C   UNL d   1      23.752 -17.583  -0.652  0.00  0.00     0.082 A 
ATOM      8  C   UNL d   1      24.703 -18.421  -0.098  0.00  0.00     0.032 A 
ATOM      9  C   UNL d   1      26.040 -17.995  -0.016  0.00  0.00    -0.052 A 
ATOM     10  C   UNL d   1      27.031 -18.949   0.605  0.00  0.00     0.049 C 
ATOM     11  C   UNL d   1      26.429 -16.708  -0.516  0.00  0.00    -0.029 A 
ATOM     12  C   UNL d   1      27.894 -16.339  -0.440  0.00  0.00     0.051 C 
BRANCH   7  13
ATOM     13  S   UNL d   1      22.066 -18.104  -0.853  0.00  0.00     0.256 S 
ATOM     14  O   UNL d   1      21.246 -16.917  -0.947  0.00  0.00    -0.201 OA
ATOM     15  O   UNL d   1      22.034 -19.154  -1.841  0.00  0.00    -0.201 OA
BRANCH  13  16
ATOM     16  N   UNL d   1      21.740 -18.824   0.616  0.00  0.00    -0.324 N 
ATOM     17  H   UNL d   1      21.761 -19.842   0.631  0.00  0.00     0.169 HD
ATOM     18  H   UNL d   1      21.115 -18.318   1.234  0.00  0.00     0.169 HD
ENDBRANCH  13  16
ENDBRANCH   7  13
ENDBRANCH   1   5
BRANCH   2  19
ATOM     19  C   UNL d   1      25.956 -12.691  -3.239  0.00  0.00     0.278 C 
BRANCH  19  20
ATOM     20  O   UNL d   1      27.128 -12.440  -2.441  0.00  0.00    -0.342 OA
BRANCH  20  21
ATOM     21  C   UNL d   1      27.040 -11.525  -1.440  0.00  0.00     0.072 A 
ATOM     22  C   UNL d   1      27.094 -11.848  -0.089  0.00  0.00     0.039 A 
ATOM     23  C   UNL d   1      27.030 -10.835   0.876  0.00  0.00     0.042 A 
ATOM     24  C   UNL d   1      26.920  -9.492   0.478  0.00  0.00     0.141 A 
ATOM     25  C   UNL d   1      26.910  -9.171  -0.877  0.00  0.00     0.151 A 
ATOM     26  F   UNL d   1      26.820  -7.908  -1.314  0.00  0.00    -0.203 F 
ATOM     27  C   UNL d   1      26.987 -10.184  -1.833  0.00  0.00     0.081 A 
BRANCH  24  28
ATOM     28  N   UNL d   1      26.811  -8.443   1.493  0.00  0.00    -0.113 N 
ATOM     29  O   UNL d   1      25.673  -8.174   1.906  0.00  0.00    -0.532 OA
ATOM     30  O   UNL d   1      27.838  -7.874   1.878  0.00  0.00    -0.532 OA
ENDBRANCH  24  28
ENDBRANCH  20  21
ENDBRANCH  19  20
ENDBRANCH   2  19
TORSDOF 7
ENDMDL
MODEL 5
REMARK VINA RESULT:    -7.899      4.215      5.153
REMARK INTER + INTRA:         -11.225
REMARK INTER:                  -9.987
REMARK INTRA:                  -1.238
REMARK CONF_INDEPENDENT:        2.088
REMARK UNBOUND:                -1.238
REMARK  7 active torsions:
REMARK  status: ('A' for Active; 'I' for Inactive)
REMARK    1  A    between atoms: C_4  and  S_5 
REMARK    2  A    between atoms: S_5  and  N_6 
REMARK    3  A    between atoms: C_10  and  N_11 
REMARK       I    between atoms: N_11  and  C_12 
REMARK    4  A    between atoms: C_12  and  C_14 
REMARK    5  A    between atoms: C_14  and  O_15 
REMARK    6  A    between atoms: O_15  and  C_16 
REMARK    7  A    between atoms: C_19  and  N_20 
ROOT
ATOM      1  N   UNL d   1      25.407 -14.754  -2.567  0.00  0.00    -0.325 N 
ATOM      2  C   UNL d   1      25.576 -14.777  -3.956  0.00  0.00     0.246 C 
ATOM      3  O   UNL d   1      25.529 -15.794  -4.648  0.00  0.00    -0.271 OA
ATOM      4  H   UNL d   1      25.454 -13.856  -2.107  0.00  0.00     0.169 HD
ENDROOT
BRANCH   1   5
ATOM      5  C   UNL d   1      25.173 -15.907  -1.744  0.00  0.00     0.042 A 
ATOM      6  C   UNL d   1      23.878 -16.442  -1.636  0.00  0.00     0.055 A 
ATOM      7  C   UNL d   1      23.591 -17.569  -0.873  0.00  0.00     0.082 A 
ATOM      8  C   UNL d   1      24.596 -18.198  -0.159  0.00  0.00     0.032 A 
ATOM      9  C   UNL d   1      25.909 -17.698  -0.221  0.00  0.00    -0.052 A 
ATOM     10  C   UNL d   1      26.961 -18.421   0.585  0.00  0.00     0.049 C 
ATOM     11  C   UNL d   1      26.217 -16.553  -1.028  0.00  0.00    -0.029 A 
ATOM     12  C   UNL d   1      27.660 -16.103  -1.086  0.00  0.00     0.051 C 
BRANCH   7  13
ATOM     13  S   UNL d   1      21.935 -18.209  -0.894  0.00  0.00     0.256 S 
ATOM     14  O   UNL d   1      21.030 -17.085  -0.992  0.00  0.00    -0.201 OA
ATOM     15  O   UNL d   1      21.894 -19.325  -1.806  0.00  0.00    -0.201 OA
BRANCH  13  16
ATOM     16  N   UNL d   1      21.780 -18.843   0.642  0.00  0.00    -0.324 N 
ATOM     17  H   UNL d   1      21.434 -18.207   1.356  0.00  0.00     0.169 HD
ATOM     18  H   UNL d   1      22.429 -19.583   0.889  0.00  0.00     0.169 HD
ENDBRANCH  13  16
ENDBRANCH   7  13
ENDBRANCH   1   5
BRANCH   2  19
ATOM     19  C   UNL d   1      25.829 -13.427  -4.639  0.00  0.00     0.278 C 
BRANCH  19  20
ATOM     20  O   UNL d   1      25.877 -12.463  -3.571  0.00  0.00    -0.342 OA
BRANCH  20  21
ATOM     21  C   UNL d   1      25.930 -11.145  -3.898  0.00  0.00     0.072 A 
ATOM     22  C   UNL d   1      25.906 -10.671  -5.205  0.00  0.00     0.039 A 
ATOM     23  C   UNL d   1      25.928  -9.292  -5.450  0.00  0.00     0.042 A 
ATOM     24  C   UNL d   1      25.966  -8.388  -4.375  0.00  0.00     0.141 A 
ATOM     25  C   UNL d   1      25.946  -8.868  -3.068  0.00  0.00     0.151 A 
ATOM     26  F   UNL d   1      25.967  -8.052  -2.005  0.00  0.00    -0.203 F 
ATOM     27  C   UNL d   1      25.910 -10.241  -2.831  0.00  0.00     0.081 A 
BRANCH  24  28
ATOM     28  N   UNL d   1      26.033  -6.951  -4.641  0.00  0.00    -0.113 N 
ATOM     29  O   UNL d   1      24.993  -6.401  -5.034  0.00  0.00    -0.532 OA
ATOM     30  O   UNL d   1      27.107  -6.361  -4.478  0.00  0.00    -0.532 OA
ENDBRANCH  24  28
ENDBRANCH  20  21
ENDBRANCH  19  20
ENDBRANCH   2  19
TORSDOF 7
ENDMDL
MODEL 6
REMARK VINA RESULT:    -7.892      4.186      5.452
REMARK INTER + INTRA:         -11.108
REMARK INTER:                  -9.980
REMARK INTRA:                  -1.129
REMARK CONF_INDEPENDENT:        2.088
REMARK UNBOUND:                -1.129
REMARK  7 active torsions:
REMARK  status: ('A' for Active; 'I' for Inactive)
REMARK    1  A    between atoms: C_4  and  S_5 
REMARK    2  A    between atoms: S_5  and  N_6 
REMARK    3  A    between atoms: C_10  and  N_11 
REMARK       I    between atoms: N_11  and  C_12 
REMARK    4  A    between atoms: C_12  and  C_14 
REMARK    5  A    between atoms: C_14  and  O_15 
REMARK    6  A    between atoms: O_15  and  C_16 
REMARK    7  A    between atoms: C_19  and  N_20 
ROOT
ATOM      1  N   UNL d   1      25.443 -14.655  -2.215  0.00  0.00    -0.325 N 
ATOM      2  C   UNL d   1      25.416 -14.512  -3.607  0.00  0.00     0.246 C 
ATOM      3  O   UNL d   1      25.156 -15.420  -4.397  0.00  0.00    -0.271 OA
ATOM      4  H   UNL d   1      25.656 -13.834  -1.666  0.00  0.00     0.169 HD
ENDROOT
BRANCH   1   5
ATOM      5  C   UNL d   1      25.191 -15.877  -1.505  0.00  0.00     0.042 A 
ATOM      6  C   UNL d   1      23.890 -16.407  -1.457  0.00  0.00     0.055 A 
ATOM      7  C   UNL d   1      23.587 -17.598  -0.805  0.00  0.00     0.082 A 
ATOM      8  C   UNL d   1      24.580 -18.300  -0.146  0.00  0.00     0.032 A 
ATOM      9  C   UNL d   1      25.897 -17.810  -0.151  0.00  0.00    -0.052 A 
ATOM     10  C   UNL d   1      26.936 -18.615   0.592  0.00  0.00     0.049 C 
ATOM     11  C   UNL d   1      26.223 -16.598  -0.845  0.00  0.00    -0.029 A 
ATOM     12  C   UNL d   1      27.671 -16.158  -0.849  0.00  0.00     0.051 C 
BRANCH   7  13
ATOM     13  S   UNL d   1      21.925 -18.217  -0.898  0.00  0.00     0.256 S 
ATOM     14  O   UNL d   1      21.037 -17.080  -1.007  0.00  0.00    -0.201 OA
ATOM     15  O   UNL d   1      21.904 -19.315  -1.833  0.00  0.00    -0.201 OA
BRANCH  13  16
ATOM     16  N   UNL d   1      21.707 -18.878   0.618  0.00  0.00    -0.324 N 
ATOM     17  H   UNL d   1      21.913 -19.871   0.707  0.00  0.00     0.169 HD
ATOM     18  H   UNL d   1      20.989 -18.453   1.194  0.00  0.00     0.169 HD
ENDBRANCH  13  16
ENDBRANCH   7  13
ENDBRANCH   1   5
BRANCH   2  19
ATOM     19  C   UNL d   1      25.728 -13.115  -4.159  0.00  0.00     0.278 C 
BRANCH  19  20
ATOM     20  O   UNL d   1      26.693 -12.553  -3.251  0.00  0.00    -0.342 OA
BRANCH  20  21
ATOM     21  C   UNL d   1      26.535 -11.260  -2.866  0.00  0.00     0.072 A 
ATOM     22  C   UNL d   1      25.720 -10.350  -3.530  0.00  0.00     0.039 A 
ATOM     23  C   UNL d   1      25.588  -9.043  -3.043  0.00  0.00     0.042 A 
ATOM     24  C   UNL d   1      26.272  -8.655  -1.878  0.00  0.00     0.141 A 
ATOM     25  C   UNL d   1      27.053  -9.583  -1.194  0.00  0.00     0.151 A 
ATOM     26  F   UNL d   1      27.717  -9.273  -0.073  0.00  0.00    -0.203 F 
ATOM     27  C   UNL d   1      27.169 -10.886  -1.677  0.00  0.00     0.081 A 
BRANCH  24  28
ATOM     28  N   UNL d   1      26.163  -7.277  -1.400  0.00  0.00    -0.113 N 
ATOM     29  O   UNL d   1      26.086  -6.386  -2.260  0.00  0.00    -0.532 OA
ATOM     30  O   UNL d   1      26.164  -7.063  -0.183  0.00  0.00    -0.532 OA
ENDBRANCH  24  28
ENDBRANCH  20  21
ENDBRANCH  19  20
ENDBRANCH   2  19
TORSDOF 7
ENDMDL
MODEL 7
REMARK VINA RESULT:    -7.871      4.236      5.318
REMARK INTER + INTRA:         -11.208
REMARK INTER:                  -9.959
REMARK INTRA:                  -1.248
REMARK CONF_INDEPENDENT:        2.088
REMARK UNBOUND:                -1.248
REMARK  7 active torsions:
REMARK  status: ('A' for Active; 'I' for Inactive)
REMARK    1  A    between atoms: C_4  and  S_5 
REMARK    2  A    between atoms: S_5  and  N_6 
REMARK    3  A    between atoms: C_10  and  N_11 
REMARK       I    between atoms: N_11  and  C_12 
REMARK    4  A    between atoms: C_12  and  C_14 
REMARK    5  A    between atoms: C_14  and  O_15 
REMARK    6  A    between atoms: O_15  and  C_16 
REMARK    7  A    between atoms: C_19  and  N_20 
ROOT
ATOM      1  N   UNL d   1      25.268 -14.535  -2.562  0.00  0.00    -0.325 N 
ATOM      2  C   UNL d   1      25.480 -14.545  -3.944  0.00  0.00     0.246 C 
ATOM      3  O   UNL d   1      25.531 -15.563  -4.635  0.00  0.00    -0.271 OA
ATOM      4  H   UNL d   1      25.232 -13.636  -2.102  0.00  0.00     0.169 HD
ENDROOT
BRANCH   1   5
ATOM      5  C   UNL d   1      25.100 -15.703  -1.743  0.00  0.00     0.042 A 
ATOM      6  C   UNL d   1      23.836 -16.309  -1.634  0.00  0.00     0.055 A 
ATOM      7  C   UNL d   1      23.613 -17.453  -0.875  0.00  0.00     0.082 A 
ATOM      8  C   UNL d   1      24.653 -18.028  -0.167  0.00  0.00     0.032 A 
ATOM      9  C   UNL d   1      25.936 -17.457  -0.229  0.00  0.00    -0.052 A 
ATOM     10  C   UNL d   1      27.028 -18.124   0.572  0.00  0.00     0.049 C 
ATOM     11  C   UNL d   1      26.179 -16.294  -1.032  0.00  0.00    -0.029 A 
ATOM     12  C   UNL d   1      27.596 -15.764  -1.090  0.00  0.00     0.051 C 
BRANCH   7  13
ATOM     13  S   UNL d   1      21.995 -18.183  -0.896  0.00  0.00     0.256 S 
ATOM     14  O   UNL d   1      21.031 -17.113  -1.036  0.00  0.00    -0.201 OA
ATOM     15  O   UNL d   1      22.026 -19.325  -1.776  0.00  0.00    -0.201 OA
BRANCH  13  16
ATOM     16  N   UNL d   1      21.856 -18.781   0.655  0.00  0.00    -0.324 N 
ATOM     17  H   UNL d   1      21.779 -19.793   0.740  0.00  0.00     0.169 HD
ATOM     18  H   UNL d   1      21.399 -18.177   1.330  0.00  0.00     0.169 HD
ENDBRANCH  13  16
ENDBRANCH   7  13
ENDBRANCH   1   5
BRANCH   2  19
ATOM     19  C   UNL d   1      25.647 -13.180  -4.623  0.00  0.00     0.278 C 
BRANCH  19  20
ATOM     20  O   UNL d   1      26.036 -12.277  -3.571  0.00  0.00    -0.342 OA
BRANCH  20  21
ATOM     21  C   UNL d   1      25.893 -10.942  -3.785  0.00  0.00     0.072 A 
ATOM     22  C   UNL d   1      25.905  -9.991  -2.772  0.00  0.00     0.039 A 
ATOM     23  C   UNL d   1      25.786  -8.631  -3.088  0.00  0.00     0.042 A 
ATOM     24  C   UNL d   1      25.665  -8.229  -4.429  0.00  0.00     0.141 A 
ATOM     25  C   UNL d   1      25.697  -9.184  -5.442  0.00  0.00     0.151 A 
ATOM     26  F   UNL d   1      25.598  -8.858  -6.737  0.00  0.00    -0.203 F 
ATOM     27  C   UNL d   1      25.829 -10.535  -5.121  0.00  0.00     0.081 A 
BRANCH  24  28
ATOM     28  N   UNL d   1      25.498  -6.811  -4.746  0.00  0.00    -0.113 N 
ATOM     29  O   UNL d   1      24.339  -6.400  -4.903  0.00  0.00    -0.532 OA
ATOM     30  O   UNL d   1      26.503  -6.100  -4.855  0.00  0.00    -0.532 OA
ENDBRANCH  24  28
ENDBRANCH  20  21
ENDBRANCH  19  20
ENDBRANCH   2  19
TORSDOF 7
ENDMDL
MODEL 8
REMARK VINA RESULT:    -7.282      5.656      8.864
REMARK INTER + INTRA:         -10.498
REMARK INTER:                  -9.370
REMARK INTRA:                  -1.128
REMARK CONF_INDEPENDENT:        2.088
REMARK UNBOUND:                -1.128
REMARK  7 active torsions:
REMARK  status: ('A' for Active; 'I' for Inactive)
REMARK    1  A    between atoms: C_4  and  S_5 
REMARK    2  A    between atoms: S_5  and  N_6 
REMARK    3  A    between atoms: C_10  and  N_11 
REMARK       I    between atoms: N_11  and  C_12 
REMARK    4  A    between atoms: C_12  and  C_14 
REMARK    5  A    between atoms: C_14  and  O_15 
REMARK    6  A    between atoms: O_15  and  C_16 
REMARK    7  A    between atoms: C_19  and  N_20 
ROOT
ATOM      1  N   UNL d   1      27.760 -14.649   1.882  0.00  0.00    -0.325 N 
ATOM      2  C   UNL d   1      27.704 -14.443   0.500  0.00  0.00     0.246 C 
ATOM      3  O   UNL d   1      27.687 -13.337  -0.041  0.00  0.00    -0.271 OA
ATOM      4  H   UNL d   1      27.783 -15.605   2.210  0.00  0.00     0.169 HD
ENDROOT
BRANCH   1   5
ATOM      5  C   UNL d   1      27.789 -13.610   2.872  0.00  0.00     0.042 A 
ATOM      6  C   UNL d   1      27.423 -12.298   2.526  0.00  0.00     0.055 A 
ATOM      7  C   UNL d   1      27.409 -11.254   3.445  0.00  0.00     0.082 A 
ATOM      8  C   UNL d   1      27.790 -11.478   4.756  0.00  0.00     0.032 A 
ATOM      9  C   UNL d   1      28.178 -12.769   5.155  0.00  0.00    -0.052 A 
ATOM     10  C   UNL d   1      28.590 -12.951   6.596  0.00  0.00     0.049 C 
ATOM     11  C   UNL d   1      28.167 -13.857   4.220  0.00  0.00    -0.029 A 
ATOM     12  C   UNL d   1      28.549 -15.228   4.734  0.00  0.00     0.051 C 
BRANCH   7  13
ATOM     13  S   UNL d   1      26.832  -9.662   2.910  0.00  0.00     0.256 S 
ATOM     14  O   UNL d   1      27.758  -9.170   1.914  0.00  0.00    -0.201 OA
ATOM     15  O   UNL d   1      25.412  -9.751   2.679  0.00  0.00    -0.201 OA
BRANCH  13  16
ATOM     16  N   UNL d   1      27.033  -8.733   4.282  0.00  0.00    -0.324 N 
ATOM     17  H   UNL d   1      27.946  -8.299   4.399  0.00  0.00     0.169 HD
ATOM     18  H   UNL d   1      26.492  -9.010   5.094  0.00  0.00     0.169 HD
ENDBRANCH  13  16
ENDBRANCH   7  13
ENDBRANCH   1   5
BRANCH   2  19
ATOM     19  C   UNL d   1      27.668 -15.698  -0.381  0.00  0.00     0.278 C 
BRANCH  19  20
ATOM     20  O   UNL d   1      27.016 -16.704   0.416  0.00  0.00    -0.342 OA
BRANCH  20  21
ATOM     21  C   UNL d   1      25.785 -17.130   0.029  0.00  0.00     0.072 A 
ATOM     22  C   UNL d   1      25.290 -18.404   0.288  0.00  0.00     0.039 A 
ATOM     23  C   UNL d   1      23.994 -18.746  -0.117  0.00  0.00     0.042 A 
ATOM     24  C   UNL d   1      23.190 -17.801  -0.776  0.00  0.00     0.141 A 
ATOM     25  C   UNL d   1      23.676 -16.514  -0.994  0.00  0.00     0.151 A 
ATOM     26  F   UNL d   1      22.950 -15.569  -1.606  0.00  0.00    -0.203 F 
ATOM     27  C   UNL d   1      24.962 -16.175  -0.576  0.00  0.00     0.081 A 
BRANCH  24  28
ATOM     28  N   UNL d   1      21.854 -18.181  -1.234  0.00  0.00    -0.113 N 
ATOM     29  O   UNL d   1      21.720 -19.324  -1.697  0.00  0.00    -0.532 OA
ATOM     30  O   UNL d   1      20.936 -17.357  -1.152  0.00  0.00    -0.532 OA
ENDBRANCH  24  28
ENDBRANCH  20  21
ENDBRANCH  19  20
ENDBRANCH   2  19
TORSDOF 7
ENDMDL
MODEL 9
REMARK VINA RESULT:    -5.522      3.160      4.525
REMARK INTER + INTRA:         -10.837
REMARK INTER:                  -7.610
REMARK INTRA:                  -3.227
REMARK CONF_INDEPENDENT:        2.088
REMARK UNBOUND:                -3.227
REMARK  7 active torsions:
REMARK  status: ('A' for Active; 'I' for Inactive)
REMARK    1  A    between atoms: C_4  and  S_5 
REMARK    2  A    between atoms: S_5  and  N_6 
REMARK    3  A    between atoms: C_10  and  N_11 
REMARK       I    between atoms: N_11  and  C_12 
REMARK    4  A    between atoms: C_12  and  C_14 
REMARK    5  A    between atoms: C_14  and  O_15 
REMARK    6  A    between atoms: O_15  and  C_16 
REMARK    7  A    between atoms: C_19  and  N_20 
ROOT
ATOM      1  N   UNL d   1      28.431 -16.782  -0.802  0.00  0.00    -0.325 N 
ATOM      2  C   UNL d   1      29.234 -15.921  -0.048  0.00  0.00     0.246 C 
ATOM      3  O   UNL d   1      28.845 -14.870   0.463  0.00  0.00    -0.271 OA
ATOM      4  H   UNL d   1      28.858 -17.625  -1.160  0.00  0.00     0.169 HD
ENDROOT
BRANCH   1   5
ATOM      5  C   UNL d   1      27.046 -16.563  -1.109  0.00  0.00     0.042 A 
ATOM      6  C   UNL d   1      26.677 -15.554  -2.016  0.00  0.00     0.055 A 
ATOM      7  C   UNL d   1      25.355 -15.309  -2.372  0.00  0.00     0.082 A 
ATOM      8  C   UNL d   1      24.335 -16.055  -1.808  0.00  0.00     0.032 A 
ATOM      9  C   UNL d   1      24.645 -17.069  -0.885  0.00  0.00    -0.052 A 
ATOM     10  C   UNL d   1      23.490 -17.844  -0.298  0.00  0.00     0.049 C 
ATOM     11  C   UNL d   1      26.008 -17.347  -0.536  0.00  0.00    -0.029 A 
ATOM     12  C   UNL d   1      26.268 -18.486   0.426  0.00  0.00     0.051 C 
BRANCH   7  13
ATOM     13  S   UNL d   1      25.024 -14.073  -3.603  0.00  0.00     0.256 S 
ATOM     14  O   UNL d   1      23.599 -14.069  -3.851  0.00  0.00    -0.201 OA
ATOM     15  O   UNL d   1      25.758 -12.882  -3.255  0.00  0.00    -0.201 OA
BRANCH  13  16
ATOM     16  N   UNL d   1      25.765 -14.711  -4.954  0.00  0.00    -0.324 N 
ATOM     17  H   UNL d   1      26.020 -15.695  -4.903  0.00  0.00     0.169 HD
ATOM     18  H   UNL d   1      26.324 -14.068  -5.505  0.00  0.00     0.169 HD
ENDBRANCH  13  16
ENDBRANCH   7  13
ENDBRANCH   1   5
BRANCH   2  19
ATOM     19  C   UNL d   1      30.696 -16.342   0.150  0.00  0.00     0.278 C 
BRANCH  19  20
ATOM     20  O   UNL d   1      31.385 -15.894  -1.033  0.00  0.00    -0.342 OA
BRANCH  20  21
ATOM     21  C   UNL d   1      30.640 -15.523  -2.107  0.00  0.00     0.072 A 
ATOM     22  C   UNL d   1      30.231 -14.216  -2.349  0.00  0.00     0.039 A 
ATOM     23  C   UNL d   1      29.494 -13.916  -3.502  0.00  0.00     0.042 A 
ATOM     24  C   UNL d   1      29.176 -14.934  -4.417  0.00  0.00     0.141 A 
ATOM     25  C   UNL d   1      29.625 -16.232  -4.190  0.00  0.00     0.151 A 
ATOM     26  F   UNL d   1      29.362 -17.239  -5.034  0.00  0.00    -0.203 F 
ATOM     27  C   UNL d   1      30.370 -16.521  -3.047  0.00  0.00     0.081 A 
BRANCH  24  28
ATOM     28  N   UNL d   1      28.369 -14.619  -5.596  0.00  0.00    -0.113 N 
ATOM     29  O   UNL d   1      27.786 -15.564  -6.149  0.00  0.00    -0.532 OA
ATOM     30  O   UNL d   1      28.315 -13.449  -5.990  0.00  0.00    -0.532 OA
ENDBRANCH  24  28
ENDBRANCH  20  21
ENDBRANCH  19  20
ENDBRANCH   2  19
TORSDOF 7
ENDMDL
