MODEL 1
REMARK VINA RESULT:    -7.309      0.000      0.000
REMARK INTER + INTRA:          -8.332
REMARK INTER:                  -7.905
REMARK INTRA:                  -0.427
REMARK CONF_INDEPENDENT:        0.597
REMARK UNBOUND:                -0.427
REMARK  2 active torsions:
REMARK  status: ('A' for Active; 'I' for Inactive)
REMARK       I    between atoms: C_2  and  N_3 
REMARK       I    between atoms: C_2  and  N_10 
REMARK    1  A    between atoms: N_3  and  C_4 
REMARK    2  A    between atoms: N_17  and  C_18 
ROOT
ATOM      1  O   UNL d   1      27.546 -15.575  -5.763  0.00  0.00    -0.247 OA
ATOM      2  C   UNL d   1      28.178 -14.520  -5.669  0.00  0.00     0.325 C 
ATOM      3  N   UNL d   1      29.508 -14.389  -6.044  0.00  0.00    -0.309 N 
ATOM      4  N   UNL d   1      27.644 -13.421  -5.025  0.00  0.00    -0.299 N 
ATOM      5  C   UNL d   1      27.694 -12.067  -5.532  0.00  0.00     0.157 C 
ATOM      6  C   UNL d   1      27.182 -11.272  -4.357  0.00  0.00     0.191 C 
ATOM      7  O   UNL d   1      26.209 -12.141  -3.738  0.00  0.00    -0.359 OA
ATOM      8  C   UNL d   1      26.633 -13.516  -3.962  0.00  0.00     0.143 C 
ATOM      9  C   UNL d   1      25.386 -14.365  -4.270  0.00  0.00     0.081 C 
ATOM     10  C   UNL d   1      24.423 -14.450  -3.078  0.00  0.00     0.129 C 
ATOM     11  N   UNL d   1      25.105 -14.893  -1.845  0.00  0.00    -0.367 N 
ATOM     12  C   UNL d   1      26.284 -14.097  -1.492  0.00  0.00     0.129 C 
ATOM     13  C   UNL d   1      27.276 -14.036  -2.663  0.00  0.00     0.081 C 
ATOM     14  H   UNL d   1      30.037 -13.699  -5.532  0.00  0.00     0.170 HD
ENDROOT
BRANCH   3  15
ATOM     15  C   UNL d   1      30.242 -15.488  -6.576  0.00  0.00     0.036 A 
ATOM     16  C   UNL d   1      30.030 -16.796  -6.117  0.00  0.00     0.029 A 
ATOM     17  C   UNL d   1      30.816 -17.856  -6.602  0.00  0.00     0.002 A 
ATOM     18  C   UNL d   1      31.798 -17.621  -7.564  0.00  0.00     0.000 A 
ATOM     19  C   UNL d   1      32.015 -16.325  -8.020  0.00  0.00     0.002 A 
ATOM     20  C   UNL d   1      31.238 -15.268  -7.533  0.00  0.00     0.029 A 
ENDBRANCH   3  15
BRANCH  11  21
ATOM     21  C   UNL d   1      24.761 -16.063  -1.206  0.00  0.00     0.105 A 
ATOM     22  C   UNL d   1      25.702 -16.975  -0.700  0.00  0.00     0.048 A 
ATOM     23  C   UNL d   1      25.296 -18.196  -0.147  0.00  0.00     0.008 A 
ATOM     24  C   UNL d   1      23.960 -18.558  -0.205  0.00  0.00     0.061 A 
ATOM     25  C   UNL d   1      23.057 -17.633  -0.700  0.00  0.00     0.189 A 
ATOM     26  F   UNL d   1      21.763 -17.966  -0.786  0.00  0.00    -0.186 F 
ATOM     27  N   UNL d   1      23.467 -16.422  -1.110  0.00  0.00    -0.319 N 
ATOM     28  H   UNL d   1      22.754 -15.773  -1.416  0.00  0.00     0.169 HD
ENDBRANCH  11  21
TORSDOF 2
ENDMDL
MODEL 2
REMARK VINA RESULT:    -6.938      2.961      7.505
REMARK INTER + INTRA:          -7.815
REMARK INTER:                  -7.534
REMARK INTRA:                  -0.281
REMARK CONF_INDEPENDENT:        0.597
REMARK UNBOUND:                -0.281
REMARK  2 active torsions:
REMARK  status: ('A' for Active; 'I' for Inactive)
REMARK       I    between atoms: C_2  and  N_3 
REMARK       I    between atoms: C_2  and  N_10 
REMARK    1  A    between atoms: N_3  and  C_4 
REMARK    2  A    between atoms: N_17  and  C_18 
ROOT
ATOM      1  O   UNL d   1      26.676 -15.753  -1.954  0.00  0.00    -0.247 OA
ATOM      2  C   UNL d   1      25.778 -14.989  -2.310  0.00  0.00     0.325 C 
ATOM      3  N   UNL d   1      24.434 -15.208  -2.038  0.00  0.00    -0.309 N 
ATOM      4  N   UNL d   1      26.033 -13.926  -3.156  0.00  0.00    -0.299 N 
ATOM      5  C   UNL d   1      25.530 -12.584  -2.964  0.00  0.00     0.157 C 
ATOM      6  C   UNL d   1      25.916 -11.916  -4.261  0.00  0.00     0.191 C 
ATOM      7  O   UNL d   1      27.166 -12.542  -4.624  0.00  0.00    -0.359 OA
ATOM      8  C   UNL d   1      27.142 -13.908  -4.121  0.00  0.00     0.143 C 
ATOM      9  C   UNL d   1      28.541 -14.248  -3.573  0.00  0.00     0.081 C 
ATOM     10  C   UNL d   1      29.615 -14.262  -4.669  0.00  0.00     0.129 C 
ATOM     11  N   UNL d   1      29.239 -15.128  -5.804  0.00  0.00    -0.367 N 
ATOM     12  C   UNL d   1      27.925 -14.825  -6.381  0.00  0.00     0.129 C 
ATOM     13  C   UNL d   1      26.834 -14.848  -5.302  0.00  0.00     0.081 C 
ATOM     14  H   UNL d   1      23.787 -14.832  -2.715  0.00  0.00     0.170 HD
ENDROOT
BRANCH   3  15
ATOM     15  C   UNL d   1      24.000 -16.354  -1.311  0.00  0.00     0.036 A 
ATOM     16  C   UNL d   1      24.870 -17.422  -1.049  0.00  0.00     0.029 A 
ATOM     17  C   UNL d   1      24.403 -18.575  -0.394  0.00  0.00     0.002 A 
ATOM     18  C   UNL d   1      23.075 -18.658   0.024  0.00  0.00     0.000 A 
ATOM     19  C   UNL d   1      22.207 -17.602  -0.237  0.00  0.00     0.002 A 
ATOM     20  C   UNL d   1      22.669 -16.456  -0.895  0.00  0.00     0.029 A 
ENDBRANCH   3  15
BRANCH  11  21
ATOM     21  C   UNL d   1      29.982 -16.234  -6.150  0.00  0.00     0.105 A 
ATOM     22  C   UNL d   1      30.169 -17.338  -5.302  0.00  0.00     0.048 A 
ATOM     23  C   UNL d   1      31.015 -18.393  -5.668  0.00  0.00     0.008 A 
ATOM     24  C   UNL d   1      31.767 -18.289  -6.827  0.00  0.00     0.061 A 
ATOM     25  C   UNL d   1      31.553 -17.194  -7.646  0.00  0.00     0.189 A 
ATOM     26  F   UNL d   1      32.281 -17.060  -8.761  0.00  0.00    -0.186 F 
ATOM     27  N   UNL d   1      30.643 -16.261  -7.323  0.00  0.00    -0.319 N 
ATOM     28  H   UNL d   1      30.497 -15.509  -7.985  0.00  0.00     0.169 HD
ENDBRANCH  11  21
TORSDOF 2
ENDMDL
MODEL 3
REMARK VINA RESULT:    -6.917      2.393      7.245
REMARK INTER + INTRA:          -7.826
REMARK INTER:                  -7.514
REMARK INTRA:                  -0.312
REMARK CONF_INDEPENDENT:        0.597
REMARK UNBOUND:                -0.312
REMARK  2 active torsions:
REMARK  status: ('A' for Active; 'I' for Inactive)
REMARK       I    between atoms: C_2  and  N_3 
REMARK       I    between atoms: C_2  and  N_10 
REMARK    1  A    between atoms: N_3  and  C_4 
REMARK    2  A    between atoms: N_17  and  C_18 
ROOT
ATOM      1  O   UNL d   1      26.736 -15.688  -2.014  0.00  0.00    -0.247 OA
ATOM      2  C   UNL d   1      25.825 -14.953  -2.400  0.00  0.00     0.325 C 
ATOM      3  N   UNL d   1      24.483 -15.198  -2.143  0.00  0.00    -0.309 N 
ATOM      4  N   UNL d   1      26.068 -13.905  -3.268  0.00  0.00    -0.299 N 
ATOM      5  C   UNL d   1      25.530 -12.571  -3.114  0.00  0.00     0.157 C 
ATOM      6  C   UNL d   1      25.919 -11.923  -4.420  0.00  0.00     0.191 C 
ATOM      7  O   UNL d   1      27.189 -12.528  -4.751  0.00  0.00    -0.359 OA
ATOM      8  C   UNL d   1      27.190 -13.882  -4.217  0.00  0.00     0.143 C 
ATOM      9  C   UNL d   1      28.588 -14.176  -3.642  0.00  0.00     0.081 C 
ATOM     10  C   UNL d   1      29.677 -14.189  -4.722  0.00  0.00     0.129 C 
ATOM     11  N   UNL d   1      29.338 -15.090  -5.842  0.00  0.00    -0.367 N 
ATOM     12  C   UNL d   1      28.027 -14.832  -6.444  0.00  0.00     0.129 C 
ATOM     13  C   UNL d   1      26.920 -14.856  -5.380  0.00  0.00     0.081 C 
ATOM     14  H   UNL d   1      23.837 -14.853  -2.837  0.00  0.00     0.170 HD
ENDROOT
BRANCH   3  15
ATOM     15  C   UNL d   1      24.065 -16.337  -1.395  0.00  0.00     0.036 A 
ATOM     16  C   UNL d   1      24.920 -17.431  -1.196  0.00  0.00     0.029 A 
ATOM     17  C   UNL d   1      24.465 -18.575  -0.519  0.00  0.00     0.002 A 
ATOM     18  C   UNL d   1      23.165 -18.625  -0.015  0.00  0.00     0.000 A 
ATOM     19  C   UNL d   1      22.312 -17.544  -0.214  0.00  0.00     0.002 A 
ATOM     20  C   UNL d   1      22.762 -16.406  -0.894  0.00  0.00     0.029 A 
ENDBRANCH   3  15
BRANCH  11  21
ATOM     21  C   UNL d   1      30.113 -16.186  -6.152  0.00  0.00     0.105 A 
ATOM     22  C   UNL d   1      30.976 -16.236  -7.259  0.00  0.00     0.048 A 
ATOM     23  C   UNL d   1      31.666 -17.411  -7.581  0.00  0.00     0.008 A 
ATOM     24  C   UNL d   1      31.403 -18.571  -6.869  0.00  0.00     0.061 A 
ATOM     25  C   UNL d   1      30.556 -18.485  -5.778  0.00  0.00     0.189 A 
ATOM     26  F   UNL d   1      30.271 -19.595  -5.085  0.00  0.00    -0.186 F 
ATOM     27  N   UNL d   1      30.007 -17.313  -5.423  0.00  0.00    -0.319 N 
ATOM     28  H   UNL d   1      29.434 -17.305  -4.589  0.00  0.00     0.169 HD
ENDBRANCH  11  21
TORSDOF 2
ENDMDL
MODEL 4
REMARK VINA RESULT:    -6.829      3.906      7.994
REMARK INTER + INTRA:          -7.739
REMARK INTER:                  -7.425
REMARK INTRA:                  -0.313
REMARK CONF_INDEPENDENT:        0.597
REMARK UNBOUND:                -0.313
REMARK  2 active torsions:
REMARK  status: ('A' for Active; 'I' for Inactive)
REMARK       I    between atoms: C_2  and  N_3 
REMARK       I    between atoms: C_2  and  N_10 
REMARK    1  A    between atoms: N_3  and  C_4 
REMARK    2  A    between atoms: N_17  and  C_18 
ROOT
ATOM      1  O   UNL d   1      26.738 -18.249  -0.561  0.00  0.00    -0.247 OA
ATOM      2  C   UNL d   1      26.582 -17.076  -0.215  0.00  0.00     0.325 C 
ATOM      3  N   UNL d   1      25.336 -16.487  -0.051  0.00  0.00    -0.309 N 
ATOM      4  N   UNL d   1      27.652 -16.207  -0.122  0.00  0.00    -0.299 N 
ATOM      5  C   UNL d   1      27.879 -15.299   0.980  0.00  0.00     0.157 C 
ATOM      6  C   UNL d   1      29.024 -14.461   0.467  0.00  0.00     0.191 C 
ATOM      7  O   UNL d   1      29.801 -15.377  -0.335  0.00  0.00    -0.359 OA
ATOM      8  C   UNL d   1      28.887 -16.356  -0.906  0.00  0.00     0.143 C 
ATOM      9  C   UNL d   1      29.568 -17.737  -0.865  0.00  0.00     0.081 C 
ATOM     10  C   UNL d   1      30.812 -17.805  -1.762  0.00  0.00     0.129 C 
ATOM     11  N   UNL d   1      30.525 -17.368  -3.143  0.00  0.00    -0.367 N 
ATOM     12  C   UNL d   1      29.902 -16.045  -3.237  0.00  0.00     0.129 C 
ATOM     13  C   UNL d   1      28.633 -15.974  -2.376  0.00  0.00     0.081 C 
ATOM     14  H   UNL d   1      25.298 -15.494  -0.226  0.00  0.00     0.170 HD
ENDROOT
BRANCH   3  15
ATOM     15  C   UNL d   1      24.133 -17.218  -0.272  0.00  0.00     0.036 A 
ATOM     16  C   UNL d   1      24.111 -18.619  -0.214  0.00  0.00     0.029 A 
ATOM     17  C   UNL d   1      22.932 -19.325  -0.508  0.00  0.00     0.002 A 
ATOM     18  C   UNL d   1      21.763 -18.637  -0.834  0.00  0.00     0.000 A 
ATOM     19  C   UNL d   1      21.780 -17.247  -0.895  0.00  0.00     0.002 A 
ATOM     20  C   UNL d   1      22.956 -16.544  -0.610  0.00  0.00     0.029 A 
ENDBRANCH   3  15
BRANCH  11  21
ATOM     21  C   UNL d   1      30.664 -18.219  -4.217  0.00  0.00     0.105 A 
ATOM     22  C   UNL d   1      30.606 -17.795  -5.555  0.00  0.00     0.048 A 
ATOM     23  C   UNL d   1      30.655 -18.718  -6.606  0.00  0.00     0.008 A 
ATOM     24  C   UNL d   1      30.642 -20.074  -6.321  0.00  0.00     0.061 A 
ATOM     25  C   UNL d   1      30.710 -20.460  -4.994  0.00  0.00     0.189 A 
ATOM     26  F   UNL d   1      30.678 -21.763  -4.690  0.00  0.00    -0.186 F 
ATOM     27  N   UNL d   1      30.785 -19.545  -4.014  0.00  0.00    -0.319 N 
ATOM     28  H   UNL d   1      30.879 -19.889  -3.067  0.00  0.00     0.169 HD
ENDBRANCH  11  21
TORSDOF 2
ENDMDL
MODEL 5
REMARK VINA RESULT:    -6.596      3.458      7.745
REMARK INTER + INTRA:          -7.492
REMARK INTER:                  -7.193
REMARK INTRA:                  -0.299
REMARK CONF_INDEPENDENT:        0.597
REMARK UNBOUND:                -0.299
REMARK  2 active torsions:
REMARK  status: ('A' for Active; 'I' for Inactive)
REMARK       I    between atoms: C_2  and  N_3 
REMARK       I    between atoms: C_2  and  N_10 
REMARK    1  A    between atoms: N_3  and  C_4 
REMARK    2  A    between atoms: N_17  and  C_18 
ROOT
ATOM      1  O   UNL d   1      27.210 -17.362  -1.273  0.00  0.00    -0.247 OA
ATOM      2  C   UNL d   1      26.861 -16.180  -1.267  0.00  0.00     0.325 C 
ATOM      3  N   UNL d   1      25.561 -15.766  -1.012  0.00  0.00    -0.309 N 
ATOM      4  N   UNL d   1      27.720 -15.177  -1.677  0.00  0.00    -0.299 N 
ATOM      5  C   UNL d   1      27.920 -13.929  -0.974  0.00  0.00     0.157 C 
ATOM      6  C   UNL d   1      28.758 -13.147  -1.955  0.00  0.00     0.191 C 
ATOM      7  O   UNL d   1      29.576 -14.149  -2.599  0.00  0.00    -0.359 OA
ATOM      8  C   UNL d   1      28.815 -15.389  -2.634  0.00  0.00     0.143 C 
ATOM      9  C   UNL d   1      29.775 -16.556  -2.337  0.00  0.00     0.081 C 
ATOM     10  C   UNL d   1      30.843 -16.731  -3.425  0.00  0.00     0.129 C 
ATOM     11  N   UNL d   1      30.250 -16.831  -4.774  0.00  0.00    -0.367 N 
ATOM     12  C   UNL d   1      29.349 -15.726  -5.117  0.00  0.00     0.129 C 
ATOM     13  C   UNL d   1      28.250 -15.566  -4.056  0.00  0.00     0.081 C 
ATOM     14  H   UNL d   1      25.282 -14.907  -1.462  0.00  0.00     0.170 HD
ENDROOT
BRANCH   3  15
ATOM     15  C   UNL d   1      24.524 -16.703  -0.732  0.00  0.00     0.036 A 
ATOM     16  C   UNL d   1      24.817 -18.021  -0.350  0.00  0.00     0.029 A 
ATOM     17  C   UNL d   1      23.782 -18.950  -0.150  0.00  0.00     0.002 A 
ATOM     18  C   UNL d   1      22.451 -18.565  -0.305  0.00  0.00     0.000 A 
ATOM     19  C   UNL d   1      22.155 -17.260  -0.687  0.00  0.00     0.002 A 
ATOM     20  C   UNL d   1      23.185 -16.336  -0.894  0.00  0.00     0.029 A 
ENDBRANCH   3  15
BRANCH  11  21
ATOM     21  C   UNL d   1      30.394 -17.960  -5.548  0.00  0.00     0.105 A 
ATOM     22  C   UNL d   1      30.432 -19.261  -5.020  0.00  0.00     0.048 A 
ATOM     23  C   UNL d   1      30.678 -20.367  -5.844  0.00  0.00     0.008 A 
ATOM     24  C   UNL d   1      31.005 -20.162  -7.175  0.00  0.00     0.061 A 
ATOM     25  C   UNL d   1      30.948 -18.869  -7.667  0.00  0.00     0.189 A 
ATOM     26  F   UNL d   1      31.278 -18.642  -8.944  0.00  0.00    -0.186 F 
ATOM     27  N   UNL d   1      30.588 -17.847  -6.875  0.00  0.00    -0.319 N 
ATOM     28  H   UNL d   1      30.520 -16.933  -7.304  0.00  0.00     0.169 HD
ENDBRANCH  11  21
TORSDOF 2
ENDMDL
MODEL 6
REMARK VINA RESULT:    -6.435      3.453      7.543
REMARK INTER + INTRA:          -7.452
REMARK INTER:                  -7.031
REMARK INTRA:                  -0.421
REMARK CONF_INDEPENDENT:        0.597
REMARK UNBOUND:                -0.421
REMARK  2 active torsions:
REMARK  status: ('A' for Active; 'I' for Inactive)
REMARK       I    between atoms: C_2  and  N_3 
REMARK       I    between atoms: C_2  and  N_10 
REMARK    1  A    between atoms: N_3  and  C_4 
REMARK    2  A    between atoms: N_17  and  C_18 
ROOT
ATOM      1  O   UNL d   1      25.163 -15.198  -3.657  0.00  0.00    -0.247 OA
ATOM      2  C   UNL d   1      26.170 -15.588  -3.063  0.00  0.00     0.325 C 
ATOM      3  N   UNL d   1      26.128 -16.387  -1.928  0.00  0.00    -0.309 N 
ATOM      4  N   UNL d   1      27.426 -15.118  -3.396  0.00  0.00    -0.299 N 
ATOM      5  C   UNL d   1      28.598 -15.950  -3.555  0.00  0.00     0.157 C 
ATOM      6  C   UNL d   1      29.696 -14.924  -3.689  0.00  0.00     0.191 C 
ATOM      7  O   UNL d   1      29.070 -13.823  -4.383  0.00  0.00    -0.359 OA
ATOM      8  C   UNL d   1      27.663 -13.803  -4.009  0.00  0.00     0.143 C 
ATOM      9  C   UNL d   1      26.833 -13.466  -5.261  0.00  0.00     0.081 C 
ATOM     10  C   UNL d   1      27.110 -12.051  -5.787  0.00  0.00     0.129 C 
ATOM     11  N   UNL d   1      26.963 -11.028  -4.731  0.00  0.00    -0.367 N 
ATOM     12  C   UNL d   1      27.758 -11.289  -3.528  0.00  0.00     0.129 C 
ATOM     13  C   UNL d   1      27.460 -12.687  -2.967  0.00  0.00     0.081 C 
ATOM     14  H   UNL d   1      26.896 -16.269  -1.285  0.00  0.00     0.170 HD
ENDROOT
BRANCH   3  15
ATOM     15  C   UNL d   1      24.890 -16.818  -1.369  0.00  0.00     0.036 A 
ATOM     16  C   UNL d   1      23.793 -15.950  -1.271  0.00  0.00     0.029 A 
ATOM     17  C   UNL d   1      22.605 -16.373  -0.649  0.00  0.00     0.002 A 
ATOM     18  C   UNL d   1      22.497 -17.669  -0.145  0.00  0.00     0.000 A 
ATOM     19  C   UNL d   1      23.584 -18.532  -0.237  0.00  0.00     0.002 A 
ATOM     20  C   UNL d   1      24.769 -18.111  -0.850  0.00  0.00     0.029 A 
ENDBRANCH   3  15
BRANCH  11  21
ATOM     21  C   UNL d   1      26.018 -10.030  -4.814  0.00  0.00     0.105 A 
ATOM     22  C   UNL d   1      25.211  -9.820  -5.945  0.00  0.00     0.048 A 
ATOM     23  C   UNL d   1      24.334  -8.729  -6.012  0.00  0.00     0.008 A 
ATOM     24  C   UNL d   1      24.350  -7.783  -5.000  0.00  0.00     0.061 A 
ATOM     25  C   UNL d   1      25.147  -8.025  -3.895  0.00  0.00     0.189 A 
ATOM     26  F   UNL d   1      25.195  -7.117  -2.912  0.00  0.00    -0.186 F 
ATOM     27  N   UNL d   1      25.884  -9.144  -3.810  0.00  0.00    -0.319 N 
ATOM     28  H   UNL d   1      26.410  -9.287  -2.957  0.00  0.00     0.169 HD
ENDBRANCH  11  21
TORSDOF 2
ENDMDL
MODEL 7
REMARK VINA RESULT:    -6.387      2.735      3.380
REMARK INTER + INTRA:          -7.471
REMARK INTER:                  -6.984
REMARK INTRA:                  -0.487
REMARK CONF_INDEPENDENT:        0.597
REMARK UNBOUND:                -0.487
REMARK  2 active torsions:
REMARK  status: ('A' for Active; 'I' for Inactive)
REMARK       I    between atoms: C_2  and  N_3 
REMARK       I    between atoms: C_2  and  N_10 
REMARK    1  A    between atoms: N_3  and  C_4 
REMARK    2  A    between atoms: N_17  and  C_18 
ROOT
ATOM      1  O   UNL d   1      28.413 -16.324  -3.726  0.00  0.00    -0.247 OA
ATOM      2  C   UNL d   1      29.477 -16.367  -3.106  0.00  0.00     0.325 C 
ATOM      3  N   UNL d   1      30.616 -17.000  -3.584  0.00  0.00    -0.309 N 
ATOM      4  N   UNL d   1      29.565 -15.922  -1.801  0.00  0.00    -0.299 N 
ATOM      5  C   UNL d   1      30.627 -15.083  -1.289  0.00  0.00     0.157 C 
ATOM      6  C   UNL d   1      30.349 -15.096   0.194  0.00  0.00     0.191 C 
ATOM      7  O   UNL d   1      28.909 -15.164   0.285  0.00  0.00    -0.359 OA
ATOM      8  C   UNL d   1      28.424 -15.901  -0.873  0.00  0.00     0.143 C 
ATOM      9  C   UNL d   1      27.137 -15.222  -1.377  0.00  0.00     0.081 C 
ATOM     10  C   UNL d   1      25.991 -15.308  -0.360  0.00  0.00     0.129 C 
ATOM     11  N   UNL d   1      25.748 -16.695   0.087  0.00  0.00    -0.367 N 
ATOM     12  C   UNL d   1      26.939 -17.376   0.603  0.00  0.00     0.129 C 
ATOM     13  C   UNL d   1      28.082 -17.333  -0.421  0.00  0.00     0.081 C 
ATOM     14  H   UNL d   1      31.233 -17.376  -2.879  0.00  0.00     0.170 HD
ENDROOT
BRANCH   3  15
ATOM     15  C   UNL d   1      30.629 -17.650  -4.853  0.00  0.00     0.036 A 
ATOM     16  C   UNL d   1      30.565 -19.047  -4.955  0.00  0.00     0.029 A 
ATOM     17  C   UNL d   1      30.653 -19.672  -6.211  0.00  0.00     0.002 A 
ATOM     18  C   UNL d   1      30.779 -18.908  -7.371  0.00  0.00     0.000 A 
ATOM     19  C   UNL d   1      30.846 -17.521  -7.274  0.00  0.00     0.002 A 
ATOM     20  C   UNL d   1      30.766 -16.898  -6.023  0.00  0.00     0.029 A 
ENDBRANCH   3  15
BRANCH  11  21
ATOM     21  C   UNL d   1      24.550 -17.332  -0.145  0.00  0.00     0.105 A 
ATOM     22  C   UNL d   1      24.412 -18.730  -0.192  0.00  0.00     0.048 A 
ATOM     23  C   UNL d   1      23.189 -19.322  -0.528  0.00  0.00     0.008 A 
ATOM     24  C   UNL d   1      22.134 -18.520  -0.933  0.00  0.00     0.061 A 
ATOM     25  C   UNL d   1      22.298 -17.147  -0.865  0.00  0.00     0.189 A 
ATOM     26  F   UNL d   1      21.302 -16.350  -1.270  0.00  0.00    -0.186 F 
ATOM     27  N   UNL d   1      23.446 -16.612  -0.421  0.00  0.00    -0.319 N 
ATOM     28  H   UNL d   1      23.489 -15.604  -0.350  0.00  0.00     0.169 HD
ENDBRANCH  11  21
TORSDOF 2
ENDMDL
MODEL 8
REMARK VINA RESULT:    -6.368      3.871      7.633
REMARK INTER + INTRA:          -7.450
REMARK INTER:                  -6.965
REMARK INTRA:                  -0.485
REMARK CONF_INDEPENDENT:        0.597
REMARK UNBOUND:                -0.485
REMARK  2 active torsions:
REMARK  status: ('A' for Active; 'I' for Inactive)
REMARK       I    between atoms: C_2  and  N_3 
REMARK       I    between atoms: C_2  and  N_10 
REMARK    1  A    between atoms: N_3  and  C_4 
REMARK    2  A    between atoms: N_17  and  C_18 
ROOT
ATOM      1  O   UNL d   1      25.527 -16.225  -2.612  0.00  0.00    -0.247 OA
ATOM      2  C   UNL d   1      26.074 -16.332  -1.513  0.00  0.00     0.325 C 
ATOM      3  N   UNL d   1      25.474 -16.932  -0.414  0.00  0.00    -0.309 N 
ATOM      4  N   UNL d   1      27.279 -15.708  -1.248  0.00  0.00    -0.299 N 
ATOM      5  C   UNL d   1      28.400 -16.336  -0.584  0.00  0.00     0.157 C 
ATOM      6  C   UNL d   1      29.329 -15.168  -0.364  0.00  0.00     0.191 C 
ATOM      7  O   UNL d   1      29.111 -14.321  -1.513  0.00  0.00    -0.359 OA
ATOM      8  C   UNL d   1      27.728 -14.488  -1.934  0.00  0.00     0.143 C 
ATOM      9  C   UNL d   1      27.688 -14.507  -3.474  0.00  0.00     0.081 C 
ATOM     10  C   UNL d   1      28.116 -13.169  -4.090  0.00  0.00     0.129 C 
ATOM     11  N   UNL d   1      27.359 -12.032  -3.530  0.00  0.00    -0.367 N 
ATOM     12  C   UNL d   1      27.390 -11.952  -2.066  0.00  0.00     0.129 C 
ATOM     13  C   UNL d   1      26.924 -13.273  -1.435  0.00  0.00     0.081 C 
ATOM     14  H   UNL d   1      25.763 -16.579   0.486  0.00  0.00     0.170 HD
ENDROOT
BRANCH   3  15
ATOM     15  C   UNL d   1      24.161 -17.479  -0.491  0.00  0.00     0.036 A 
ATOM     16  C   UNL d   1      23.938 -18.858  -0.368  0.00  0.00     0.029 A 
ATOM     17  C   UNL d   1      22.644 -19.386  -0.520  0.00  0.00     0.002 A 
ATOM     18  C   UNL d   1      21.564 -18.540  -0.769  0.00  0.00     0.000 A 
ATOM     19  C   UNL d   1      21.780 -17.172  -0.895  0.00  0.00     0.002 A 
ATOM     20  C   UNL d   1      23.069 -16.646  -0.751  0.00  0.00     0.029 A 
ENDBRANCH   3  15
BRANCH  11  21
ATOM     21  C   UNL d   1      26.548 -11.242  -4.315  0.00  0.00     0.105 A 
ATOM     22  C   UNL d   1      26.319 -11.484  -5.679  0.00  0.00     0.048 A 
ATOM     23  C   UNL d   1      25.564 -10.592  -6.452  0.00  0.00     0.008 A 
ATOM     24  C   UNL d   1      25.138  -9.399  -5.890  0.00  0.00     0.061 A 
ATOM     25  C   UNL d   1      25.371  -9.196  -4.541  0.00  0.00     0.189 A 
ATOM     26  F   UNL d   1      24.987  -8.044  -3.979  0.00  0.00    -0.186 F 
ATOM     27  N   UNL d   1      25.992 -10.129  -3.802  0.00  0.00    -0.319 N 
ATOM     28  H   UNL d   1      26.091  -9.943  -2.812  0.00  0.00     0.169 HD
ENDBRANCH  11  21
TORSDOF 2
ENDMDL
MODEL 9
REMARK VINA RESULT:    -6.252      3.407      7.165
REMARK INTER + INTRA:          -7.291
REMARK INTER:                  -6.848
REMARK INTRA:                  -0.443
REMARK CONF_INDEPENDENT:        0.597
REMARK UNBOUND:                -0.443
REMARK  2 active torsions:
REMARK  status: ('A' for Active; 'I' for Inactive)
REMARK       I    between atoms: C_2  and  N_3 
REMARK       I    between atoms: C_2  and  N_10 
REMARK    1  A    between atoms: N_3  and  C_4 
REMARK    2  A    between atoms: N_17  and  C_18 
ROOT
ATOM      1  O   UNL d   1      24.752 -14.404  -2.779  0.00  0.00    -0.247 OA
ATOM      2  C   UNL d   1      25.700 -15.048  -3.233  0.00  0.00     0.325 C 
ATOM      3  N   UNL d   1      26.101 -16.278  -2.730  0.00  0.00    -0.309 N 
ATOM      4  N   UNL d   1      26.543 -14.507  -4.185  0.00  0.00    -0.299 N 
ATOM      5  C   UNL d   1      26.991 -15.200  -5.373  0.00  0.00     0.157 C 
ATOM      6  C   UNL d   1      28.035 -14.254  -5.913  0.00  0.00     0.191 C 
ATOM      7  O   UNL d   1      27.536 -12.943  -5.570  0.00  0.00    -0.359 OA
ATOM      8  C   UNL d   1      26.778 -13.064  -4.333  0.00  0.00     0.143 C 
ATOM      9  C   UNL d   1      25.530 -12.168  -4.439  0.00  0.00     0.081 C 
ATOM     10  C   UNL d   1      25.882 -10.677  -4.528  0.00  0.00     0.129 C 
ATOM     11  N   UNL d   1      26.779 -10.252  -3.435  0.00  0.00    -0.367 N 
ATOM     12  C   UNL d   1      27.998 -11.057  -3.311  0.00  0.00     0.129 C 
ATOM     13  C   UNL d   1      27.659 -12.549  -3.179  0.00  0.00     0.081 C 
ATOM     14  H   UNL d   1      27.083 -16.488  -2.826  0.00  0.00     0.170 HD
ENDROOT
BRANCH   3  15
ATOM     15  C   UNL d   1      25.424 -16.890  -1.635  0.00  0.00     0.036 A 
ATOM     16  C   UNL d   1      26.133 -17.445  -0.560  0.00  0.00     0.029 A 
ATOM     17  C   UNL d   1      25.451 -18.109   0.474  0.00  0.00     0.002 A 
ATOM     18  C   UNL d   1      24.059 -18.200   0.455  0.00  0.00     0.000 A 
ATOM     19  C   UNL d   1      23.352 -17.653  -0.611  0.00  0.00     0.002 A 
ATOM     20  C   UNL d   1      24.030 -16.998  -1.645  0.00  0.00     0.029 A 
ENDBRANCH   3  15
BRANCH  11  21
ATOM     21  C   UNL d   1      26.397  -9.306  -2.509  0.00  0.00     0.105 A 
ATOM     22  C   UNL d   1      25.808  -8.078  -2.855  0.00  0.00     0.048 A 
ATOM     23  C   UNL d   1      25.530  -7.113  -1.879  0.00  0.00     0.008 A 
ATOM     24  C   UNL d   1      25.948  -7.326  -0.575  0.00  0.00     0.061 A 
ATOM     25  C   UNL d   1      26.516  -8.549  -0.265  0.00  0.00     0.189 A 
ATOM     26  F   UNL d   1      26.946  -8.772   0.983  0.00  0.00    -0.186 F 
ATOM     27  N   UNL d   1      26.656  -9.500  -1.202  0.00  0.00    -0.319 N 
ATOM     28  H   UNL d   1      27.034 -10.390  -0.905  0.00  0.00     0.169 HD
ENDBRANCH  11  21
TORSDOF 2
ENDMDL
