MODEL 1
REMARK VINA RESULT:    -8.423      0.000      0.000
REMARK INTER + INTRA:         -12.628
REMARK INTER:                 -10.512
REMARK INTRA:                  -2.117
REMARK CONF_INDEPENDENT:        2.088
REMARK UNBOUND:                -2.117
REMARK  7 active torsions:
REMARK  status: ('A' for Active; 'I' for Inactive)
REMARK    1  A    between atoms: C_2  and  O_3 
REMARK    2  A    between atoms: O_3  and  C_4 
REMARK    3  A    between atoms: C_7  and  N_8 
REMARK       I    between atoms: N_8  and  C_9 
REMARK    4  A    between atoms: C_9  and  C_11 
REMARK    5  A    between atoms: C_11  and  S_12 
REMARK    6  A    between atoms: S_12  and  C_13 
REMARK    7  A    between atoms: N_23  and  C_24 
ROOT
ATOM      1  C   UNL d   1      29.762 -16.497  -2.181  0.00  0.00     0.281 A 
ATOM      2  N   UNL d   1      31.027 -17.229  -2.479  0.00  0.00    -0.232 NA
ATOM      3  C   UNL d   1      31.291 -17.374  -3.724  0.00  0.00     0.185 A 
ATOM      4  N   UNL d   1      32.401 -18.018  -4.223  0.00  0.00    -0.129 NA
ATOM      5  N   UNL d   1      32.323 -18.005  -5.489  0.00  0.00    -0.152 NA
ATOM      6  C   UNL d   1      31.185 -17.349  -5.860  0.00  0.00     0.071 A 
ATOM      7  C   UNL d   1      30.780 -17.150  -7.270  0.00  0.00     0.073 C 
ATOM      8  C   UNL d   1      30.489 -16.913  -4.817  0.00  0.00     0.085 A 
ATOM      9  C   UNL d   1      29.272 -16.177  -4.594  0.00  0.00     0.141 A 
ATOM     10  N   UNL d   1      28.554 -15.738  -5.584  0.00  0.00    -0.283 NA
ATOM     11  N   UNL d   1      28.927 -15.953  -3.273  0.00  0.00    -0.298 N 
ATOM     12  H   UNL d   1      28.910 -15.955  -6.505  0.00  0.00     0.188 HD
ENDROOT
BRANCH   1  13
ATOM     13  S   UNL d   1      28.785 -17.441  -0.947  0.00  0.00    -0.111 SA
BRANCH  13  14
ATOM     14  C   UNL d   1      28.081 -16.158   0.192  0.00  0.00     0.181 C 
BRANCH  14  15
ATOM     15  C   UNL d   1      26.575 -16.197   0.108  0.00  0.00     0.231 C 
ATOM     16  N   UNL d   1      25.991 -17.404  -0.302  0.00  0.00    -0.327 N 
ATOM     17  H   UNL d   1      26.579 -18.190  -0.563  0.00  0.00     0.169 HD
ATOM     18  O   UNL d   1      25.951 -15.165   0.347  0.00  0.00    -0.272 OA
BRANCH  16  19
ATOM     19  C   UNL d   1      24.585 -17.540  -0.515  0.00  0.00     0.034 A 
ATOM     20  C   UNL d   1      23.766 -16.441  -0.793  0.00  0.00     0.032 A 
ATOM     21  C   UNL d   1      22.365 -16.616  -0.895  0.00  0.00     0.039 A 
ATOM     22  C   UNL d   1      21.780 -17.881  -0.773  0.00  0.00     0.068 A 
ATOM     23  C   UNL d   1      22.597 -18.968  -0.549  0.00  0.00     0.039 A 
ATOM     24  C   UNL d   1      23.966 -18.788  -0.431  0.00  0.00     0.032 A 
BRANCH  22  25
ATOM     25  O   UNL d   1      20.434 -17.993  -0.983  0.00  0.00    -0.352 OA
BRANCH  25  26
ATOM     26  C   UNL d   1      19.909 -19.325  -0.894  0.00  0.00     0.171 C 
ATOM     27  C   UNL d   1      19.530 -19.594   0.550  0.00  0.00     0.034 C 
ENDBRANCH  25  26
ENDBRANCH  22  25
ENDBRANCH  16  19
ENDBRANCH  14  15
ENDBRANCH  13  14
ENDBRANCH   1  13
BRANCH  11  28
ATOM     28  C   UNL d   1      27.835 -15.092  -3.030  0.00  0.00     0.045 A 
ATOM     29  C   UNL d   1      26.543 -15.574  -3.387  0.00  0.00     0.030 A 
ATOM     30  C   UNL d   1      25.408 -14.789  -3.340  0.00  0.00     0.002 A 
ATOM     31  C   UNL d   1      25.532 -13.483  -2.904  0.00  0.00     0.001 A 
ATOM     32  C   UNL d   1      26.778 -12.989  -2.505  0.00  0.00     0.009 A 
ATOM     33  C   UNL d   1      27.937 -13.784  -2.539  0.00  0.00    -0.035 A 
ATOM     34  C   UNL d   1      29.228 -13.178  -2.075  0.00  0.00     0.050 C 
ENDBRANCH  11  28
TORSDOF 7
ENDMDL
MODEL 2
REMARK VINA RESULT:    -8.341      1.890      4.335
REMARK INTER + INTRA:         -12.781
REMARK INTER:                 -10.429
REMARK INTRA:                  -2.352
REMARK CONF_INDEPENDENT:        2.088
REMARK UNBOUND:                -2.352
REMARK  7 active torsions:
REMARK  status: ('A' for Active; 'I' for Inactive)
REMARK    1  A    between atoms: C_2  and  O_3 
REMARK    2  A    between atoms: O_3  and  C_4 
REMARK    3  A    between atoms: C_7  and  N_8 
REMARK       I    between atoms: N_8  and  C_9 
REMARK    4  A    between atoms: C_9  and  C_11 
REMARK    5  A    between atoms: C_11  and  S_12 
REMARK    6  A    between atoms: S_12  and  C_13 
REMARK    7  A    between atoms: N_23  and  C_24 
ROOT
ATOM      1  C   UNL d   1      28.185 -16.302  -2.599  0.00  0.00     0.281 A 
ATOM      2  N   UNL d   1      26.693 -16.287  -2.546  0.00  0.00    -0.232 NA
ATOM      3  C   UNL d   1      26.138 -15.313  -3.164  0.00  0.00     0.185 A 
ATOM      4  N   UNL d   1      24.779 -15.104  -3.242  0.00  0.00    -0.129 NA
ATOM      5  N   UNL d   1      24.586 -14.034  -3.895  0.00  0.00    -0.152 NA
ATOM      6  C   UNL d   1      25.792 -13.519  -4.277  0.00  0.00     0.071 A 
ATOM      7  C   UNL d   1      25.936 -12.270  -5.059  0.00  0.00     0.073 C 
ATOM      8  C   UNL d   1      26.812 -14.265  -3.870  0.00  0.00     0.085 A 
ATOM      9  C   UNL d   1      28.247 -14.239  -3.979  0.00  0.00     0.141 A 
ATOM     10  N   UNL d   1      28.860 -13.302  -4.637  0.00  0.00    -0.283 NA
ATOM     11  N   UNL d   1      28.925 -15.274  -3.360  0.00  0.00    -0.298 N 
ATOM     12  H   UNL d   1      28.260 -12.604  -5.055  0.00  0.00     0.188 HD
ENDROOT
BRANCH   1  13
ATOM     13  S   UNL d   1      28.853 -16.549  -0.907  0.00  0.00    -0.111 SA
BRANCH  13  14
ATOM     14  C   UNL d   1      27.516 -15.948   0.230  0.00  0.00     0.181 C 
BRANCH  14  15
ATOM     15  C   UNL d   1      26.372 -16.931   0.208  0.00  0.00     0.231 C 
ATOM     16  N   UNL d   1      25.256 -16.593  -0.571  0.00  0.00    -0.327 N 
ATOM     17  H   UNL d   1      25.228 -15.702  -1.058  0.00  0.00     0.169 HD
ATOM     18  O   UNL d   1      26.455 -17.937   0.908  0.00  0.00    -0.272 OA
BRANCH  16  19
ATOM     19  C   UNL d   1      24.071 -17.391  -0.597  0.00  0.00     0.034 A 
ATOM     20  C   UNL d   1      24.109 -18.782  -0.465  0.00  0.00     0.032 A 
ATOM     21  C   UNL d   1      22.919 -19.534  -0.600  0.00  0.00     0.039 A 
ATOM     22  C   UNL d   1      21.685 -18.910  -0.816  0.00  0.00     0.068 A 
ATOM     23  C   UNL d   1      21.646 -17.535  -0.896  0.00  0.00     0.039 A 
ATOM     24  C   UNL d   1      22.818 -16.804  -0.782  0.00  0.00     0.032 A 
BRANCH  22  25
ATOM     25  O   UNL d   1      20.561 -19.689  -0.836  0.00  0.00    -0.352 OA
BRANCH  25  26
ATOM     26  C   UNL d   1      19.555 -19.335   0.122  0.00  0.00     0.171 C 
ATOM     27  C   UNL d   1      19.868 -20.041   1.428  0.00  0.00     0.034 C 
ENDBRANCH  25  26
ENDBRANCH  22  25
ENDBRANCH  16  19
ENDBRANCH  14  15
ENDBRANCH  13  14
ENDBRANCH   1  13
BRANCH  11  28
ATOM     28  C   UNL d   1      30.315 -15.366  -3.595  0.00  0.00     0.045 A 
ATOM     29  C   UNL d   1      31.174 -14.930  -2.546  0.00  0.00     0.030 A 
ATOM     30  C   UNL d   1      32.544 -14.827  -2.691  0.00  0.00     0.002 A 
ATOM     31  C   UNL d   1      33.104 -15.187  -3.903  0.00  0.00     0.001 A 
ATOM     32  C   UNL d   1      32.293 -15.660  -4.941  0.00  0.00     0.009 A 
ATOM     33  C   UNL d   1      30.900 -15.777  -4.799  0.00  0.00    -0.035 A 
ATOM     34  C   UNL d   1      30.111 -16.311  -5.957  0.00  0.00     0.050 C 
ENDBRANCH  11  28
TORSDOF 7
ENDMDL
MODEL 3
REMARK VINA RESULT:    -8.329      1.823      3.682
REMARK INTER + INTRA:         -12.408
REMARK INTER:                 -10.417
REMARK INTRA:                  -1.991
REMARK CONF_INDEPENDENT:        2.088
REMARK UNBOUND:                -1.991
REMARK  7 active torsions:
REMARK  status: ('A' for Active; 'I' for Inactive)
REMARK    1  A    between atoms: C_2  and  O_3 
REMARK    2  A    between atoms: O_3  and  C_4 
REMARK    3  A    between atoms: C_7  and  N_8 
REMARK       I    between atoms: N_8  and  C_9 
REMARK    4  A    between atoms: C_9  and  C_11 
REMARK    5  A    between atoms: C_11  and  S_12 
REMARK    6  A    between atoms: S_12  and  C_13 
REMARK    7  A    between atoms: N_23  and  C_24 
ROOT
ATOM      1  C   UNL d   1      28.514 -16.270  -2.290  0.00  0.00     0.281 A 
ATOM      2  N   UNL d   1      27.437 -15.835  -3.227  0.00  0.00    -0.232 NA
ATOM      3  C   UNL d   1      27.824 -15.589  -4.423  0.00  0.00     0.185 A 
ATOM      4  N   UNL d   1      27.000 -15.174  -5.445  0.00  0.00    -0.129 NA
ATOM      5  N   UNL d   1      27.719 -14.991  -6.474  0.00  0.00    -0.152 NA
ATOM      6  C   UNL d   1      29.016 -15.291  -6.173  0.00  0.00     0.071 A 
ATOM      7  C   UNL d   1      30.125 -15.189  -7.148  0.00  0.00     0.073 C 
ATOM      8  C   UNL d   1      29.165 -15.684  -4.914  0.00  0.00     0.085 A 
ATOM      9  C   UNL d   1      30.243 -16.124  -4.067  0.00  0.00     0.141 A 
ATOM     10  N   UNL d   1      31.457 -16.232  -4.516  0.00  0.00    -0.283 NA
ATOM     11  N   UNL d   1      29.905 -16.437  -2.762  0.00  0.00    -0.298 N 
ATOM     12  H   UNL d   1      31.582 -15.984  -5.487  0.00  0.00     0.188 HD
ENDROOT
BRANCH   1  13
ATOM     13  S   UNL d   1      28.405 -15.296  -0.739  0.00  0.00    -0.111 SA
BRANCH  13  14
ATOM     14  C   UNL d   1      28.239 -16.558   0.611  0.00  0.00     0.181 C 
BRANCH  14  15
ATOM     15  C   UNL d   1      26.890 -17.224   0.499  0.00  0.00     0.231 C 
ATOM     16  N   UNL d   1      26.009 -16.722  -0.469  0.00  0.00    -0.327 N 
ATOM     17  H   UNL d   1      26.277 -15.920  -1.032  0.00  0.00     0.169 HD
ATOM     18  O   UNL d   1      26.618 -18.124   1.291  0.00  0.00    -0.272 OA
BRANCH  16  19
ATOM     19  C   UNL d   1      24.671 -17.200  -0.608  0.00  0.00     0.034 A 
ATOM     20  C   UNL d   1      23.596 -16.341  -0.854  0.00  0.00     0.032 A 
ATOM     21  C   UNL d   1      22.277 -16.853  -0.882  0.00  0.00     0.039 A 
ATOM     22  C   UNL d   1      22.025 -18.219  -0.716  0.00  0.00     0.068 A 
ATOM     23  C   UNL d   1      23.092 -19.069  -0.523  0.00  0.00     0.039 A 
ATOM     24  C   UNL d   1      24.379 -18.560  -0.478  0.00  0.00     0.032 A 
BRANCH  22  25
ATOM     25  O   UNL d   1      20.738 -18.660  -0.855  0.00  0.00    -0.352 OA
BRANCH  25  26
ATOM     26  C   UNL d   1      20.209 -19.368   0.274  0.00  0.00     0.171 C 
ATOM     27  C   UNL d   1      18.923 -20.051  -0.149  0.00  0.00     0.034 C 
ENDBRANCH  25  26
ENDBRANCH  22  25
ENDBRANCH  16  19
ENDBRANCH  14  15
ENDBRANCH  13  14
ENDBRANCH   1  13
BRANCH  11  28
ATOM     28  C   UNL d   1      30.906 -17.030  -1.962  0.00  0.00     0.045 A 
ATOM     29  C   UNL d   1      30.775 -18.424  -1.696  0.00  0.00     0.030 A 
ATOM     30  C   UNL d   1      31.595 -19.102  -0.815  0.00  0.00     0.002 A 
ATOM     31  C   UNL d   1      32.603 -18.397  -0.184  0.00  0.00     0.001 A 
ATOM     32  C   UNL d   1      32.788 -17.037  -0.454  0.00  0.00     0.009 A 
ATOM     33  C   UNL d   1      31.964 -16.341  -1.357  0.00  0.00    -0.035 A 
ATOM     34  C   UNL d   1      32.246 -14.889  -1.601  0.00  0.00     0.050 C 
ENDBRANCH  11  28
TORSDOF 7
ENDMDL
MODEL 4
REMARK VINA RESULT:    -8.312      2.907      5.071
REMARK INTER + INTRA:         -12.531
REMARK INTER:                 -10.400
REMARK INTRA:                  -2.131
REMARK CONF_INDEPENDENT:        2.088
REMARK UNBOUND:                -2.131
REMARK  7 active torsions:
REMARK  status: ('A' for Active; 'I' for Inactive)
REMARK    1  A    between atoms: C_2  and  O_3 
REMARK    2  A    between atoms: O_3  and  C_4 
REMARK    3  A    between atoms: C_7  and  N_8 
REMARK       I    between atoms: N_8  and  C_9 
REMARK    4  A    between atoms: C_9  and  C_11 
REMARK    5  A    between atoms: C_11  and  S_12 
REMARK    6  A    between atoms: S_12  and  C_13 
REMARK    7  A    between atoms: N_23  and  C_24 
ROOT
ATOM      1  C   UNL d   1      27.585 -14.630  -0.081  0.00  0.00     0.281 A 
ATOM      2  N   UNL d   1      27.434 -14.140   1.321  0.00  0.00    -0.232 NA
ATOM      3  C   UNL d   1      27.251 -12.877   1.439  0.00  0.00     0.185 A 
ATOM      4  N   UNL d   1      27.090 -12.215   2.635  0.00  0.00    -0.129 NA
ATOM      5  N   UNL d   1      26.969 -10.978   2.381  0.00  0.00    -0.152 NA
ATOM      6  C   UNL d   1      27.029 -10.790   1.030  0.00  0.00     0.071 A 
ATOM      7  C   UNL d   1      26.921  -9.462   0.385  0.00  0.00     0.073 C 
ATOM      8  C   UNL d   1      27.192 -11.929   0.368  0.00  0.00     0.085 A 
ATOM      9  C   UNL d   1      27.304 -12.343  -1.006  0.00  0.00     0.141 A 
ATOM     10  N   UNL d   1      27.229 -11.487  -1.980  0.00  0.00    -0.283 NA
ATOM     11  N   UNL d   1      27.477 -13.698  -1.223  0.00  0.00    -0.298 N 
ATOM     12  H   UNL d   1      27.092 -10.525  -1.701  0.00  0.00     0.188 HD
ENDROOT
BRANCH   1  13
ATOM     13  S   UNL d   1      29.058 -15.719  -0.192  0.00  0.00    -0.111 SA
BRANCH  13  14
ATOM     14  C   UNL d   1      28.375 -17.439  -0.324  0.00  0.00     0.181 C 
BRANCH  14  15
ATOM     15  C   UNL d   1      26.935 -17.364  -0.770  0.00  0.00     0.231 C 
ATOM     16  N   UNL d   1      25.957 -17.695   0.179  0.00  0.00    -0.327 N 
ATOM     17  H   UNL d   1      26.233 -18.005   1.106  0.00  0.00     0.169 HD
ATOM     18  O   UNL d   1      26.702 -17.075  -1.941  0.00  0.00    -0.272 OA
BRANCH  16  19
ATOM     19  C   UNL d   1      24.567 -17.758  -0.146  0.00  0.00     0.034 A 
ATOM     20  C   UNL d   1      23.809 -16.610  -0.391  0.00  0.00     0.032 A 
ATOM     21  C   UNL d   1      22.415 -16.720  -0.608  0.00  0.00     0.039 A 
ATOM     22  C   UNL d   1      21.780 -17.967  -0.632  0.00  0.00     0.068 A 
ATOM     23  C   UNL d   1      22.541 -19.100  -0.438  0.00  0.00     0.039 A 
ATOM     24  C   UNL d   1      23.902 -18.984  -0.207  0.00  0.00     0.032 A 
BRANCH  22  25
ATOM     25  O   UNL d   1      20.450 -18.009  -0.946  0.00  0.00    -0.352 OA
BRANCH  25  26
ATOM     26  C   UNL d   1      19.898 -19.324  -1.098  0.00  0.00     0.171 C 
ATOM     27  C   UNL d   1      19.254 -19.728   0.215  0.00  0.00     0.034 C 
ENDBRANCH  25  26
ENDBRANCH  22  25
ENDBRANCH  16  19
ENDBRANCH  14  15
ENDBRANCH  13  14
ENDBRANCH   1  13
BRANCH  11  28
ATOM     28  C   UNL d   1      27.418 -14.149  -2.560  0.00  0.00     0.045 A 
ATOM     29  C   UNL d   1      28.653 -14.233  -3.265  0.00  0.00     0.030 A 
ATOM     30  C   UNL d   1      28.731 -14.517  -4.615  0.00  0.00     0.002 A 
ATOM     31  C   UNL d   1      27.556 -14.754  -5.303  0.00  0.00     0.001 A 
ATOM     32  C   UNL d   1      26.328 -14.722  -4.633  0.00  0.00     0.009 A 
ATOM     33  C   UNL d   1      26.240 -14.443  -3.257  0.00  0.00    -0.035 A 
ATOM     34  C   UNL d   1      24.885 -14.448  -2.617  0.00  0.00     0.050 C 
ENDBRANCH  11  28
TORSDOF 7
ENDMDL
MODEL 5
REMARK VINA RESULT:    -8.302      2.949      4.282
REMARK INTER + INTRA:         -12.722
REMARK INTER:                 -10.390
REMARK INTRA:                  -2.332
REMARK CONF_INDEPENDENT:        2.088
REMARK UNBOUND:                -2.332
REMARK  7 active torsions:
REMARK  status: ('A' for Active; 'I' for Inactive)
REMARK    1  A    between atoms: C_2  and  O_3 
REMARK    2  A    between atoms: O_3  and  C_4 
REMARK    3  A    between atoms: C_7  and  N_8 
REMARK       I    between atoms: N_8  and  C_9 
REMARK    4  A    between atoms: C_9  and  C_11 
REMARK    5  A    between atoms: C_11  and  S_12 
REMARK    6  A    between atoms: S_12  and  C_13 
REMARK    7  A    between atoms: N_23  and  C_24 
ROOT
ATOM      1  C   UNL d   1      28.032 -15.023  -1.710  0.00  0.00     0.281 A 
ATOM      2  N   UNL d   1      26.856 -15.613  -2.415  0.00  0.00    -0.232 NA
ATOM      3  C   UNL d   1      26.260 -14.824  -3.230  0.00  0.00     0.185 A 
ATOM      4  N   UNL d   1      25.155 -15.158  -3.981  0.00  0.00    -0.129 NA
ATOM      5  N   UNL d   1      24.809 -14.133  -4.643  0.00  0.00    -0.152 NA
ATOM      6  C   UNL d   1      25.672 -13.111  -4.367  0.00  0.00     0.071 A 
ATOM      7  C   UNL d   1      25.561 -11.764  -4.971  0.00  0.00     0.073 C 
ATOM      8  C   UNL d   1      26.614 -13.464  -3.501  0.00  0.00     0.085 A 
ATOM      9  C   UNL d   1      27.754 -12.848  -2.875  0.00  0.00     0.141 A 
ATOM     10  N   UNL d   1      28.091 -11.620  -3.136  0.00  0.00    -0.283 NA
ATOM     11  N   UNL d   1      28.471 -13.641  -1.997  0.00  0.00    -0.298 N 
ATOM     12  H   UNL d   1      27.497 -11.141  -3.799  0.00  0.00     0.188 HD
ENDROOT
BRANCH   1  13
ATOM     13  S   UNL d   1      27.902 -15.366   0.088  0.00  0.00    -0.111 SA
BRANCH  13  14
ATOM     14  C   UNL d   1      27.977 -17.214   0.231  0.00  0.00     0.181 C 
BRANCH  14  15
ATOM     15  C   UNL d   1      26.573 -17.766   0.222  0.00  0.00     0.231 C 
ATOM     16  N   UNL d   1      25.682 -17.227  -0.717  0.00  0.00    -0.327 N 
ATOM     17  H   UNL d   1      25.982 -16.473  -1.327  0.00  0.00     0.169 HD
ATOM     18  O   UNL d   1      26.273 -18.609   1.065  0.00  0.00    -0.272 OA
BRANCH  16  19
ATOM     19  C   UNL d   1      24.303 -17.595  -0.761  0.00  0.00     0.034 A 
ATOM     20  C   UNL d   1      23.289 -16.653  -0.960  0.00  0.00     0.032 A 
ATOM     21  C   UNL d   1      21.933 -17.054  -0.895  0.00  0.00     0.039 A 
ATOM     22  C   UNL d   1      21.580 -18.391  -0.683  0.00  0.00     0.068 A 
ATOM     23  C   UNL d   1      22.584 -19.324  -0.537  0.00  0.00     0.039 A 
ATOM     24  C   UNL d   1      23.909 -18.923  -0.583  0.00  0.00     0.032 A 
BRANCH  22  25
ATOM     25  O   UNL d   1      20.256 -18.725  -0.731  0.00  0.00    -0.352 OA
BRANCH  25  26
ATOM     26  C   UNL d   1      19.907 -19.942  -0.058  0.00  0.00     0.171 C 
ATOM     27  C   UNL d   1      19.861 -19.667   1.434  0.00  0.00     0.034 C 
ENDBRANCH  25  26
ENDBRANCH  22  25
ENDBRANCH  16  19
ENDBRANCH  14  15
ENDBRANCH  13  14
ENDBRANCH   1  13
BRANCH  11  28
ATOM     28  C   UNL d   1      29.686 -13.118  -1.502  0.00  0.00     0.045 A 
ATOM     29  C   UNL d   1      30.852 -13.346  -2.288  0.00  0.00     0.030 A 
ATOM     30  C   UNL d   1      32.124 -13.021  -1.858  0.00  0.00     0.002 A 
ATOM     31  C   UNL d   1      32.264 -12.425  -0.619  0.00  0.00     0.001 A 
ATOM     32  C   UNL d   1      31.137 -12.148   0.162  0.00  0.00     0.009 A 
ATOM     33  C   UNL d   1      29.838 -12.467  -0.272  0.00  0.00    -0.035 A 
ATOM     34  C   UNL d   1      28.685 -12.117   0.621  0.00  0.00     0.050 C 
ENDBRANCH  11  28
TORSDOF 7
ENDMDL
MODEL 6
REMARK VINA RESULT:    -8.028      3.304      5.498
REMARK INTER + INTRA:         -12.656
REMARK INTER:                 -10.117
REMARK INTRA:                  -2.539
REMARK CONF_INDEPENDENT:        2.088
REMARK UNBOUND:                -2.539
REMARK  7 active torsions:
REMARK  status: ('A' for Active; 'I' for Inactive)
REMARK    1  A    between atoms: C_2  and  O_3 
REMARK    2  A    between atoms: O_3  and  C_4 
REMARK    3  A    between atoms: C_7  and  N_8 
REMARK       I    between atoms: N_8  and  C_9 
REMARK    4  A    between atoms: C_9  and  C_11 
REMARK    5  A    between atoms: C_11  and  S_12 
REMARK    6  A    between atoms: S_12  and  C_13 
REMARK    7  A    between atoms: N_23  and  C_24 
ROOT
ATOM      1  C   UNL d   1      28.266 -14.967  -6.137  0.00  0.00     0.281 A 
ATOM      2  N   UNL d   1      27.015 -15.333  -5.409  0.00  0.00    -0.232 NA
ATOM      3  C   UNL d   1      26.334 -14.343  -4.966  0.00  0.00     0.185 A 
ATOM      4  N   UNL d   1      25.153 -14.451  -4.267  0.00  0.00    -0.129 NA
ATOM      5  N   UNL d   1      24.776 -13.280  -3.955  0.00  0.00    -0.152 NA
ATOM      6  C   UNL d   1      25.674 -12.376  -4.446  0.00  0.00     0.071 A 
ATOM      7  C   UNL d   1      25.541 -10.913  -4.264  0.00  0.00     0.073 C 
ATOM      8  C   UNL d   1      26.672 -12.958  -5.101  0.00  0.00     0.085 A 
ATOM      9  C   UNL d   1      27.850 -12.540  -5.814  0.00  0.00     0.141 A 
ATOM     10  N   UNL d   1      28.147 -11.283  -5.957  0.00  0.00    -0.283 NA
ATOM     11  N   UNL d   1      28.629 -13.550  -6.349  0.00  0.00    -0.298 N 
ATOM     12  H   UNL d   1      27.499 -10.636  -5.530  0.00  0.00     0.188 HD
ENDROOT
BRANCH   1  13
ATOM     13  S   UNL d   1      29.662 -15.968  -5.493  0.00  0.00    -0.111 SA
BRANCH  13  14
ATOM     14  C   UNL d   1      29.822 -15.478  -3.711  0.00  0.00     0.181 C 
BRANCH  14  15
ATOM     15  C   UNL d   1      28.885 -16.322  -2.882  0.00  0.00     0.231 C 
ATOM     16  N   UNL d   1      27.550 -15.903  -2.804  0.00  0.00    -0.327 N 
ATOM     17  H   UNL d   1      27.260 -15.044  -3.262  0.00  0.00     0.169 HD
ATOM     18  O   UNL d   1      29.349 -17.290  -2.283  0.00  0.00    -0.272 OA
BRANCH  16  19
ATOM     19  C   UNL d   1      26.589 -16.558  -1.975  0.00  0.00     0.034 A 
ATOM     20  C   UNL d   1      25.238 -16.637  -2.324  0.00  0.00     0.032 A 
ATOM     21  C   UNL d   1      24.310 -17.208  -1.421  0.00  0.00     0.039 A 
ATOM     22  C   UNL d   1      24.724 -17.745  -0.197  0.00  0.00     0.068 A 
ATOM     23  C   UNL d   1      26.064 -17.709   0.120  0.00  0.00     0.039 A 
ATOM     24  C   UNL d   1      26.966 -17.132  -0.759  0.00  0.00     0.032 A 
BRANCH  22  25
ATOM     25  O   UNL d   1      23.791 -18.371   0.583  0.00  0.00    -0.352 OA
BRANCH  25  26
ATOM     26  C   UNL d   1      22.426 -18.112   0.230  0.00  0.00     0.171 C 
ATOM     27  C   UNL d   1      21.883 -19.325  -0.504  0.00  0.00     0.034 C 
ENDBRANCH  25  26
ENDBRANCH  22  25
ENDBRANCH  16  19
ENDBRANCH  14  15
ENDBRANCH  13  14
ENDBRANCH   1  13
BRANCH  11  28
ATOM     28  C   UNL d   1      29.692 -13.164  -7.196  0.00  0.00     0.045 A 
ATOM     29  C   UNL d   1      31.012 -13.322  -6.684  0.00  0.00     0.030 A 
ATOM     30  C   UNL d   1      32.134 -12.854  -7.340  0.00  0.00     0.002 A 
ATOM     31  C   UNL d   1      31.965 -12.226  -8.559  0.00  0.00     0.001 A 
ATOM     32  C   UNL d   1      30.687 -12.091  -9.112  0.00  0.00     0.009 A 
ATOM     33  C   UNL d   1      29.541 -12.573  -8.457  0.00  0.00    -0.035 A 
ATOM     34  C   UNL d   1      28.212 -12.403  -9.131  0.00  0.00     0.050 C 
ENDBRANCH  11  28
TORSDOF 7
ENDMDL
MODEL 7
REMARK VINA RESULT:    -8.005      2.335      3.766
REMARK INTER + INTRA:         -12.619
REMARK INTER:                 -10.093
REMARK INTRA:                  -2.526
REMARK CONF_INDEPENDENT:        2.088
REMARK UNBOUND:                -2.526
REMARK  7 active torsions:
REMARK  status: ('A' for Active; 'I' for Inactive)
REMARK    1  A    between atoms: C_2  and  O_3 
REMARK    2  A    between atoms: O_3  and  C_4 
REMARK    3  A    between atoms: C_7  and  N_8 
REMARK       I    between atoms: N_8  and  C_9 
REMARK    4  A    between atoms: C_9  and  C_11 
REMARK    5  A    between atoms: C_11  and  S_12 
REMARK    6  A    between atoms: S_12  and  C_13 
REMARK    7  A    between atoms: N_23  and  C_24 
ROOT
ATOM      1  C   UNL d   1      29.004 -14.628  -1.209  0.00  0.00     0.281 A 
ATOM      2  N   UNL d   1      29.123 -15.452  -2.448  0.00  0.00    -0.232 NA
ATOM      3  C   UNL d   1      28.181 -15.289  -3.301  0.00  0.00     0.185 A 
ATOM      4  N   UNL d   1      28.091 -15.948  -4.507  0.00  0.00    -0.129 NA
ATOM      5  N   UNL d   1      27.021 -15.573  -5.075  0.00  0.00    -0.152 NA
ATOM      6  C   UNL d   1      26.389 -14.658  -4.283  0.00  0.00     0.071 A 
ATOM      7  C   UNL d   1      25.107 -14.012  -4.644  0.00  0.00     0.073 C 
ATOM      8  C   UNL d   1      27.055 -14.416  -3.160  0.00  0.00     0.085 A 
ATOM      9  C   UNL d   1      26.899 -13.576  -2.002  0.00  0.00     0.141 A 
ATOM     10  N   UNL d   1      25.890 -12.767  -1.882  0.00  0.00    -0.283 NA
ATOM     11  N   UNL d   1      27.890 -13.671  -1.041  0.00  0.00    -0.298 N 
ATOM     12  H   UNL d   1      25.234 -12.777  -2.651  0.00  0.00     0.188 HD
ENDROOT
BRANCH   1  13
ATOM     13  S   UNL d   1      29.246 -15.698   0.262  0.00  0.00    -0.111 SA
BRANCH  13  14
ATOM     14  C   UNL d   1      29.030 -17.431  -0.363  0.00  0.00     0.181 C 
BRANCH  14  15
ATOM     15  C   UNL d   1      27.583 -17.832  -0.213  0.00  0.00     0.231 C 
ATOM     16  N   UNL d   1      26.636 -17.079  -0.921  0.00  0.00    -0.327 N 
ATOM     17  H   UNL d   1      26.933 -16.279  -1.473  0.00  0.00     0.169 HD
ATOM     18  O   UNL d   1      27.311 -18.751   0.556  0.00  0.00    -0.272 OA
BRANCH  16  19
ATOM     19  C   UNL d   1      25.231 -17.295  -0.787  0.00  0.00     0.034 A 
ATOM     20  C   UNL d   1      24.696 -18.559  -0.521  0.00  0.00     0.032 A 
ATOM     21  C   UNL d   1      23.292 -18.739  -0.498  0.00  0.00     0.039 A 
ATOM     22  C   UNL d   1      22.419 -17.662  -0.688  0.00  0.00     0.068 A 
ATOM     23  C   UNL d   1      22.952 -16.409  -0.902  0.00  0.00     0.039 A 
ATOM     24  C   UNL d   1      24.326 -16.243  -0.942  0.00  0.00     0.032 A 
BRANCH  22  25
ATOM     25  O   UNL d   1      21.077 -17.887  -0.554  0.00  0.00    -0.352 OA
BRANCH  25  26
ATOM     26  C   UNL d   1      20.676 -19.261  -0.637  0.00  0.00     0.171 C 
ATOM     27  C   UNL d   1      19.230 -19.365  -0.189  0.00  0.00     0.034 C 
ENDBRANCH  25  26
ENDBRANCH  22  25
ENDBRANCH  16  19
ENDBRANCH  14  15
ENDBRANCH  13  14
ENDBRANCH   1  13
BRANCH  11  28
ATOM     28  C   UNL d   1      27.851 -12.739   0.019  0.00  0.00     0.045 A 
ATOM     29  C   UNL d   1      26.942 -13.012   1.082  0.00  0.00     0.030 A 
ATOM     30  C   UNL d   1      26.693 -12.119   2.106  0.00  0.00     0.002 A 
ATOM     31  C   UNL d   1      27.378 -10.919   2.110  0.00  0.00     0.001 A 
ATOM     32  C   UNL d   1      28.310 -10.636   1.105  0.00  0.00     0.009 A 
ATOM     33  C   UNL d   1      28.576 -11.542   0.064  0.00  0.00    -0.035 A 
ATOM     34  C   UNL d   1      29.604 -11.165  -0.960  0.00  0.00     0.050 C 
ENDBRANCH  11  28
TORSDOF 7
ENDMDL
MODEL 8
REMARK VINA RESULT:    -7.851      3.217      5.399
REMARK INTER + INTRA:         -12.480
REMARK INTER:                  -9.939
REMARK INTRA:                  -2.541
REMARK CONF_INDEPENDENT:        2.088
REMARK UNBOUND:                -2.541
REMARK  7 active torsions:
REMARK  status: ('A' for Active; 'I' for Inactive)
REMARK    1  A    between atoms: C_2  and  O_3 
REMARK    2  A    between atoms: O_3  and  C_4 
REMARK    3  A    between atoms: C_7  and  N_8 
REMARK       I    between atoms: N_8  and  C_9 
REMARK    4  A    between atoms: C_9  and  C_11 
REMARK    5  A    between atoms: C_11  and  S_12 
REMARK    6  A    between atoms: S_12  and  C_13 
REMARK    7  A    between atoms: N_23  and  C_24 
ROOT
ATOM      1  C   UNL d   1      28.235 -14.853  -6.105  0.00  0.00     0.281 A 
ATOM      2  N   UNL d   1      26.979 -15.262  -5.411  0.00  0.00    -0.232 NA
ATOM      3  C   UNL d   1      26.303 -14.300  -4.901  0.00  0.00     0.185 A 
ATOM      4  N   UNL d   1      25.117 -14.450  -4.216  0.00  0.00    -0.129 NA
ATOM      5  N   UNL d   1      24.747 -13.302  -3.823  0.00  0.00    -0.152 NA
ATOM      6  C   UNL d   1      25.654 -12.372  -4.243  0.00  0.00     0.071 A 
ATOM      7  C   UNL d   1      25.530 -10.924  -3.958  0.00  0.00     0.073 C 
ATOM      8  C   UNL d   1      26.651 -12.912  -4.934  0.00  0.00     0.085 A 
ATOM      9  C   UNL d   1      27.835 -12.453  -5.611  0.00  0.00     0.141 A 
ATOM     10  N   UNL d   1      28.141 -11.191  -5.661  0.00  0.00    -0.283 NA
ATOM     11  N   UNL d   1      28.610 -13.428  -6.214  0.00  0.00    -0.298 N 
ATOM     12  H   UNL d   1      27.496 -10.571  -5.192  0.00  0.00     0.188 HD
ENDROOT
BRANCH   1  13
ATOM     13  S   UNL d   1      29.622 -15.908  -5.529  0.00  0.00    -0.111 SA
BRANCH  13  14
ATOM     14  C   UNL d   1      29.843 -15.474  -3.739  0.00  0.00     0.181 C 
BRANCH  14  15
ATOM     15  C   UNL d   1      28.900 -16.310  -2.909  0.00  0.00     0.231 C 
ATOM     16  N   UNL d   1      27.581 -15.851  -2.789  0.00  0.00    -0.327 N 
ATOM     17  H   UNL d   1      27.307 -14.972  -3.218  0.00  0.00     0.169 HD
ATOM     18  O   UNL d   1      29.347 -17.305  -2.345  0.00  0.00    -0.272 OA
BRANCH  16  19
ATOM     19  C   UNL d   1      26.619 -16.497  -1.953  0.00  0.00     0.034 A 
ATOM     20  C   UNL d   1      26.942 -16.972  -0.679  0.00  0.00     0.032 A 
ATOM     21  C   UNL d   1      25.981 -17.695   0.067  0.00  0.00     0.039 A 
ATOM     22  C   UNL d   1      24.687 -17.905  -0.424  0.00  0.00     0.068 A 
ATOM     23  C   UNL d   1      24.359 -17.392  -1.660  0.00  0.00     0.039 A 
ATOM     24  C   UNL d   1      25.310 -16.702  -2.394  0.00  0.00     0.032 A 
BRANCH  22  25
ATOM     25  O   UNL d   1      23.779 -18.524   0.389  0.00  0.00    -0.352 OA
BRANCH  25  26
ATOM     26  C   UNL d   1      22.421 -18.094   0.228  0.00  0.00     0.171 C 
ATOM     27  C   UNL d   1      21.748 -19.002  -0.784  0.00  0.00     0.034 C 
ENDBRANCH  25  26
ENDBRANCH  22  25
ENDBRANCH  16  19
ENDBRANCH  14  15
ENDBRANCH  13  14
ENDBRANCH   1  13
BRANCH  11  28
ATOM     28  C   UNL d   1      29.679 -12.989  -7.025  0.00  0.00     0.045 A 
ATOM     29  C   UNL d   1      29.371 -12.675  -8.380  0.00  0.00     0.030 A 
ATOM     30  C   UNL d   1      30.338 -12.376  -9.321  0.00  0.00     0.002 A 
ATOM     31  C   UNL d   1      31.660 -12.358  -8.919  0.00  0.00     0.001 A 
ATOM     32  C   UNL d   1      31.995 -12.619  -7.586  0.00  0.00     0.009 A 
ATOM     33  C   UNL d   1      31.018 -12.915  -6.620  0.00  0.00    -0.035 A 
ATOM     34  C   UNL d   1      31.465 -13.164  -5.210  0.00  0.00     0.050 C 
ENDBRANCH  11  28
TORSDOF 7
ENDMDL
MODEL 9
REMARK VINA RESULT:    -7.587      2.171      4.958
REMARK INTER + INTRA:         -12.439
REMARK INTER:                  -9.675
REMARK INTRA:                  -2.763
REMARK CONF_INDEPENDENT:        2.088
REMARK UNBOUND:                -2.763
REMARK  7 active torsions:
REMARK  status: ('A' for Active; 'I' for Inactive)
REMARK    1  A    between atoms: C_2  and  O_3 
REMARK    2  A    between atoms: O_3  and  C_4 
REMARK    3  A    between atoms: C_7  and  N_8 
REMARK       I    between atoms: N_8  and  C_9 
REMARK    4  A    between atoms: C_9  and  C_11 
REMARK    5  A    between atoms: C_11  and  S_12 
REMARK    6  A    between atoms: S_12  and  C_13 
REMARK    7  A    between atoms: N_23  and  C_24 
ROOT
ATOM      1  C   UNL d   1      29.745 -15.458  -4.978  0.00  0.00     0.281 A 
ATOM      2  N   UNL d   1      29.395 -14.872  -3.650  0.00  0.00    -0.232 NA
ATOM      3  C   UNL d   1      29.593 -15.644  -2.647  0.00  0.00     0.185 A 
ATOM      4  N   UNL d   1      29.338 -15.309  -1.336  0.00  0.00    -0.129 NA
ATOM      5  N   UNL d   1      29.613 -16.316  -0.616  0.00  0.00    -0.152 NA
ATOM      6  C   UNL d   1      30.068 -17.326  -1.415  0.00  0.00     0.071 A 
ATOM      7  C   UNL d   1      30.481 -18.651  -0.900  0.00  0.00     0.073 C 
ATOM      8  C   UNL d   1      30.097 -16.983  -2.697  0.00  0.00     0.085 A 
ATOM      9  C   UNL d   1      30.477 -17.594  -3.943  0.00  0.00     0.141 A 
ATOM     10  N   UNL d   1      30.955 -18.801  -3.989  0.00  0.00    -0.283 NA
ATOM     11  N   UNL d   1      30.320 -16.816  -5.077  0.00  0.00    -0.298 N 
ATOM     12  H   UNL d   1      31.032 -19.269  -3.097  0.00  0.00     0.188 HD
ENDROOT
BRANCH   1  13
ATOM     13  S   UNL d   1      28.359 -15.189  -6.149  0.00  0.00    -0.111 SA
BRANCH  13  14
ATOM     14  C   UNL d   1      27.227 -13.997  -5.288  0.00  0.00     0.181 C 
BRANCH  14  15
ATOM     15  C   UNL d   1      26.272 -14.770  -4.411  0.00  0.00     0.231 C 
ATOM     16  N   UNL d   1      26.669 -15.003  -3.087  0.00  0.00    -0.327 N 
ATOM     17  H   UNL d   1      27.581 -14.690  -2.768  0.00  0.00     0.169 HD
ATOM     18  O   UNL d   1      25.235 -15.195  -4.915  0.00  0.00    -0.272 OA
BRANCH  16  19
ATOM     19  C   UNL d   1      25.901 -15.803  -2.188  0.00  0.00     0.034 A 
ATOM     20  C   UNL d   1      26.476 -16.824  -1.425  0.00  0.00     0.032 A 
ATOM     21  C   UNL d   1      25.654 -17.653  -0.626  0.00  0.00     0.039 A 
ATOM     22  C   UNL d   1      24.273 -17.444  -0.542  0.00  0.00     0.068 A 
ATOM     23  C   UNL d   1      23.718 -16.406  -1.258  0.00  0.00     0.039 A 
ATOM     24  C   UNL d   1      24.525 -15.608  -2.053  0.00  0.00     0.032 A 
BRANCH  22  25
ATOM     25  O   UNL d   1      23.553 -18.218   0.326  0.00  0.00    -0.352 OA
BRANCH  25  26
ATOM     26  C   UNL d   1      22.782 -19.263  -0.282  0.00  0.00     0.171 C 
ATOM     27  C   UNL d   1      21.440 -18.689  -0.695  0.00  0.00     0.034 C 
ENDBRANCH  25  26
ENDBRANCH  22  25
ENDBRANCH  16  19
ENDBRANCH  14  15
ENDBRANCH  13  14
ENDBRANCH   1  13
BRANCH  11  28
ATOM     28  C   UNL d   1      30.843 -17.327  -6.286  0.00  0.00     0.045 A 
ATOM     29  C   UNL d   1      30.403 -18.623  -6.680  0.00  0.00     0.030 A 
ATOM     30  C   UNL d   1      30.938 -19.304  -7.756  0.00  0.00     0.002 A 
ATOM     31  C   UNL d   1      31.928 -18.685  -8.496  0.00  0.00     0.001 A 
ATOM     32  C   UNL d   1      32.354 -17.394  -8.163  0.00  0.00     0.009 A 
ATOM     33  C   UNL d   1      31.808 -16.690  -7.075  0.00  0.00    -0.035 A 
ATOM     34  C   UNL d   1      32.311 -15.304  -6.802  0.00  0.00     0.050 C 
ENDBRANCH  11  28
TORSDOF 7
ENDMDL
