MODEL 1
REMARK VINA RESULT:   -10.844      0.000      0.000
REMARK INTER + INTRA:         -15.420
REMARK INTER:                 -13.230
REMARK INTRA:                  -2.190
REMARK CONF_INDEPENDENT:        2.386
REMARK UNBOUND:                -2.190
REMARK  8 active torsions:
REMARK  status: ('A' for Active; 'I' for Inactive)
REMARK    1  A    between atoms: O_2  and  C_3 
REMARK    2  A    between atoms: C_8  and  O_9 
REMARK    3  A    between atoms: N_12  and  C_13 
REMARK    4  A    between atoms: C_13  and  C_14 
REMARK    5  A    between atoms: C_14  and  C_15 
REMARK    6  A    between atoms: C_18  and  N_19 
REMARK       I    between atoms: N_19  and  C_20 
REMARK    7  A    between atoms: C_20  and  C_22 
REMARK    8  A    between atoms: C_33  and  O_34 
ROOT
ATOM      1  C   UNL d   1      32.633 -18.235  -0.363  0.00  0.00    -0.057 C 
ATOM      2  C   UNL d   1      32.255 -17.050   0.283  0.00  0.00     0.009 C 
ATOM      3  C   UNL d   1      30.989 -16.499   0.039  0.00  0.00     0.030 C 
ATOM      4  C   UNL d   1      30.164 -17.056  -0.946  0.00  0.00     0.035 C 
ATOM      5  C   UNL d   1      30.666 -18.106  -1.713  0.00  0.00     0.030 C 
ATOM      6  C   UNL d   1      31.845 -18.741  -1.384  0.00  0.00     0.009 C 
ENDROOT
BRANCH   4   7
ATOM      7  N   UNL d   1      28.845 -16.583  -1.140  0.00  0.00    -0.323 N 
ATOM      8  C   UNL d   1      27.695 -17.275  -0.733  0.00  0.00     0.258 C 
ATOM      9  O   UNL d   1      27.640 -18.319  -0.103  0.00  0.00    -0.267 OA
ATOM     10  H   UNL d   1      28.745 -15.648  -1.514  0.00  0.00     0.169 HD
BRANCH   8  11
ATOM     11  C   UNL d   1      26.393 -16.675  -1.066  0.00  0.00     0.054 C 
ATOM     12  C   UNL d   1      25.259 -17.108  -0.355  0.00  0.00     0.019 C 
ATOM     13  C   UNL d   1      24.011 -16.530  -0.580  0.00  0.00     0.002 C 
ATOM     14  C   UNL d   1      23.853 -15.651  -1.645  0.00  0.00     0.017 C 
ATOM     15  C   UNL d   1      24.956 -15.346  -2.449  0.00  0.00     0.037 C 
ATOM     16  C   UNL d   1      24.784 -14.451  -3.615  0.00  0.00     0.196 C 
ATOM     17  C   UNL d   1      26.238 -15.864  -2.188  0.00  0.00     0.043 C 
ATOM     18  O   UNL d   1      23.706 -14.025  -3.959  0.00  0.00    -0.287 OA
ATOM     19  C   UNL d   1      26.020 -14.069  -4.319  0.00  0.00     0.039 C 
ATOM     20  C   UNL d   1      26.374 -12.732  -4.396  0.00  0.00     0.017 C 
ATOM     21  C   UNL d   1      27.033 -15.023  -4.411  0.00  0.00     0.061 C 
ATOM     22  C   UNL d   1      27.699 -12.416  -4.691  0.00  0.00     0.004 C 
ATOM     23  C   UNL d   1      28.519 -13.393  -5.256  0.00  0.00     0.039 C 
ATOM     24  C   UNL d   1      28.117 -14.721  -5.232  0.00  0.00     0.090 C 
ATOM     25  N   UNL d   1      27.323 -15.642  -3.103  0.00  0.00    -0.255 NA
ATOM     26  H   UNL d   1      27.950 -14.965  -2.640  0.00  0.00     0.134 HD
BRANCH  24  27
ATOM     27  O   UNL d   1      28.843 -15.573  -6.009  0.00  0.00    -0.354 OA
ATOM     28  C   UNL d   1      29.743 -16.461  -5.346  0.00  0.00     0.210 C 
ENDBRANCH  24  27
ENDBRANCH   8  11
ENDBRANCH   4   7
BRANCH   1  29
ATOM     29  C   UNL d   1      33.835 -19.019   0.037  0.00  0.00     0.066 C 
BRANCH  29  30
ATOM     30  C   UNL d   1      34.736 -18.224   0.971  0.00  0.00     0.240 C 
BRANCH  30  31
ATOM     31  N   UNL d   1      34.727 -18.836   2.349  0.00  0.00    -0.067 N 
ATOM     32  C   UNL d   1      33.371 -19.436   2.679  0.00  0.00     0.274 C 
ATOM     33  C   UNL d   1      33.372 -20.179   3.989  0.00  0.00    -0.023 A 
ATOM     34  C   UNL d   1      34.575 -20.572   4.599  0.00  0.00    -0.046 A 
ATOM     35  C   UNL d   1      32.161 -20.550   4.592  0.00  0.00     0.049 A 
ATOM     36  C   UNL d   1      34.557 -21.267   5.809  0.00  0.00     0.047 A 
ATOM     37  C   UNL d   1      35.910 -20.239   4.005  0.00  0.00     0.067 C 
ATOM     38  C   UNL d   1      33.352 -21.598   6.421  0.00  0.00     0.102 A 
ATOM     39  C   UNL d   1      32.139 -21.264   5.805  0.00  0.00     0.102 A 
ATOM     40  C   UNL d   1      35.803 -19.882   2.540  0.00  0.00     0.240 C 
ATOM     41  H   UNL d   1      34.875 -18.081   3.035  0.00  0.00     0.280 HD
BRANCH  38  42
ATOM     42  O   UNL d   1      33.392 -22.371   7.548  0.00  0.00    -0.353 OA
ATOM     43  C   UNL d   1      34.531 -23.228   7.621  0.00  0.00     0.210 C 
ENDBRANCH  38  42
BRANCH  39  44
ATOM     44  O   UNL d   1      30.875 -21.554   6.254  0.00  0.00    -0.353 OA
ATOM     45  C   UNL d   1      29.919 -21.948   5.274  0.00  0.00     0.210 C 
ENDBRANCH  39  44
ENDBRANCH  30  31
ENDBRANCH  29  30
ENDBRANCH   1  29
TORSDOF 8
ENDMDL
MODEL 2
REMARK VINA RESULT:   -10.097      1.205      3.443
REMARK INTER + INTRA:         -14.714
REMARK INTER:                 -12.483
REMARK INTRA:                  -2.230
REMARK CONF_INDEPENDENT:        2.386
REMARK UNBOUND:                -2.230
REMARK  8 active torsions:
REMARK  status: ('A' for Active; 'I' for Inactive)
REMARK    1  A    between atoms: O_2  and  C_3 
REMARK    2  A    between atoms: C_8  and  O_9 
REMARK    3  A    between atoms: N_12  and  C_13 
REMARK    4  A    between atoms: C_13  and  C_14 
REMARK    5  A    between atoms: C_14  and  C_15 
REMARK    6  A    between atoms: C_18  and  N_19 
REMARK       I    between atoms: N_19  and  C_20 
REMARK    7  A    between atoms: C_20  and  C_22 
REMARK    8  A    between atoms: C_33  and  O_34 
ROOT
ATOM      1  C   UNL d   1      33.417 -18.674  -0.444  0.00  0.00    -0.057 C 
ATOM      2  C   UNL d   1      32.176 -19.323  -0.488  0.00  0.00     0.009 C 
ATOM      3  C   UNL d   1      31.085 -18.696  -1.108  0.00  0.00     0.030 C 
ATOM      4  C   UNL d   1      31.204 -17.374  -1.558  0.00  0.00     0.035 C 
ATOM      5  C   UNL d   1      32.393 -16.694  -1.303  0.00  0.00     0.030 C 
ATOM      6  C   UNL d   1      33.511 -17.346  -0.826  0.00  0.00     0.009 C 
ENDROOT
BRANCH   4   7
ATOM      7  N   UNL d   1      30.154 -16.756  -2.277  0.00  0.00    -0.323 N 
ATOM      8  C   UNL d   1      30.095 -16.686  -3.676  0.00  0.00     0.258 C 
ATOM      9  O   UNL d   1      30.865 -17.190  -4.478  0.00  0.00    -0.267 OA
ATOM     10  H   UNL d   1      29.363 -16.429  -1.738  0.00  0.00     0.169 HD
BRANCH   8  11
ATOM     11  C   UNL d   1      28.966 -15.951  -4.268  0.00  0.00     0.054 C 
ATOM     12  C   UNL d   1      29.176 -15.274  -5.483  0.00  0.00     0.019 C 
ATOM     13  C   UNL d   1      28.128 -14.616  -6.125  0.00  0.00     0.002 C 
ATOM     14  C   UNL d   1      26.914 -14.472  -5.466  0.00  0.00     0.017 C 
ATOM     15  C   UNL d   1      26.762 -15.013  -4.184  0.00  0.00     0.037 C 
ATOM     16  C   UNL d   1      25.489 -14.820  -3.456  0.00  0.00     0.196 C 
ATOM     17  C   UNL d   1      27.786 -15.745  -3.555  0.00  0.00     0.043 C 
ATOM     18  O   UNL d   1      24.586 -14.140  -3.886  0.00  0.00    -0.287 OA
ATOM     19  C   UNL d   1      25.363 -15.542  -2.179  0.00  0.00     0.039 C 
ATOM     20  C   UNL d   1      24.349 -16.473  -2.021  0.00  0.00     0.017 C 
ATOM     21  C   UNL d   1      26.511 -15.683  -1.400  0.00  0.00     0.061 C 
ATOM     22  C   UNL d   1      24.475 -17.418  -1.003  0.00  0.00     0.004 C 
ATOM     23  C   UNL d   1      25.381 -17.185   0.030  0.00  0.00     0.039 C 
ATOM     24  C   UNL d   1      26.348 -16.201  -0.116  0.00  0.00     0.090 C 
ATOM     25  N   UNL d   1      27.655 -16.175  -2.192  0.00  0.00    -0.255 NA
ATOM     26  H   UNL d   1      27.510 -17.196  -2.231  0.00  0.00     0.134 HD
BRANCH  24  27
ATOM     27  O   UNL d   1      27.032 -15.869   1.014  0.00  0.00    -0.354 OA
ATOM     28  C   UNL d   1      28.413 -15.540   0.873  0.00  0.00     0.210 C 
ENDBRANCH  24  27
ENDBRANCH   8  11
ENDBRANCH   4   7
BRANCH   1  29
ATOM     29  C   UNL d   1      34.673 -19.371  -0.049  0.00  0.00     0.066 C 
BRANCH  29  30
ATOM     30  C   UNL d   1      35.446 -18.584   0.999  0.00  0.00     0.240 C 
BRANCH  30  31
ATOM     31  N   UNL d   1      35.322 -19.247   2.347  0.00  0.00    -0.067 N 
ATOM     32  C   UNL d   1      33.871 -19.541   2.687  0.00  0.00     0.274 C 
ATOM     33  C   UNL d   1      33.726 -20.331   3.962  0.00  0.00    -0.023 A 
ATOM     34  C   UNL d   1      34.819 -21.017   4.517  0.00  0.00    -0.046 A 
ATOM     35  C   UNL d   1      32.473 -20.448   4.582  0.00  0.00     0.049 A 
ATOM     36  C   UNL d   1      34.664 -21.752   5.693  0.00  0.00     0.047 A 
ATOM     37  C   UNL d   1      36.184 -20.966   3.901  0.00  0.00     0.067 C 
ATOM     38  C   UNL d   1      33.426 -21.832   6.325  0.00  0.00     0.102 A 
ATOM     39  C   UNL d   1      32.311 -21.200   5.760  0.00  0.00     0.102 A 
ATOM     40  C   UNL d   1      36.134 -20.519   2.457  0.00  0.00     0.240 C 
ATOM     41  H   UNL d   1      35.650 -18.583   3.062  0.00  0.00     0.280 HD
BRANCH  38  42
ATOM     42  O   UNL d   1      33.309 -22.651   7.413  0.00  0.00    -0.353 OA
ATOM     43  C   UNL d   1      34.210 -23.757   7.404  0.00  0.00     0.210 C 
ENDBRANCH  38  42
BRANCH  39  44
ATOM     44  O   UNL d   1      31.022 -21.219   6.232  0.00  0.00    -0.353 OA
ATOM     45  C   UNL d   1      30.030 -21.772   5.372  0.00  0.00     0.210 C 
ENDBRANCH  39  44
ENDBRANCH  30  31
ENDBRANCH  29  30
ENDBRANCH   1  29
TORSDOF 8
ENDMDL
MODEL 3
REMARK VINA RESULT:    -9.445      1.591      2.564
REMARK INTER + INTRA:         -14.308
REMARK INTER:                 -11.831
REMARK INTRA:                  -2.477
REMARK CONF_INDEPENDENT:        2.386
REMARK UNBOUND:                -2.477
REMARK  8 active torsions:
REMARK  status: ('A' for Active; 'I' for Inactive)
REMARK    1  A    between atoms: O_2  and  C_3 
REMARK    2  A    between atoms: C_8  and  O_9 
REMARK    3  A    between atoms: N_12  and  C_13 
REMARK    4  A    between atoms: C_13  and  C_14 
REMARK    5  A    between atoms: C_14  and  C_15 
REMARK    6  A    between atoms: C_18  and  N_19 
REMARK       I    between atoms: N_19  and  C_20 
REMARK    7  A    between atoms: C_20  and  C_22 
REMARK    8  A    between atoms: C_33  and  O_34 
ROOT
ATOM      1  C   UNL d   1      32.794 -18.926  -2.389  0.00  0.00    -0.057 C 
ATOM      2  C   UNL d   1      32.462 -18.033  -1.361  0.00  0.00     0.009 C 
ATOM      3  C   UNL d   1      31.200 -17.422  -1.353  0.00  0.00     0.030 C 
ATOM      4  C   UNL d   1      30.332 -17.599  -2.438  0.00  0.00     0.035 C 
ATOM      5  C   UNL d   1      30.787 -18.326  -3.537  0.00  0.00     0.030 C 
ATOM      6  C   UNL d   1      31.964 -19.044  -3.490  0.00  0.00     0.009 C 
ENDROOT
BRANCH   4   7
ATOM      7  N   UNL d   1      29.017 -17.079  -2.408  0.00  0.00    -0.323 N 
ATOM      8  C   UNL d   1      28.204 -17.064  -1.265  0.00  0.00     0.258 C 
ATOM      9  O   UNL d   1      28.506 -17.411  -0.134  0.00  0.00    -0.267 OA
ATOM     10  H   UNL d   1      28.691 -16.613  -3.244  0.00  0.00     0.169 HD
BRANCH   8  11
ATOM     11  C   UNL d   1      26.836 -16.544  -1.416  0.00  0.00     0.054 C 
ATOM     12  C   UNL d   1      25.830 -17.061  -0.579  0.00  0.00     0.019 C 
ATOM     13  C   UNL d   1      24.531 -16.562  -0.631  0.00  0.00     0.002 C 
ATOM     14  C   UNL d   1      24.184 -15.678  -1.645  0.00  0.00     0.017 C 
ATOM     15  C   UNL d   1      25.155 -15.289  -2.575  0.00  0.00     0.037 C 
ATOM     16  C   UNL d   1      24.780 -14.388  -3.687  0.00  0.00     0.196 C 
ATOM     17  C   UNL d   1      26.489 -15.726  -2.490  0.00  0.00     0.043 C 
ATOM     18  O   UNL d   1      23.643 -14.027  -3.883  0.00  0.00    -0.287 OA
ATOM     19  C   UNL d   1      25.891 -13.915  -4.532  0.00  0.00     0.039 C 
ATOM     20  C   UNL d   1      26.148 -12.556  -4.620  0.00  0.00     0.017 C 
ATOM     21  C   UNL d   1      26.940 -14.799  -4.773  0.00  0.00     0.061 C 
ATOM     22  C   UNL d   1      27.403 -12.151  -5.072  0.00  0.00     0.004 C 
ATOM     23  C   UNL d   1      28.203 -13.063  -5.759  0.00  0.00     0.039 C 
ATOM     24  C   UNL d   1      27.891 -14.415  -5.718  0.00  0.00     0.090 C 
ATOM     25  N   UNL d   1      27.433 -15.420  -3.528  0.00  0.00    -0.255 NA
ATOM     26  H   UNL d   1      28.070 -14.712  -3.132  0.00  0.00     0.134 HD
BRANCH  24  27
ATOM     27  O   UNL d   1      28.563 -15.205  -6.600  0.00  0.00    -0.354 OA
ATOM     28  C   UNL d   1      29.676 -15.947  -6.101  0.00  0.00     0.210 C 
ENDBRANCH  24  27
ENDBRANCH   8  11
ENDBRANCH   4   7
BRANCH   1  29
ATOM     29  C   UNL d   1      33.993 -19.809  -2.327  0.00  0.00     0.066 C 
BRANCH  29  30
ATOM     30  C   UNL d   1      33.607 -21.265  -2.115  0.00  0.00     0.240 C 
BRANCH  30  31
ATOM     31  N   UNL d   1      33.073 -21.465  -0.720  0.00  0.00    -0.067 N 
ATOM     32  C   UNL d   1      33.913 -20.724   0.305  0.00  0.00     0.274 C 
ATOM     33  C   UNL d   1      33.322 -20.788   1.690  0.00  0.00    -0.023 A 
ATOM     34  C   UNL d   1      31.981 -21.156   1.890  0.00  0.00    -0.046 A 
ATOM     35  C   UNL d   1      34.089 -20.415   2.804  0.00  0.00     0.049 A 
ATOM     36  C   UNL d   1      31.448 -21.201   3.178  0.00  0.00     0.047 A 
ATOM     37  C   UNL d   1      31.087 -21.542   0.751  0.00  0.00     0.067 C 
ATOM     38  C   UNL d   1      32.226 -20.866   4.283  0.00  0.00     0.102 A 
ATOM     39  C   UNL d   1      33.550 -20.445   4.103  0.00  0.00     0.102 A 
ATOM     40  C   UNL d   1      31.624 -21.056  -0.577  0.00  0.00     0.240 C 
ATOM     41  H   UNL d   1      33.158 -22.465  -0.485  0.00  0.00     0.280 HD
BRANCH  38  42
ATOM     42  O   UNL d   1      31.623 -20.825   5.508  0.00  0.00    -0.353 OA
ATOM     43  C   UNL d   1      30.411 -21.575   5.582  0.00  0.00     0.210 C 
ENDBRANCH  38  42
BRANCH  39  44
ATOM     44  O   UNL d   1      34.430 -20.043   5.077  0.00  0.00    -0.353 OA
ATOM     45  C   UNL d   1      34.533 -20.869   6.233  0.00  0.00     0.210 C 
ENDBRANCH  39  44
ENDBRANCH  30  31
ENDBRANCH  29  30
ENDBRANCH   1  29
TORSDOF 8
ENDMDL
MODEL 4
REMARK VINA RESULT:    -9.113      2.981      4.460
REMARK INTER + INTRA:         -13.873
REMARK INTER:                 -11.499
REMARK INTRA:                  -2.374
REMARK CONF_INDEPENDENT:        2.386
REMARK UNBOUND:                -2.374
REMARK  8 active torsions:
REMARK  status: ('A' for Active; 'I' for Inactive)
REMARK    1  A    between atoms: O_2  and  C_3 
REMARK    2  A    between atoms: C_8  and  O_9 
REMARK    3  A    between atoms: N_12  and  C_13 
REMARK    4  A    between atoms: C_13  and  C_14 
REMARK    5  A    between atoms: C_14  and  C_15 
REMARK    6  A    between atoms: C_18  and  N_19 
REMARK       I    between atoms: N_19  and  C_20 
REMARK    7  A    between atoms: C_20  and  C_22 
REMARK    8  A    between atoms: C_33  and  O_34 
ROOT
ATOM      1  C   UNL d   1      32.461 -17.688   0.287  0.00  0.00    -0.057 C 
ATOM      2  C   UNL d   1      31.972 -16.520   0.889  0.00  0.00     0.009 C 
ATOM      3  C   UNL d   1      30.693 -16.050   0.557  0.00  0.00     0.030 C 
ATOM      4  C   UNL d   1      29.968 -16.669  -0.469  0.00  0.00     0.035 C 
ATOM      5  C   UNL d   1      30.580 -17.696  -1.185  0.00  0.00     0.030 C 
ATOM      6  C   UNL d   1      31.772 -18.253  -0.772  0.00  0.00     0.009 C 
ENDROOT
BRANCH   4   7
ATOM      7  N   UNL d   1      28.637 -16.280  -0.753  0.00  0.00    -0.323 N 
ATOM      8  C   UNL d   1      27.514 -17.079  -0.497  0.00  0.00     0.258 C 
ATOM      9  O   UNL d   1      27.486 -18.165   0.060  0.00  0.00    -0.267 OA
ATOM     10  H   UNL d   1      28.498 -15.331  -1.077  0.00  0.00     0.169 HD
BRANCH   8  11
ATOM     11  C   UNL d   1      26.203 -16.553  -0.910  0.00  0.00     0.054 C 
ATOM     12  C   UNL d   1      25.055 -17.040  -0.260  0.00  0.00     0.019 C 
ATOM     13  C   UNL d   1      23.793 -16.532  -0.562  0.00  0.00     0.002 C 
ATOM     14  C   UNL d   1      23.650 -15.672  -1.644  0.00  0.00     0.017 C 
ATOM     15  C   UNL d   1      24.779 -15.314  -2.388  0.00  0.00     0.037 C 
ATOM     16  C   UNL d   1      24.627 -14.439  -3.571  0.00  0.00     0.196 C 
ATOM     17  C   UNL d   1      26.070 -15.760  -2.048  0.00  0.00     0.043 C 
ATOM     18  O   UNL d   1      23.549 -14.075  -3.981  0.00  0.00    -0.287 OA
ATOM     19  C   UNL d   1      25.879 -13.997  -4.208  0.00  0.00     0.039 C 
ATOM     20  C   UNL d   1      26.165 -12.643  -4.280  0.00  0.00     0.017 C 
ATOM     21  C   UNL d   1      26.945 -14.895  -4.231  0.00  0.00     0.061 C 
ATOM     22  C   UNL d   1      27.486 -12.259  -4.502  0.00  0.00     0.004 C 
ATOM     23  C   UNL d   1      28.388 -13.194  -5.009  0.00  0.00     0.039 C 
ATOM     24  C   UNL d   1      28.057 -14.542  -4.993  0.00  0.00     0.090 C 
ATOM     25  N   UNL d   1      27.192 -15.487  -2.902  0.00  0.00    -0.255 NA
ATOM     26  H   UNL d   1      27.754 -14.774  -2.412  0.00  0.00     0.134 HD
BRANCH  24  27
ATOM     27  O   UNL d   1      28.871 -15.360  -5.718  0.00  0.00    -0.354 OA
ATOM     28  C   UNL d   1      29.945 -15.997  -5.027  0.00  0.00     0.210 C 
ENDBRANCH  24  27
ENDBRANCH   8  11
ENDBRANCH   4   7
BRANCH   1  29
ATOM     29  C   UNL d   1      33.680 -18.391   0.776  0.00  0.00     0.066 C 
BRANCH  29  30
ATOM     30  C   UNL d   1      33.335 -19.477   1.784  0.00  0.00     0.240 C 
BRANCH  30  31
ATOM     31  N   UNL d   1      32.235 -20.357   1.247  0.00  0.00    -0.067 N 
ATOM     32  C   UNL d   1      32.697 -21.140   0.031  0.00  0.00     0.274 C 
ATOM     33  C   UNL d   1      31.667 -22.133  -0.443  0.00  0.00    -0.023 A 
ATOM     34  C   UNL d   1      30.604 -22.525   0.388  0.00  0.00    -0.046 A 
ATOM     35  C   UNL d   1      31.793 -22.735  -1.703  0.00  0.00     0.049 A 
ATOM     36  C   UNL d   1      29.664 -23.452  -0.063  0.00  0.00     0.047 A 
ATOM     37  C   UNL d   1      30.414 -21.950   1.758  0.00  0.00     0.067 C 
ATOM     38  C   UNL d   1      29.773 -24.017  -1.331  0.00  0.00     0.102 A 
ATOM     39  C   UNL d   1      30.855 -23.681  -2.156  0.00  0.00     0.102 A 
ATOM     40  C   UNL d   1      31.681 -21.311   2.282  0.00  0.00     0.240 C 
ATOM     41  H   UNL d   1      31.471 -19.749   0.917  0.00  0.00     0.280 HD
BRANCH  38  42
ATOM     42  O   UNL d   1      28.886 -24.997  -1.679  0.00  0.00    -0.353 OA
ATOM     43  C   UNL d   1      29.280 -26.306  -1.269  0.00  0.00     0.210 C 
ENDBRANCH  38  42
BRANCH  39  44
ATOM     44  O   UNL d   1      31.128 -24.178  -3.405  0.00  0.00    -0.353 OA
ATOM     45  C   UNL d   1      31.470 -23.231  -4.414  0.00  0.00     0.210 C 
ENDBRANCH  39  44
ENDBRANCH  30  31
ENDBRANCH  29  30
ENDBRANCH   1  29
TORSDOF 8
ENDMDL
MODEL 5
REMARK VINA RESULT:    -9.104      5.818      9.974
REMARK INTER + INTRA:         -14.419
REMARK INTER:                 -11.490
REMARK INTRA:                  -2.929
REMARK CONF_INDEPENDENT:        2.386
REMARK UNBOUND:                -2.929
REMARK  8 active torsions:
REMARK  status: ('A' for Active; 'I' for Inactive)
REMARK    1  A    between atoms: O_2  and  C_3 
REMARK    2  A    between atoms: C_8  and  O_9 
REMARK    3  A    between atoms: N_12  and  C_13 
REMARK    4  A    between atoms: C_13  and  C_14 
REMARK    5  A    between atoms: C_14  and  C_15 
REMARK    6  A    between atoms: C_18  and  N_19 
REMARK       I    between atoms: N_19  and  C_20 
REMARK    7  A    between atoms: C_20  and  C_22 
REMARK    8  A    between atoms: C_33  and  O_34 
ROOT
ATOM      1  C   UNL d   1      28.033 -11.918  -3.119  0.00  0.00    -0.057 C 
ATOM      2  C   UNL d   1      29.166 -12.583  -2.630  0.00  0.00     0.009 C 
ATOM      3  C   UNL d   1      29.335 -12.744  -1.247  0.00  0.00     0.030 C 
ATOM      4  C   UNL d   1      28.447 -12.124  -0.360  0.00  0.00     0.035 C 
ATOM      5  C   UNL d   1      27.457 -11.296  -0.885  0.00  0.00     0.030 C 
ATOM      6  C   UNL d   1      27.198 -11.250  -2.240  0.00  0.00     0.009 C 
ENDROOT
BRANCH   4   7
ATOM      7  N   UNL d   1      28.535 -12.354   1.034  0.00  0.00    -0.323 N 
ATOM      8  C   UNL d   1      28.053 -13.507   1.671  0.00  0.00     0.258 C 
ATOM      9  O   UNL d   1      27.568 -14.497   1.148  0.00  0.00    -0.267 OA
ATOM     10  H   UNL d   1      29.058 -11.679   1.576  0.00  0.00     0.169 HD
BRANCH   8  11
ATOM     11  C   UNL d   1      28.166 -13.564   3.137  0.00  0.00     0.054 C 
ATOM     12  C   UNL d   1      28.131 -14.826   3.759  0.00  0.00     0.019 C 
ATOM     13  C   UNL d   1      28.299 -14.948   5.137  0.00  0.00     0.002 C 
ATOM     14  C   UNL d   1      28.314 -13.801   5.922  0.00  0.00     0.017 C 
ATOM     15  C   UNL d   1      28.187 -12.550   5.309  0.00  0.00     0.037 C 
ATOM     16  C   UNL d   1      28.152 -11.329   6.143  0.00  0.00     0.196 C 
ATOM     17  C   UNL d   1      28.093 -12.408   3.912  0.00  0.00     0.043 C 
ATOM     18  O   UNL d   1      28.147 -11.362   7.351  0.00  0.00    -0.287 OA
ATOM     19  C   UNL d   1      28.162 -10.051   5.410  0.00  0.00     0.039 C 
ATOM     20  C   UNL d   1      29.201  -9.157   5.617  0.00  0.00     0.017 C 
ATOM     21  C   UNL d   1      27.479  -9.996   4.197  0.00  0.00     0.061 C 
ATOM     22  C   UNL d   1      29.421  -8.170   4.657  0.00  0.00     0.004 C 
ATOM     23  C   UNL d   1      28.407  -7.871   3.748  0.00  0.00     0.039 C 
ATOM     24  C   UNL d   1      27.337  -8.743   3.603  0.00  0.00     0.090 C 
ATOM     25  N   UNL d   1      27.831 -11.128   3.317  0.00  0.00    -0.255 NA
ATOM     26  H   UNL d   1      28.717 -10.835   2.876  0.00  0.00     0.134 HD
BRANCH  24  27
ATOM     27  O   UNL d   1      26.280  -8.270   2.886  0.00  0.00    -0.354 OA
ATOM     28  C   UNL d   1      26.075  -8.814   1.583  0.00  0.00     0.210 C 
ENDBRANCH  24  27
ENDBRANCH   8  11
ENDBRANCH   4   7
BRANCH   1  29
ATOM     29  C   UNL d   1      27.650 -11.940  -4.558  0.00  0.00     0.066 C 
BRANCH  29  30
ATOM     30  C   UNL d   1      27.559 -13.361  -5.093  0.00  0.00     0.240 C 
BRANCH  30  31
ATOM     31  N   UNL d   1      26.487 -14.126  -4.361  0.00  0.00    -0.067 N 
ATOM     32  C   UNL d   1      27.077 -14.987  -3.258  0.00  0.00     0.274 C 
ATOM     33  C   UNL d   1      26.019 -15.653  -2.416  0.00  0.00    -0.023 A 
ATOM     34  C   UNL d   1      24.688 -15.203  -2.436  0.00  0.00    -0.046 A 
ATOM     35  C   UNL d   1      26.363 -16.697  -1.545  0.00  0.00     0.049 A 
ATOM     36  C   UNL d   1      23.723 -15.826  -1.644  0.00  0.00     0.047 A 
ATOM     37  C   UNL d   1      24.246 -14.076  -3.319  0.00  0.00     0.067 C 
ATOM     38  C   UNL d   1      24.063 -16.887  -0.810  0.00  0.00     0.102 A 
ATOM     39  C   UNL d   1      25.394 -17.317  -0.734  0.00  0.00     0.102 A 
ATOM     40  C   UNL d   1      25.412 -13.232  -3.784  0.00  0.00     0.240 C 
ATOM     41  H   UNL d   1      26.050 -14.781  -5.026  0.00  0.00     0.280 HD
BRANCH  38  42
ATOM     42  O   UNL d   1      23.101 -17.388   0.021  0.00  0.00    -0.353 OA
ATOM     43  C   UNL d   1      22.718 -18.729  -0.280  0.00  0.00     0.210 C 
ENDBRANCH  38  42
BRANCH  39  44
ATOM     44  O   UNL d   1      25.897 -18.314   0.065  0.00  0.00    -0.353 OA
ATOM     45  C   UNL d   1      27.029 -17.987   0.866  0.00  0.00     0.210 C 
ENDBRANCH  39  44
ENDBRANCH  30  31
ENDBRANCH  29  30
ENDBRANCH   1  29
TORSDOF 8
ENDMDL
MODEL 6
REMARK VINA RESULT:    -8.815      1.927      2.742
REMARK INTER + INTRA:         -14.047
REMARK INTER:                 -11.202
REMARK INTRA:                  -2.845
REMARK CONF_INDEPENDENT:        2.386
REMARK UNBOUND:                -2.845
REMARK  8 active torsions:
REMARK  status: ('A' for Active; 'I' for Inactive)
REMARK    1  A    between atoms: O_2  and  C_3 
REMARK    2  A    between atoms: C_8  and  O_9 
REMARK    3  A    between atoms: N_12  and  C_13 
REMARK    4  A    between atoms: C_13  and  C_14 
REMARK    5  A    between atoms: C_14  and  C_15 
REMARK    6  A    between atoms: C_18  and  N_19 
REMARK       I    between atoms: N_19  and  C_20 
REMARK    7  A    between atoms: C_20  and  C_22 
REMARK    8  A    between atoms: C_33  and  O_34 
ROOT
ATOM      1  C   UNL d   1      33.741 -16.641  -2.577  0.00  0.00    -0.057 C 
ATOM      2  C   UNL d   1      33.307 -15.665  -1.669  0.00  0.00     0.009 C 
ATOM      3  C   UNL d   1      31.954 -15.607  -1.304  0.00  0.00     0.030 C 
ATOM      4  C   UNL d   1      31.023 -16.431  -1.949  0.00  0.00     0.035 C 
ATOM      5  C   UNL d   1      31.465 -17.237  -2.995  0.00  0.00     0.030 C 
ATOM      6  C   UNL d   1      32.809 -17.404  -3.260  0.00  0.00     0.009 C 
ENDROOT
BRANCH   4   7
ATOM      7  N   UNL d   1      29.672 -16.464  -1.529  0.00  0.00    -0.323 N 
ATOM      8  C   UNL d   1      29.077 -17.558  -0.883  0.00  0.00     0.258 C 
ATOM      9  O   UNL d   1      29.618 -18.590  -0.520  0.00  0.00    -0.267 OA
ATOM     10  H   UNL d   1      29.142 -15.608  -1.627  0.00  0.00     0.169 HD
BRANCH   8  11
ATOM     11  C   UNL d   1      27.643 -17.457  -0.568  0.00  0.00     0.054 C 
ATOM     12  C   UNL d   1      27.121 -18.295   0.434  0.00  0.00     0.019 C 
ATOM     13  C   UNL d   1      25.786 -18.200   0.822  0.00  0.00     0.002 C 
ATOM     14  C   UNL d   1      24.922 -17.400   0.083  0.00  0.00     0.017 C 
ATOM     15  C   UNL d   1      25.417 -16.690  -1.015  0.00  0.00     0.037 C 
ATOM     16  C   UNL d   1      24.493 -15.877  -1.836  0.00  0.00     0.196 C 
ATOM     17  C   UNL d   1      26.778 -16.718  -1.372  0.00  0.00     0.043 C 
ATOM     18  O   UNL d   1      23.298 -15.857  -1.651  0.00  0.00    -0.287 OA
ATOM     19  C   UNL d   1      25.120 -15.050  -2.881  0.00  0.00     0.039 C 
ATOM     20  C   UNL d   1      24.969 -13.673  -2.842  0.00  0.00     0.017 C 
ATOM     21  C   UNL d   1      26.237 -15.570  -3.532  0.00  0.00     0.061 C 
ATOM     22  C   UNL d   1      25.868 -12.891  -3.564  0.00  0.00     0.004 C 
ATOM     23  C   UNL d   1      26.626 -13.485  -4.572  0.00  0.00     0.039 C 
ATOM     24  C   UNL d   1      26.711 -14.868  -4.640  0.00  0.00     0.090 C 
ATOM     25  N   UNL d   1      27.237 -16.088  -2.578  0.00  0.00    -0.255 NA
ATOM     26  H   UNL d   1      27.755 -15.247  -2.278  0.00  0.00     0.134 HD
BRANCH  24  27
ATOM     27  O   UNL d   1      27.260 -15.373  -5.780  0.00  0.00    -0.354 OA
ATOM     28  C   UNL d   1      28.552 -14.894  -6.154  0.00  0.00     0.210 C 
ENDBRANCH  24  27
ENDBRANCH   8  11
ENDBRANCH   4   7
BRANCH   1  29
ATOM     29  C   UNL d   1      35.182 -16.938  -2.808  0.00  0.00     0.066 C 
BRANCH  29  30
ATOM     30  C   UNL d   1      35.619 -18.201  -2.080  0.00  0.00     0.240 C 
BRANCH  30  31
ATOM     31  N   UNL d   1      34.910 -18.310  -0.754  0.00  0.00    -0.067 N 
ATOM     32  C   UNL d   1      34.030 -19.546  -0.698  0.00  0.00     0.274 C 
ATOM     33  C   UNL d   1      33.420 -19.759   0.664  0.00  0.00    -0.023 A 
ATOM     34  C   UNL d   1      33.932 -19.105   1.797  0.00  0.00    -0.046 A 
ATOM     35  C   UNL d   1      32.367 -20.670   0.832  0.00  0.00     0.049 A 
ATOM     36  C   UNL d   1      33.361 -19.321   3.052  0.00  0.00     0.047 A 
ATOM     37  C   UNL d   1      35.073 -18.138   1.707  0.00  0.00     0.067 C 
ATOM     38  C   UNL d   1      32.290 -20.197   3.206  0.00  0.00     0.102 A 
ATOM     39  C   UNL d   1      31.798 -20.901   2.098  0.00  0.00     0.102 A 
ATOM     40  C   UNL d   1      35.857 -18.309   0.425  0.00  0.00     0.240 C 
ATOM     41  H   UNL d   1      34.272 -17.506  -0.666  0.00  0.00     0.280 HD
BRANCH  38  42
ATOM     42  O   UNL d   1      31.841 -20.450   4.471  0.00  0.00    -0.353 OA
ATOM     43  C   UNL d   1      32.826 -21.019   5.332  0.00  0.00     0.210 C 
ENDBRANCH  38  42
BRANCH  39  44
ATOM     44  O   UNL d   1      30.785 -21.826   2.090  0.00  0.00    -0.353 OA
ATOM     45  C   UNL d   1      30.390 -22.337   0.819  0.00  0.00     0.210 C 
ENDBRANCH  39  44
ENDBRANCH  30  31
ENDBRANCH  29  30
ENDBRANCH   1  29
TORSDOF 8
ENDMDL
MODEL 7
REMARK VINA RESULT:    -8.563      5.879      9.183
REMARK INTER + INTRA:         -14.134
REMARK INTER:                 -10.949
REMARK INTRA:                  -3.185
REMARK CONF_INDEPENDENT:        2.386
REMARK UNBOUND:                -3.185
REMARK  8 active torsions:
REMARK  status: ('A' for Active; 'I' for Inactive)
REMARK    1  A    between atoms: O_2  and  C_3 
REMARK    2  A    between atoms: C_8  and  O_9 
REMARK    3  A    between atoms: N_12  and  C_13 
REMARK    4  A    between atoms: C_13  and  C_14 
REMARK    5  A    between atoms: C_14  and  C_15 
REMARK    6  A    between atoms: C_18  and  N_19 
REMARK       I    between atoms: N_19  and  C_20 
REMARK    7  A    between atoms: C_20  and  C_22 
REMARK    8  A    between atoms: C_33  and  O_34 
ROOT
ATOM      1  C   UNL d   1      29.182 -13.178   5.676  0.00  0.00    -0.057 C 
ATOM      2  C   UNL d   1      30.102 -13.718   4.766  0.00  0.00     0.009 C 
ATOM      3  C   UNL d   1      29.640 -14.380   3.620  0.00  0.00     0.030 C 
ATOM      4  C   UNL d   1      28.269 -14.618   3.458  0.00  0.00     0.035 C 
ATOM      5  C   UNL d   1      27.408 -14.251   4.490  0.00  0.00     0.030 C 
ATOM      6  C   UNL d   1      27.836 -13.476   5.547  0.00  0.00     0.009 C 
ENDROOT
BRANCH   4   7
ATOM      7  N   UNL d   1      27.769 -15.191   2.265  0.00  0.00    -0.323 N 
ATOM      8  C   UNL d   1      27.117 -14.465   1.258  0.00  0.00     0.258 C 
ATOM      9  O   UNL d   1      26.945 -13.257   1.205  0.00  0.00    -0.267 OA
ATOM     10  H   UNL d   1      27.981 -16.167   2.103  0.00  0.00     0.169 HD
BRANCH   8  11
ATOM     11  C   UNL d   1      26.599 -15.222   0.107  0.00  0.00     0.054 C 
ATOM     12  C   UNL d   1      26.332 -16.593   0.277  0.00  0.00     0.019 C 
ATOM     13  C   UNL d   1      25.780 -17.347  -0.756  0.00  0.00     0.002 C 
ATOM     14  C   UNL d   1      25.666 -16.782  -2.021  0.00  0.00     0.017 C 
ATOM     15  C   UNL d   1      26.083 -15.462  -2.221  0.00  0.00     0.037 C 
ATOM     16  C   UNL d   1      26.012 -14.872  -3.576  0.00  0.00     0.196 C 
ATOM     17  C   UNL d   1      26.573 -14.665  -1.170  0.00  0.00     0.043 C 
ATOM     18  O   UNL d   1      25.680 -15.507  -4.550  0.00  0.00    -0.287 OA
ATOM     19  C   UNL d   1      26.335 -13.438  -3.669  0.00  0.00     0.039 C 
ATOM     20  C   UNL d   1      25.376 -12.554  -4.139  0.00  0.00     0.017 C 
ATOM     21  C   UNL d   1      27.327 -12.942  -2.826  0.00  0.00     0.061 C 
ATOM     22  C   UNL d   1      25.531 -11.199  -3.850  0.00  0.00     0.004 C 
ATOM     23  C   UNL d   1      26.781 -10.730  -3.448  0.00  0.00     0.039 C 
ATOM     24  C   UNL d   1      27.754 -11.634  -3.046  0.00  0.00     0.090 C 
ATOM     25  N   UNL d   1      27.118 -13.361  -1.426  0.00  0.00    -0.255 NA
ATOM     26  H   UNL d   1      26.422 -12.689  -1.066  0.00  0.00     0.134 HD
BRANCH  24  27
ATOM     27  O   UNL d   1      29.011 -11.127  -2.905  0.00  0.00    -0.354 OA
ATOM     28  C   UNL d   1      29.779 -11.581  -1.791  0.00  0.00     0.210 C 
ENDBRANCH  24  27
ENDBRANCH   8  11
ENDBRANCH   4   7
BRANCH   1  29
ATOM     29  C   UNL d   1      29.584 -12.242   6.763  0.00  0.00     0.066 C 
BRANCH  29  30
ATOM     30  C   UNL d   1      29.463 -10.790   6.325  0.00  0.00     0.240 C 
BRANCH  30  31
ATOM     31  N   UNL d   1      29.054 -10.715   4.876  0.00  0.00    -0.067 N 
ATOM     32  C   UNL d   1      28.026  -9.621   4.647  0.00  0.00     0.274 C 
ATOM     33  C   UNL d   1      27.704  -9.427   3.188  0.00  0.00    -0.023 A 
ATOM     34  C   UNL d   1      28.548  -9.934   2.186  0.00  0.00    -0.046 A 
ATOM     35  C   UNL d   1      26.584  -8.675   2.805  0.00  0.00     0.049 A 
ATOM     36  C   UNL d   1      28.240  -9.737   0.840  0.00  0.00     0.047 A 
ATOM     37  C   UNL d   1      29.779 -10.725   2.512  0.00  0.00     0.067 C 
ATOM     38  C   UNL d   1      27.105  -9.022   0.466  0.00  0.00     0.102 A 
ATOM     39  C   UNL d   1      26.278  -8.462   1.448  0.00  0.00     0.102 A 
ATOM     40  C   UNL d   1      30.226 -10.510   3.941  0.00  0.00     0.240 C 
ATOM     41  H   UNL d   1      28.586 -11.598   4.629  0.00  0.00     0.280 HD
BRANCH  38  42
ATOM     42  O   UNL d   1      26.911  -8.770  -0.862  0.00  0.00    -0.353 OA
ATOM     43  C   UNL d   1      27.749  -7.740  -1.385  0.00  0.00     0.210 C 
ENDBRANCH  38  42
BRANCH  39  44
ATOM     44  O   UNL d   1      25.155  -7.699   1.247  0.00  0.00    -0.353 OA
ATOM     45  C   UNL d   1      25.342  -6.427   0.632  0.00  0.00     0.210 C 
ENDBRANCH  39  44
ENDBRANCH  30  31
ENDBRANCH  29  30
ENDBRANCH   1  29
TORSDOF 8
ENDMDL
