MODEL 1
REMARK VINA RESULT:   -16.969      0.000      0.000
REMARK INTER + INTRA:         -21.469
REMARK INTER:                 -20.549
REMARK INTRA:                  -0.920
REMARK CONF_INDEPENDENT:        3.580
REMARK UNBOUND:                -0.920
REMARK  12 active torsions:
REMARK  status: ('A' for Active; 'I' for Inactive)
REMARK    1  A    between atoms: C_2  and  C_3 
REMARK    2  A    between atoms: C_3  and  C_4 
REMARK    3  A    between atoms: C_4  and  C_5 
REMARK    4  A    between atoms: C_5  and  C_6 
REMARK    5  A    between atoms: C_6  and  O_7 
REMARK    6  A    between atoms: O_7  and  C_8 
REMARK    7  A    between atoms: C_11  and  C_12 
REMARK       I    between atoms: C_12  and  N_14 
REMARK    8  A    between atoms: N_14  and  C_15 
REMARK    9  A    between atoms: C_15  and  N_17 
REMARK   10  A    between atoms: N_17  and  N_18 
REMARK       I    between atoms: N_18  and  C_19 
REMARK   11  A    between atoms: C_19  and  C_21 
REMARK   12  A    between atoms: C_21  and  N_22 
ROOT
ATOM      1  C   UNL d   1      26.275 -16.824  -0.060  0.00  0.00     0.193 C 
ATOM      2  S   UNL d   1      26.467 -18.442   0.359  0.00  0.00    -0.039 SA
ENDROOT
BRANCH   1   3
ATOM      3  N   UNL d   1      26.824 -15.723   0.730  0.00  0.00    -0.298 N 
ATOM      4  C   UNL d   1      27.440 -14.489   0.263  0.00  0.00     0.257 C 
ATOM      5  O   UNL d   1      27.559 -14.214  -0.942  0.00  0.00    -0.267 OA
ATOM      6  H   UNL d   1      26.809 -15.819   1.734  0.00  0.00     0.171 HD
BRANCH   4   7
ATOM      7  C   UNL d   1      28.040 -13.428   1.187  0.00  0.00     0.032 A 
ATOM      8  C   UNL d   1      29.347 -12.929   0.912  0.00  0.00     0.020 A 
ATOM      9  C   UNL d   1      30.022 -12.049   1.785  0.00  0.00     0.038 A 
ATOM     10  C   UNL d   1      29.381 -11.578   2.924  0.00  0.00     0.068 A 
ATOM     11  C   UNL d   1      28.076 -12.009   3.178  0.00  0.00     0.038 A 
ATOM     12  C   UNL d   1      27.414 -12.927   2.326  0.00  0.00     0.020 A 
BRANCH  10  13
ATOM     13  O   UNL d   1      30.049 -10.631   3.657  0.00  0.00    -0.351 OA
BRANCH  13  14
ATOM     14  C   UNL d   1      31.346 -11.006   4.127  0.00  0.00     0.175 C 
BRANCH  14  15
ATOM     15  C   UNL d   1      31.348 -10.997   5.654  0.00  0.00     0.027 C 
BRANCH  15  16
ATOM     16  C   UNL d   1      29.978 -11.391   6.199  0.00  0.00     0.002 C 
BRANCH  16  17
ATOM     17  C   UNL d   1      29.559 -10.478   7.345  0.00  0.00    -0.000 C 
BRANCH  17  18
ATOM     18  C   UNL d   1      29.434 -11.262   8.648  0.00  0.00    -0.005 C 
ATOM     19  C   UNL d   1      28.168 -12.099   8.647  0.00  0.00     0.005 C 
ENDBRANCH  17  18
ENDBRANCH  16  17
ENDBRANCH  15  16
ENDBRANCH  14  15
ENDBRANCH  13  14
ENDBRANCH  10  13
ENDBRANCH   4   7
ENDBRANCH   1   3
BRANCH   1  20
ATOM     20  N   UNL d   1      25.527 -16.488  -1.261  0.00  0.00    -0.273 N 
ATOM     21  H   UNL d   1      25.941 -16.188  -2.140  0.00  0.00     0.189 HD
BRANCH  20  22
ATOM     22  N   UNL d   1      23.852 -16.538  -1.270  0.00  0.00    -0.266 N 
ATOM     23  C   UNL d   1      23.008 -17.776  -1.492  0.00  0.00     0.264 C 
ATOM     24  O   UNL d   1      23.592 -18.834  -1.574  0.00  0.00    -0.270 OA
ATOM     25  H   UNL d   1      23.500 -15.614  -1.029  0.00  0.00     0.190 HD
BRANCH  23  26
ATOM     26  C   UNL d   1      21.191 -17.596  -1.609  0.00  0.00     0.379 C 
BRANCH  26  27
ATOM     27  N   UNL d   1      19.903 -18.575  -0.896  0.00  0.00     0.129 NA
ATOM     28  C   UNL d   1      20.145 -19.833  -1.476  0.00  0.00     0.286 C 
ATOM     29  C   UNL d   1      18.807 -19.963  -1.697  0.00  0.00     0.021 C 
ATOM     30  C   UNL d   1      18.482 -20.251  -0.386  0.00  0.00    -0.014 A 
ATOM     31  C   UNL d   1      17.611 -21.399  -0.082  0.00  0.00     0.010 A 
ATOM     32  C   UNL d   1      19.365 -19.212   0.544  0.00  0.00     0.249 A 
ATOM     33  C   UNL d   1      17.278 -21.940   1.120  0.00  0.00     0.000 A 
ATOM     34  C   UNL d   1      17.890 -21.251   2.104  0.00  0.00    -0.001 A 
ATOM     35  C   UNL d   1      18.763 -20.023   1.786  0.00  0.00     0.023 A 
ENDBRANCH  26  27
ENDBRANCH  23  26
ENDBRANCH  20  22
ENDBRANCH   1  20
TORSDOF 12
ENDMDL
MODEL 2
REMARK VINA RESULT:   -16.447      6.008      8.398
REMARK INTER + INTRA:         -21.057
REMARK INTER:                 -20.027
REMARK INTRA:                  -1.031
REMARK CONF_INDEPENDENT:        3.580
REMARK UNBOUND:                -1.031
REMARK  12 active torsions:
REMARK  status: ('A' for Active; 'I' for Inactive)
REMARK    1  A    between atoms: C_2  and  C_3 
REMARK    2  A    between atoms: C_3  and  C_4 
REMARK    3  A    between atoms: C_4  and  C_5 
REMARK    4  A    between atoms: C_5  and  C_6 
REMARK    5  A    between atoms: C_6  and  O_7 
REMARK    6  A    between atoms: O_7  and  C_8 
REMARK    7  A    between atoms: C_11  and  C_12 
REMARK       I    between atoms: C_12  and  N_14 
REMARK    8  A    between atoms: N_14  and  C_15 
REMARK    9  A    between atoms: C_15  and  N_17 
REMARK   10  A    between atoms: N_17  and  N_18 
REMARK       I    between atoms: N_18  and  C_19 
REMARK   11  A    between atoms: C_19  and  C_21 
REMARK   12  A    between atoms: C_21  and  N_22 
ROOT
ATOM      1  C   UNL d   1      26.244 -15.433  -2.554  0.00  0.00     0.193 C 
ATOM      2  S   UNL d   1      25.409 -14.089  -3.125  0.00  0.00    -0.039 SA
ENDROOT
BRANCH   1   3
ATOM      3  N   UNL d   1      27.671 -15.647  -2.788  0.00  0.00    -0.298 N 
ATOM      4  C   UNL d   1      28.365 -15.837  -4.054  0.00  0.00     0.257 C 
ATOM      5  O   UNL d   1      27.779 -15.819  -5.149  0.00  0.00    -0.267 OA
ATOM      6  H   UNL d   1      28.271 -15.701  -1.979  0.00  0.00     0.171 HD
BRANCH   4   7
ATOM      7  C   UNL d   1      29.863 -16.117  -4.176  0.00  0.00     0.032 A 
ATOM      8  C   UNL d   1      30.453 -17.114  -3.344  0.00  0.00     0.020 A 
ATOM      9  C   UNL d   1      31.845 -17.341  -3.302  0.00  0.00     0.038 A 
ATOM     10  C   UNL d   1      32.687 -16.631  -4.148  0.00  0.00     0.068 A 
ATOM     11  C   UNL d   1      32.121 -15.693  -5.016  0.00  0.00     0.038 A 
ATOM     12  C   UNL d   1      30.728 -15.433  -5.027  0.00  0.00     0.020 A 
BRANCH  10  13
ATOM     13  O   UNL d   1      34.010 -16.993  -4.143  0.00  0.00    -0.351 OA
BRANCH  13  14
ATOM     14  C   UNL d   1      34.376 -18.034  -5.051  0.00  0.00     0.175 C 
BRANCH  14  15
ATOM     15  C   UNL d   1      34.780 -17.414  -6.387  0.00  0.00     0.027 C 
BRANCH  15  16
ATOM     16  C   UNL d   1      34.212 -18.221  -7.552  0.00  0.00     0.002 C 
BRANCH  16  17
ATOM     17  C   UNL d   1      34.342 -17.458  -8.865  0.00  0.00    -0.000 C 
BRANCH  17  18
ATOM     18  C   UNL d   1      34.138 -15.962  -8.647  0.00  0.00    -0.005 C 
ATOM     19  C   UNL d   1      35.214 -15.166  -9.363  0.00  0.00     0.005 C 
ENDBRANCH  17  18
ENDBRANCH  16  17
ENDBRANCH  15  16
ENDBRANCH  14  15
ENDBRANCH  13  14
ENDBRANCH  10  13
ENDBRANCH   4   7
ENDBRANCH   1   3
BRANCH   1  20
ATOM     20  N   UNL d   1      25.524 -16.443  -1.793  0.00  0.00    -0.273 N 
ATOM     21  H   UNL d   1      25.962 -17.171  -1.235  0.00  0.00     0.189 HD
BRANCH  20  22
ATOM     22  N   UNL d   1      23.850 -16.500  -1.812  0.00  0.00    -0.266 N 
ATOM     23  C   UNL d   1      23.002 -17.677  -1.376  0.00  0.00     0.264 C 
ATOM     24  O   UNL d   1      23.581 -18.619  -0.882  0.00  0.00    -0.270 OA
ATOM     25  H   UNL d   1      23.499 -15.587  -2.094  0.00  0.00     0.190 HD
BRANCH  23  26
ATOM     26  C   UNL d   1      21.190 -17.594  -1.610  0.00  0.00     0.379 C 
BRANCH  26  27
ATOM     27  N   UNL d   1      19.905 -18.575  -0.895  0.00  0.00     0.129 NA
ATOM     28  C   UNL d   1      20.143 -19.831  -1.482  0.00  0.00     0.286 C 
ATOM     29  C   UNL d   1      18.804 -19.959  -1.697  0.00  0.00     0.021 C 
ATOM     30  C   UNL d   1      18.485 -20.253  -0.385  0.00  0.00    -0.014 A 
ATOM     31  C   UNL d   1      17.615 -21.401  -0.082  0.00  0.00     0.010 A 
ATOM     32  C   UNL d   1      19.374 -19.219   0.545  0.00  0.00     0.249 A 
ATOM     33  C   UNL d   1      17.287 -21.947   1.119  0.00  0.00     0.000 A 
ATOM     34  C   UNL d   1      17.905 -21.263   2.103  0.00  0.00    -0.001 A 
ATOM     35  C   UNL d   1      18.777 -20.034   1.786  0.00  0.00     0.023 A 
ENDBRANCH  26  27
ENDBRANCH  23  26
ENDBRANCH  20  22
ENDBRANCH   1  20
TORSDOF 12
ENDMDL
MODEL 3
REMARK VINA RESULT:   -16.131      5.937      7.346
REMARK INTER + INTRA:         -20.805
REMARK INTER:                 -19.710
REMARK INTRA:                  -1.095
REMARK CONF_INDEPENDENT:        3.580
REMARK UNBOUND:                -1.095
REMARK  12 active torsions:
REMARK  status: ('A' for Active; 'I' for Inactive)
REMARK    1  A    between atoms: C_2  and  C_3 
REMARK    2  A    between atoms: C_3  and  C_4 
REMARK    3  A    between atoms: C_4  and  C_5 
REMARK    4  A    between atoms: C_5  and  C_6 
REMARK    5  A    between atoms: C_6  and  O_7 
REMARK    6  A    between atoms: O_7  and  C_8 
REMARK    7  A    between atoms: C_11  and  C_12 
REMARK       I    between atoms: C_12  and  N_14 
REMARK    8  A    between atoms: N_14  and  C_15 
REMARK    9  A    between atoms: C_15  and  N_17 
REMARK   10  A    between atoms: N_17  and  N_18 
REMARK       I    between atoms: N_18  and  C_19 
REMARK   11  A    between atoms: C_19  and  C_21 
REMARK   12  A    between atoms: C_21  and  N_22 
ROOT
ATOM      1  C   UNL d   1      26.244 -15.433  -2.554  0.00  0.00     0.193 C 
ATOM      2  S   UNL d   1      25.409 -14.089  -3.125  0.00  0.00    -0.039 SA
ENDROOT
BRANCH   1   3
ATOM      3  N   UNL d   1      27.671 -15.647  -2.788  0.00  0.00    -0.298 N 
ATOM      4  C   UNL d   1      28.365 -15.837  -4.054  0.00  0.00     0.257 C 
ATOM      5  O   UNL d   1      27.779 -15.819  -5.149  0.00  0.00    -0.267 OA
ATOM      6  H   UNL d   1      28.271 -15.701  -1.979  0.00  0.00     0.171 HD
BRANCH   4   7
ATOM      7  C   UNL d   1      29.863 -16.117  -4.176  0.00  0.00     0.032 A 
ATOM      8  C   UNL d   1      30.297 -17.267  -4.900  0.00  0.00     0.020 A 
ATOM      9  C   UNL d   1      31.649 -17.667  -4.949  0.00  0.00     0.038 A 
ATOM     10  C   UNL d   1      32.624 -16.888  -4.339  0.00  0.00     0.068 A 
ATOM     11  C   UNL d   1      32.225 -15.724  -3.676  0.00  0.00     0.038 A 
ATOM     12  C   UNL d   1      30.862 -15.345  -3.589  0.00  0.00     0.020 A 
BRANCH  10  13
ATOM     13  O   UNL d   1      33.926 -17.270  -4.534  0.00  0.00    -0.351 OA
BRANCH  13  14
ATOM     14  C   UNL d   1      34.568 -16.730  -5.692  0.00  0.00     0.175 C 
BRANCH  14  15
ATOM     15  C   UNL d   1      35.242 -15.411  -5.323  0.00  0.00     0.027 C 
BRANCH  15  16
ATOM     16  C   UNL d   1      35.167 -14.421  -6.482  0.00  0.00     0.002 C 
BRANCH  16  17
ATOM     17  C   UNL d   1      35.034 -12.990  -5.976  0.00  0.00    -0.000 C 
BRANCH  17  18
ATOM     18  C   UNL d   1      34.446 -12.963  -4.569  0.00  0.00    -0.005 C 
ATOM     19  C   UNL d   1      35.240 -12.027  -3.676  0.00  0.00     0.005 C 
ENDBRANCH  17  18
ENDBRANCH  16  17
ENDBRANCH  15  16
ENDBRANCH  14  15
ENDBRANCH  13  14
ENDBRANCH  10  13
ENDBRANCH   4   7
ENDBRANCH   1   3
BRANCH   1  20
ATOM     20  N   UNL d   1      25.524 -16.443  -1.793  0.00  0.00    -0.273 N 
ATOM     21  H   UNL d   1      25.962 -17.171  -1.235  0.00  0.00     0.189 HD
BRANCH  20  22
ATOM     22  N   UNL d   1      23.850 -16.500  -1.812  0.00  0.00    -0.266 N 
ATOM     23  C   UNL d   1      23.002 -17.677  -1.376  0.00  0.00     0.264 C 
ATOM     24  O   UNL d   1      23.581 -18.619  -0.882  0.00  0.00    -0.270 OA
ATOM     25  H   UNL d   1      23.499 -15.587  -2.094  0.00  0.00     0.190 HD
BRANCH  23  26
ATOM     26  C   UNL d   1      21.190 -17.594  -1.610  0.00  0.00     0.379 C 
BRANCH  26  27
ATOM     27  N   UNL d   1      19.905 -18.575  -0.895  0.00  0.00     0.129 NA
ATOM     28  C   UNL d   1      20.143 -19.831  -1.482  0.00  0.00     0.286 C 
ATOM     29  C   UNL d   1      18.804 -19.959  -1.697  0.00  0.00     0.021 C 
ATOM     30  C   UNL d   1      18.485 -20.253  -0.385  0.00  0.00    -0.014 A 
ATOM     31  C   UNL d   1      17.615 -21.401  -0.082  0.00  0.00     0.010 A 
ATOM     32  C   UNL d   1      19.374 -19.219   0.545  0.00  0.00     0.249 A 
ATOM     33  C   UNL d   1      17.287 -21.947   1.119  0.00  0.00     0.000 A 
ATOM     34  C   UNL d   1      17.905 -21.263   2.103  0.00  0.00    -0.001 A 
ATOM     35  C   UNL d   1      18.777 -20.034   1.786  0.00  0.00     0.023 A 
ENDBRANCH  26  27
ENDBRANCH  23  26
ENDBRANCH  20  22
ENDBRANCH   1  20
TORSDOF 12
ENDMDL
MODEL 4
REMARK VINA RESULT:   -16.041      2.547      3.492
REMARK INTER + INTRA:         -20.827
REMARK INTER:                 -19.621
REMARK INTRA:                  -1.207
REMARK CONF_INDEPENDENT:        3.580
REMARK UNBOUND:                -1.207
REMARK  12 active torsions:
REMARK  status: ('A' for Active; 'I' for Inactive)
REMARK    1  A    between atoms: C_2  and  C_3 
REMARK    2  A    between atoms: C_3  and  C_4 
REMARK    3  A    between atoms: C_4  and  C_5 
REMARK    4  A    between atoms: C_5  and  C_6 
REMARK    5  A    between atoms: C_6  and  O_7 
REMARK    6  A    between atoms: O_7  and  C_8 
REMARK    7  A    between atoms: C_11  and  C_12 
REMARK       I    between atoms: C_12  and  N_14 
REMARK    8  A    between atoms: N_14  and  C_15 
REMARK    9  A    between atoms: C_15  and  N_17 
REMARK   10  A    between atoms: N_17  and  N_18 
REMARK       I    between atoms: N_18  and  C_19 
REMARK   11  A    between atoms: C_19  and  C_21 
REMARK   12  A    between atoms: C_21  and  N_22 
ROOT
ATOM      1  C   UNL d   1      26.311 -16.987  -0.202  0.00  0.00     0.193 C 
ATOM      2  S   UNL d   1      25.930 -18.609   0.032  0.00  0.00    -0.039 SA
ENDROOT
BRANCH   1   3
ATOM      3  N   UNL d   1      27.558 -16.383   0.266  0.00  0.00    -0.298 N 
ATOM      4  C   UNL d   1      27.807 -15.003   0.658  0.00  0.00     0.257 C 
ATOM      5  O   UNL d   1      26.919 -14.134   0.653  0.00  0.00    -0.267 OA
ATOM      6  H   UNL d   1      28.374 -16.974   0.304  0.00  0.00     0.171 HD
BRANCH   4   7
ATOM      7  C   UNL d   1      29.176 -14.464   1.073  0.00  0.00     0.032 A 
ATOM      8  C   UNL d   1      29.242 -13.364   1.978  0.00  0.00     0.020 A 
ATOM      9  C   UNL d   1      30.457 -12.725   2.308  0.00  0.00     0.038 A 
ATOM     10  C   UNL d   1      31.655 -13.215   1.804  0.00  0.00     0.068 A 
ATOM     11  C   UNL d   1      31.616 -14.331   0.963  0.00  0.00     0.038 A 
ATOM     12  C   UNL d   1      30.393 -14.945   0.596  0.00  0.00     0.020 A 
BRANCH  10  13
ATOM     13  O   UNL d   1      32.803 -12.624   2.266  0.00  0.00    -0.351 OA
BRANCH  13  14
ATOM     14  C   UNL d   1      33.677 -13.465   3.022  0.00  0.00     0.175 C 
BRANCH  14  15
ATOM     15  C   UNL d   1      35.023 -13.560   2.308  0.00  0.00     0.027 C 
BRANCH  15  16
ATOM     16  C   UNL d   1      35.746 -12.216   2.333  0.00  0.00     0.002 C 
BRANCH  16  17
ATOM     17  C   UNL d   1      35.235 -11.339   3.470  0.00  0.00    -0.000 C 
BRANCH  17  18
ATOM     18  C   UNL d   1      35.229  -9.869   3.062  0.00  0.00    -0.005 C 
ATOM     19  C   UNL d   1      34.713  -9.711   1.643  0.00  0.00     0.005 C 
ENDBRANCH  17  18
ENDBRANCH  16  17
ENDBRANCH  15  16
ENDBRANCH  14  15
ENDBRANCH  13  14
ENDBRANCH  10  13
ENDBRANCH   4   7
ENDBRANCH   1   3
BRANCH   1  20
ATOM     20  N   UNL d   1      25.363 -16.130  -0.897  0.00  0.00    -0.273 N 
ATOM     21  H   UNL d   1      25.475 -15.129  -1.032  0.00  0.00     0.189 HD
BRANCH  20  22
ATOM     22  N   UNL d   1      23.938 -16.755  -1.520  0.00  0.00    -0.266 N 
ATOM     23  C   UNL d   1      22.587 -16.723  -0.837  0.00  0.00     0.264 C 
ATOM     24  O   UNL d   1      22.511 -16.107   0.204  0.00  0.00    -0.270 OA
ATOM     25  H   UNL d   1      24.120 -17.093  -2.463  0.00  0.00     0.190 HD
BRANCH  23  26
ATOM     26  C   UNL d   1      21.180 -17.589  -1.621  0.00  0.00     0.379 C 
BRANCH  26  27
ATOM     27  N   UNL d   1      19.905 -18.575  -0.896  0.00  0.00     0.129 NA
ATOM     28  C   UNL d   1      20.131 -19.825  -1.501  0.00  0.00     0.286 C 
ATOM     29  C   UNL d   1      18.788 -19.947  -1.696  0.00  0.00     0.021 C 
ATOM     30  C   UNL d   1      18.490 -20.256  -0.383  0.00  0.00    -0.014 A 
ATOM     31  C   UNL d   1      17.622 -21.406  -0.078  0.00  0.00     0.010 A 
ATOM     32  C   UNL d   1      19.396 -19.234   0.545  0.00  0.00     0.249 A 
ATOM     33  C   UNL d   1      17.314 -21.966   1.122  0.00  0.00     0.000 A 
ATOM     34  C   UNL d   1      17.948 -21.294   2.104  0.00  0.00    -0.001 A 
ATOM     35  C   UNL d   1      18.818 -20.063   1.786  0.00  0.00     0.023 A 
ENDBRANCH  26  27
ENDBRANCH  23  26
ENDBRANCH  20  22
ENDBRANCH   1  20
TORSDOF 12
ENDMDL
MODEL 5
REMARK VINA RESULT:   -15.863      4.749      5.817
REMARK INTER + INTRA:         -20.954
REMARK INTER:                 -19.442
REMARK INTRA:                  -1.512
REMARK CONF_INDEPENDENT:        3.580
REMARK UNBOUND:                -1.512
REMARK  12 active torsions:
REMARK  status: ('A' for Active; 'I' for Inactive)
REMARK    1  A    between atoms: C_2  and  C_3 
REMARK    2  A    between atoms: C_3  and  C_4 
REMARK    3  A    between atoms: C_4  and  C_5 
REMARK    4  A    between atoms: C_5  and  C_6 
REMARK    5  A    between atoms: C_6  and  O_7 
REMARK    6  A    between atoms: O_7  and  C_8 
REMARK    7  A    between atoms: C_11  and  C_12 
REMARK       I    between atoms: C_12  and  N_14 
REMARK    8  A    between atoms: N_14  and  C_15 
REMARK    9  A    between atoms: C_15  and  N_17 
REMARK   10  A    between atoms: N_17  and  N_18 
REMARK       I    between atoms: N_18  and  C_19 
REMARK   11  A    between atoms: C_19  and  C_21 
REMARK   12  A    between atoms: C_21  and  N_22 
ROOT
ATOM      1  C   UNL d   1      26.179 -15.346  -2.300  0.00  0.00     0.193 C 
ATOM      2  S   UNL d   1      25.505 -14.371  -3.493  0.00  0.00    -0.039 SA
ENDROOT
BRANCH   1   3
ATOM      3  N   UNL d   1      27.594 -15.714  -2.272  0.00  0.00    -0.298 N 
ATOM      4  C   UNL d   1      28.347 -16.343  -1.197  0.00  0.00     0.257 C 
ATOM      5  O   UNL d   1      27.827 -16.675  -0.119  0.00  0.00    -0.267 OA
ATOM      6  H   UNL d   1      28.149 -15.486  -3.083  0.00  0.00     0.171 HD
BRANCH   4   7
ATOM      7  C   UNL d   1      29.849 -16.627  -1.254  0.00  0.00     0.032 A 
ATOM      8  C   UNL d   1      30.297 -17.908  -1.692  0.00  0.00     0.020 A 
ATOM      9  C   UNL d   1      31.654 -18.292  -1.649  0.00  0.00     0.038 A 
ATOM     10  C   UNL d   1      32.619 -17.381  -1.239  0.00  0.00     0.068 A 
ATOM     11  C   UNL d   1      32.205 -16.099  -0.864  0.00  0.00     0.038 A 
ATOM     12  C   UNL d   1      30.838 -15.727  -0.865  0.00  0.00     0.020 A 
BRANCH  10  13
ATOM     13  O   UNL d   1      33.926 -17.782  -1.343  0.00  0.00    -0.351 OA
BRANCH  13  14
ATOM     14  C   UNL d   1      34.250 -19.021  -0.707  0.00  0.00     0.175 C 
BRANCH  14  15
ATOM     15  C   UNL d   1      35.748 -19.058  -0.416  0.00  0.00     0.027 C 
BRANCH  15  16
ATOM     16  C   UNL d   1      36.046 -18.477   0.964  0.00  0.00     0.002 C 
BRANCH  16  17
ATOM     17  C   UNL d   1      35.185 -19.135   2.035  0.00  0.00    -0.000 C 
BRANCH  17  18
ATOM     18  C   UNL d   1      35.055 -18.234   3.259  0.00  0.00    -0.005 C 
ATOM     19  C   UNL d   1      35.127 -16.772   2.855  0.00  0.00     0.005 C 
ENDBRANCH  17  18
ENDBRANCH  16  17
ENDBRANCH  15  16
ENDBRANCH  14  15
ENDBRANCH  13  14
ENDBRANCH  10  13
ENDBRANCH   4   7
ENDBRANCH   1   3
BRANCH   1  20
ATOM     20  N   UNL d   1      25.325 -15.861  -1.240  0.00  0.00    -0.273 N 
ATOM     21  H   UNL d   1      25.639 -16.089  -0.301  0.00  0.00     0.189 HD
BRANCH  20  22
ATOM     22  N   UNL d   1      23.700 -16.159  -1.517  0.00  0.00    -0.266 N 
ATOM     23  C   UNL d   1      22.939 -17.387  -1.064  0.00  0.00     0.264 C 
ATOM     24  O   UNL d   1      23.532 -18.174  -0.359  0.00  0.00    -0.270 OA
ATOM     25  H   UNL d   1      23.296 -15.345  -1.975  0.00  0.00     0.190 HD
BRANCH  23  26
ATOM     26  C   UNL d   1      21.200 -17.593  -1.592  0.00  0.00     0.379 C 
BRANCH  26  27
ATOM     27  N   UNL d   1      19.908 -18.578  -0.894  0.00  0.00     0.129 NA
ATOM     28  C   UNL d   1      20.187 -19.844  -1.439  0.00  0.00     0.286 C 
ATOM     29  C   UNL d   1      18.858 -20.001  -1.695  0.00  0.00     0.021 C 
ATOM     30  C   UNL d   1      18.500 -20.266  -0.387  0.00  0.00    -0.014 A 
ATOM     31  C   UNL d   1      17.639 -21.421  -0.082  0.00  0.00     0.010 A 
ATOM     32  C   UNL d   1      19.339 -19.192   0.544  0.00  0.00     0.249 A 
ATOM     33  C   UNL d   1      17.281 -21.941   1.122  0.00  0.00     0.000 A 
ATOM     34  C   UNL d   1      17.853 -21.220   2.107  0.00  0.00    -0.001 A 
ATOM     35  C   UNL d   1      18.715 -19.985   1.786  0.00  0.00     0.023 A 
ENDBRANCH  26  27
ENDBRANCH  23  26
ENDBRANCH  20  22
ENDBRANCH   1  20
TORSDOF 12
ENDMDL
MODEL 6
REMARK VINA RESULT:   -15.492      5.394      7.207
REMARK INTER + INTRA:         -20.803
REMARK INTER:                 -19.072
REMARK INTRA:                  -1.731
REMARK CONF_INDEPENDENT:        3.580
REMARK UNBOUND:                -1.731
REMARK  12 active torsions:
REMARK  status: ('A' for Active; 'I' for Inactive)
REMARK    1  A    between atoms: C_2  and  C_3 
REMARK    2  A    between atoms: C_3  and  C_4 
REMARK    3  A    between atoms: C_4  and  C_5 
REMARK    4  A    between atoms: C_5  and  C_6 
REMARK    5  A    between atoms: C_6  and  O_7 
REMARK    6  A    between atoms: O_7  and  C_8 
REMARK    7  A    between atoms: C_11  and  C_12 
REMARK       I    between atoms: C_12  and  N_14 
REMARK    8  A    between atoms: N_14  and  C_15 
REMARK    9  A    between atoms: C_15  and  N_17 
REMARK   10  A    between atoms: N_17  and  N_18 
REMARK       I    between atoms: N_18  and  C_19 
REMARK   11  A    between atoms: C_19  and  C_21 
REMARK   12  A    between atoms: C_21  and  N_22 
ROOT
ATOM      1  C   UNL d   1      26.131 -15.047  -2.173  0.00  0.00     0.193 C 
ATOM      2  S   UNL d   1      25.397 -13.644  -2.738  0.00  0.00    -0.039 SA
ENDROOT
BRANCH   1   3
ATOM      3  N   UNL d   1      27.518 -15.402  -2.474  0.00  0.00    -0.298 N 
ATOM      4  C   UNL d   1      28.338 -16.445  -1.877  0.00  0.00     0.257 C 
ATOM      5  O   UNL d   1      27.912 -17.212  -0.997  0.00  0.00    -0.267 OA
ATOM      6  H   UNL d   1      27.999 -14.846  -3.165  0.00  0.00     0.171 HD
BRANCH   4   7
ATOM      7  C   UNL d   1      29.807 -16.687  -2.228  0.00  0.00     0.032 A 
ATOM      8  C   UNL d   1      30.195 -17.956  -2.750  0.00  0.00     0.020 A 
ATOM      9  C   UNL d   1      31.544 -18.303  -2.975  0.00  0.00     0.038 A 
ATOM     10  C   UNL d   1      32.546 -17.365  -2.758  0.00  0.00     0.068 A 
ATOM     11  C   UNL d   1      32.179 -16.095  -2.304  0.00  0.00     0.038 A 
ATOM     12  C   UNL d   1      30.828 -15.760  -2.035  0.00  0.00     0.020 A 
BRANCH  10  13
ATOM     13  O   UNL d   1      33.818 -17.730  -3.117  0.00  0.00    -0.351 OA
BRANCH  13  14
ATOM     14  C   UNL d   1      34.021 -17.998  -4.506  0.00  0.00     0.175 C 
BRANCH  14  15
ATOM     15  C   UNL d   1      34.456 -16.713  -5.207  0.00  0.00     0.027 C 
BRANCH  15  16
ATOM     16  C   UNL d   1      33.380 -16.236  -6.179  0.00  0.00     0.002 C 
BRANCH  16  17
ATOM     17  C   UNL d   1      31.996 -16.306  -5.545  0.00  0.00    -0.000 C 
BRANCH  17  18
ATOM     18  C   UNL d   1      31.057 -15.282  -6.174  0.00  0.00    -0.005 C 
ATOM     19  C   UNL d   1      29.708 -15.908  -6.476  0.00  0.00     0.005 C 
ENDBRANCH  17  18
ENDBRANCH  16  17
ENDBRANCH  15  16
ENDBRANCH  14  15
ENDBRANCH  13  14
ENDBRANCH  10  13
ENDBRANCH   4   7
ENDBRANCH   1   3
BRANCH   1  20
ATOM     20  N   UNL d   1      25.363 -15.966  -1.347  0.00  0.00    -0.273 N 
ATOM     21  H   UNL d   1      25.729 -16.473  -0.546  0.00  0.00     0.189 HD
BRANCH  20  22
ATOM     22  N   UNL d   1      23.757 -16.294  -1.695  0.00  0.00    -0.266 N 
ATOM     23  C   UNL d   1      22.876 -17.277  -0.953  0.00  0.00     0.264 C 
ATOM     24  O   UNL d   1      23.344 -17.799   0.035  0.00  0.00    -0.270 OA
ATOM     25  H   UNL d   1      23.454 -15.668  -2.439  0.00  0.00     0.190 HD
BRANCH  23  26
ATOM     26  C   UNL d   1      21.188 -17.598  -1.580  0.00  0.00     0.379 C 
BRANCH  26  27
ATOM     27  N   UNL d   1      19.887 -18.578  -0.894  0.00  0.00     0.129 NA
ATOM     28  C   UNL d   1      20.176 -19.849  -1.424  0.00  0.00     0.286 C 
ATOM     29  C   UNL d   1      18.852 -20.010  -1.699  0.00  0.00     0.021 C 
ATOM     30  C   UNL d   1      18.473 -20.265  -0.395  0.00  0.00    -0.014 A 
ATOM     31  C   UNL d   1      17.610 -21.419  -0.094  0.00  0.00     0.010 A 
ATOM     32  C   UNL d   1      19.297 -19.182   0.540  0.00  0.00     0.249 A 
ATOM     33  C   UNL d   1      17.233 -21.929   1.109  0.00  0.00     0.000 A 
ATOM     34  C   UNL d   1      17.789 -21.199   2.097  0.00  0.00    -0.001 A 
ATOM     35  C   UNL d   1      18.654 -19.965   1.779  0.00  0.00     0.023 A 
ENDBRANCH  26  27
ENDBRANCH  23  26
ENDBRANCH  20  22
ENDBRANCH   1  20
TORSDOF 12
ENDMDL
