MODEL 1
REMARK VINA RESULT:    -7.596      0.000      0.000
REMARK INTER + INTRA:          -9.959
REMARK INTER:                  -9.087
REMARK INTRA:                  -0.872
REMARK CONF_INDEPENDENT:        1.492
REMARK UNBOUND:                -0.872
REMARK  5 active torsions:
REMARK  status: ('A' for Active; 'I' for Inactive)
REMARK    1  A    between atoms: C_2  and  C_3 
REMARK    2  A    between atoms: C_6  and  C_7 
REMARK       I    between atoms: C_7  and  N_9 
REMARK    3  A    between atoms: N_9  and  N_10 
REMARK       I    between atoms: N_10  and  C_11 
REMARK    4  A    between atoms: C_11  and  C_13 
REMARK    5  A    between atoms: C_16  and  N_17 
ROOT
ATOM      1  C   UNL d   1      24.671 -17.191  -0.890  0.00  0.00     0.270 C 
ATOM      2  O   UNL d   1      25.036 -18.171  -0.238  0.00  0.00    -0.266 OA
ATOM      3  N   UNL d   1      23.332 -16.798  -0.927  0.00  0.00    -0.263 N 
ATOM      4  H   UNL d   1      22.985 -15.983  -1.426  0.00  0.00     0.190 HD
ENDROOT
BRANCH   3   5
ATOM      5  N   UNL d   1      22.350 -17.514  -0.170  0.00  0.00    -0.261 N 
ATOM      6  C   UNL d   1      21.823 -18.719  -0.655  0.00  0.00     0.293 C 
ATOM      7  O   UNL d   1      22.177 -19.160  -1.756  0.00  0.00    -0.264 OA
ATOM      8  H   UNL d   1      22.156 -17.148   0.761  0.00  0.00     0.190 HD
BRANCH   6   9
ATOM      9  C   UNL d   1      20.813 -19.360   0.193  0.00  0.00     0.147 A 
ATOM     10  C   UNL d   1      20.655 -19.319   1.573  0.00  0.00     0.048 A 
ATOM     11  C   UNL d   1      19.512 -20.082   1.904  0.00  0.00     0.066 A 
ATOM     12  C   UNL d   1      19.018 -20.554   0.713  0.00  0.00     0.215 A 
ATOM     13  O   UNL d   1      19.771 -20.113  -0.347  0.00  0.00    -0.283 OA
BRANCH  12  14
ATOM     14  N   UNL d   1      17.883 -21.405   0.480  0.00  0.00    -0.090 N 
ATOM     15  O   UNL d   1      17.655 -22.325   1.272  0.00  0.00    -0.530 OA
ATOM     16  O   UNL d   1      17.199 -21.129  -0.520  0.00  0.00    -0.530 OA
ENDBRANCH  12  14
ENDBRANCH   6   9
ENDBRANCH   3   5
BRANCH   1  17
ATOM     17  C   UNL d   1      25.689 -16.361  -1.646  0.00  0.00     0.033 A 
ATOM     18  C   UNL d   1      25.257 -15.487  -2.666  0.00  0.00     0.017 A 
ATOM     19  C   UNL d   1      26.179 -14.794  -3.473  0.00  0.00     0.008 A 
ATOM     20  C   UNL d   1      27.550 -14.885  -3.216  0.00  0.00    -0.059 A 
ATOM     21  C   UNL d   1      27.982 -15.733  -2.193  0.00  0.00     0.008 A 
ATOM     22  C   UNL d   1      27.066 -16.460  -1.416  0.00  0.00     0.017 A 
BRANCH  20  23
ATOM     23  C   UNL d   1      28.555 -14.077  -4.003  0.00  0.00     0.034 C 
ATOM     24  C   UNL d   1      28.544 -14.425  -5.480  0.00  0.00     0.010 C 
ENDBRANCH  20  23
ENDBRANCH   1  17
TORSDOF 5
ENDMDL
MODEL 2
REMARK VINA RESULT:    -7.103      2.911      9.268
REMARK INTER + INTRA:         -10.260
REMARK INTER:                  -8.594
REMARK INTRA:                  -1.666
REMARK CONF_INDEPENDENT:        1.492
REMARK UNBOUND:                -1.666
REMARK  5 active torsions:
REMARK  status: ('A' for Active; 'I' for Inactive)
REMARK    1  A    between atoms: C_2  and  C_3 
REMARK    2  A    between atoms: C_6  and  C_7 
REMARK       I    between atoms: C_7  and  N_9 
REMARK    3  A    between atoms: N_9  and  N_10 
REMARK       I    between atoms: N_10  and  C_11 
REMARK    4  A    between atoms: C_11  and  C_13 
REMARK    5  A    between atoms: C_16  and  N_17 
ROOT
ATOM      1  C   UNL d   1      22.631 -18.567  -1.404  0.00  0.00     0.270 C 
ATOM      2  O   UNL d   1      23.068 -19.259  -2.326  0.00  0.00    -0.266 OA
ATOM      3  N   UNL d   1      23.210 -17.340  -1.077  0.00  0.00    -0.263 N 
ATOM      4  H   UNL d   1      22.871 -16.721  -0.345  0.00  0.00     0.190 HD
ENDROOT
BRANCH   3   5
ATOM      5  N   UNL d   1      24.313 -16.839  -1.837  0.00  0.00    -0.261 N 
ATOM      6  C   UNL d   1      25.265 -16.002  -1.238  0.00  0.00     0.293 C 
ATOM      7  O   UNL d   1      25.144 -15.663  -0.053  0.00  0.00    -0.264 OA
ATOM      8  H   UNL d   1      24.408 -17.213  -2.780  0.00  0.00     0.190 HD
BRANCH   6   9
ATOM      9  C   UNL d   1      26.345 -15.534  -2.112  0.00  0.00     0.147 A 
ATOM     10  C   UNL d   1      27.508 -14.843  -1.795  0.00  0.00     0.048 A 
ATOM     11  C   UNL d   1      28.240 -14.649  -2.989  0.00  0.00     0.066 A 
ATOM     12  C   UNL d   1      27.496 -15.232  -3.983  0.00  0.00     0.215 A 
ATOM     13  O   UNL d   1      26.351 -15.801  -3.480  0.00  0.00    -0.283 OA
BRANCH  12  14
ATOM     14  N   UNL d   1      27.767 -15.298  -5.394  0.00  0.00    -0.090 N 
ATOM     15  O   UNL d   1      28.934 -15.447  -5.770  0.00  0.00    -0.530 OA
ATOM     16  O   UNL d   1      26.775 -15.211  -6.138  0.00  0.00    -0.530 OA
ENDBRANCH  12  14
ENDBRANCH   6   9
ENDBRANCH   3   5
BRANCH   1  17
ATOM     17  C   UNL d   1      21.417 -19.027  -0.621  0.00  0.00     0.033 A 
ATOM     18  C   UNL d   1      21.428 -18.951   0.788  0.00  0.00     0.017 A 
ATOM     19  C   UNL d   1      20.374 -19.481   1.555  0.00  0.00     0.008 A 
ATOM     20  C   UNL d   1      19.242 -20.011   0.929  0.00  0.00    -0.059 A 
ATOM     21  C   UNL d   1      19.217 -20.069  -0.467  0.00  0.00     0.008 A 
ATOM     22  C   UNL d   1      20.288 -19.581  -1.233  0.00  0.00     0.017 A 
BRANCH  20  23
ATOM     23  C   UNL d   1      18.055 -20.497   1.727  0.00  0.00     0.034 C 
ATOM     24  C   UNL d   1      17.651 -21.913   1.355  0.00  0.00     0.010 C 
ENDBRANCH  20  23
ENDBRANCH   1  17
TORSDOF 5
ENDMDL
MODEL 3
REMARK VINA RESULT:    -6.898      2.449      4.085
REMARK INTER + INTRA:         -10.154
REMARK INTER:                  -8.390
REMARK INTRA:                  -1.765
REMARK CONF_INDEPENDENT:        1.492
REMARK UNBOUND:                -1.765
REMARK  5 active torsions:
REMARK  status: ('A' for Active; 'I' for Inactive)
REMARK    1  A    between atoms: C_2  and  C_3 
REMARK    2  A    between atoms: C_6  and  C_7 
REMARK       I    between atoms: C_7  and  N_9 
REMARK    3  A    between atoms: N_9  and  N_10 
REMARK       I    between atoms: N_10  and  C_11 
REMARK    4  A    between atoms: C_11  and  C_13 
REMARK    5  A    between atoms: C_16  and  N_17 
ROOT
ATOM      1  C   UNL d   1      26.012 -14.967  -4.184  0.00  0.00     0.270 C 
ATOM      2  O   UNL d   1      24.894 -14.600  -4.550  0.00  0.00    -0.266 OA
ATOM      3  N   UNL d   1      26.173 -15.881  -3.141  0.00  0.00    -0.263 N 
ATOM      4  H   UNL d   1      27.070 -16.235  -2.820  0.00  0.00     0.190 HD
ENDROOT
BRANCH   3   5
ATOM      5  N   UNL d   1      25.028 -16.442  -2.491  0.00  0.00    -0.261 N 
ATOM      6  C   UNL d   1      25.181 -17.242  -1.351  0.00  0.00     0.293 C 
ATOM      7  O   UNL d   1      26.310 -17.498  -0.912  0.00  0.00    -0.264 OA
ATOM      8  H   UNL d   1      24.123 -16.134  -2.845  0.00  0.00     0.190 HD
BRANCH   6   9
ATOM      9  C   UNL d   1      23.944 -17.777  -0.775  0.00  0.00     0.147 A 
ATOM     10  C   UNL d   1      23.678 -18.200   0.522  0.00  0.00     0.048 A 
ATOM     11  C   UNL d   1      22.324 -18.604   0.580  0.00  0.00     0.066 A 
ATOM     12  C   UNL d   1      21.821 -18.409  -0.682  0.00  0.00     0.215 A 
ATOM     13  O   UNL d   1      22.772 -17.884  -1.522  0.00  0.00    -0.283 OA
BRANCH  12  14
ATOM     14  N   UNL d   1      20.499 -18.684  -1.180  0.00  0.00    -0.090 N 
ATOM     15  O   UNL d   1      19.583 -17.905  -0.897  0.00  0.00    -0.530 OA
ATOM     16  O   UNL d   1      20.390 -19.702  -1.883  0.00  0.00    -0.530 OA
ENDBRANCH  12  14
ENDBRANCH   6   9
ENDBRANCH   3   5
BRANCH   1  17
ATOM     17  C   UNL d   1      27.249 -14.454  -4.894  0.00  0.00     0.033 A 
ATOM     18  C   UNL d   1      27.265 -13.138  -5.401  0.00  0.00     0.017 A 
ATOM     19  C   UNL d   1      28.344 -12.666  -6.173  0.00  0.00     0.008 A 
ATOM     20  C   UNL d   1      29.473 -13.467  -6.372  0.00  0.00    -0.059 A 
ATOM     21  C   UNL d   1      29.470 -14.765  -5.853  0.00  0.00     0.008 A 
ATOM     22  C   UNL d   1      28.376 -15.252  -5.121  0.00  0.00     0.017 A 
BRANCH  20  23
ATOM     23  C   UNL d   1      30.684 -12.952  -7.113  0.00  0.00     0.034 C 
ATOM     24  C   UNL d   1      30.381 -12.642  -8.568  0.00  0.00     0.010 C 
ENDBRANCH  20  23
ENDBRANCH   1  17
TORSDOF 5
ENDMDL
MODEL 4
REMARK VINA RESULT:    -6.565      3.102      4.571
REMARK INTER + INTRA:          -9.749
REMARK INTER:                  -8.056
REMARK INTRA:                  -1.693
REMARK CONF_INDEPENDENT:        1.492
REMARK UNBOUND:                -1.693
REMARK  5 active torsions:
REMARK  status: ('A' for Active; 'I' for Inactive)
REMARK    1  A    between atoms: C_2  and  C_3 
REMARK    2  A    between atoms: C_6  and  C_7 
REMARK       I    between atoms: C_7  and  N_9 
REMARK    3  A    between atoms: N_9  and  N_10 
REMARK       I    between atoms: N_10  and  C_11 
REMARK    4  A    between atoms: C_11  and  C_13 
REMARK    5  A    between atoms: C_16  and  N_17 
ROOT
ATOM      1  C   UNL d   1      25.220 -13.725  -3.749  0.00  0.00     0.270 C 
ATOM      2  O   UNL d   1      24.395 -14.106  -4.581  0.00  0.00    -0.266 OA
ATOM      3  N   UNL d   1      25.335 -14.342  -2.502  0.00  0.00    -0.263 N 
ATOM      4  H   UNL d   1      26.017 -14.084  -1.794  0.00  0.00     0.190 HD
ENDROOT
BRANCH   3   5
ATOM      5  N   UNL d   1      24.510 -15.464  -2.175  0.00  0.00    -0.261 N 
ATOM      6  C   UNL d   1      24.757 -16.211  -1.014  0.00  0.00     0.293 C 
ATOM      7  O   UNL d   1      25.710 -15.927  -0.277  0.00  0.00    -0.264 OA
ATOM      8  H   UNL d   1      23.694 -15.603  -2.770  0.00  0.00     0.190 HD
BRANCH   6   9
ATOM      9  C   UNL d   1      23.861 -17.348  -0.783  0.00  0.00     0.147 A 
ATOM     10  C   UNL d   1      24.115 -18.571  -0.174  0.00  0.00     0.048 A 
ATOM     11  C   UNL d   1      22.914 -19.316  -0.172  0.00  0.00     0.066 A 
ATOM     12  C   UNL d   1      21.976 -18.516  -0.776  0.00  0.00     0.215 A 
ATOM     13  O   UNL d   1      22.512 -17.305  -1.137  0.00  0.00    -0.283 OA
BRANCH  12  14
ATOM     14  N   UNL d   1      20.594 -18.798  -1.057  0.00  0.00    -0.090 N 
ATOM     15  O   UNL d   1      20.280 -19.938  -1.416  0.00  0.00    -0.530 OA
ATOM     16  O   UNL d   1      19.808 -17.850  -0.898  0.00  0.00    -0.530 OA
ENDBRANCH  12  14
ENDBRANCH   6   9
ENDBRANCH   3   5
BRANCH   1  17
ATOM     17  C   UNL d   1      26.164 -12.587  -4.083  0.00  0.00     0.033 A 
ATOM     18  C   UNL d   1      26.002 -11.338  -3.448  0.00  0.00     0.017 A 
ATOM     19  C   UNL d   1      26.777 -10.224  -3.821  0.00  0.00     0.008 A 
ATOM     20  C   UNL d   1      27.796 -10.358  -4.768  0.00  0.00    -0.059 A 
ATOM     21  C   UNL d   1      27.975 -11.599  -5.385  0.00  0.00     0.008 A 
ATOM     22  C   UNL d   1      27.173 -12.700  -5.046  0.00  0.00     0.017 A 
BRANCH  20  23
ATOM     23  C   UNL d   1      28.706  -9.203  -5.115  0.00  0.00     0.034 C 
ATOM     24  C   UNL d   1      27.991  -7.865  -5.048  0.00  0.00     0.010 C 
ENDBRANCH  20  23
ENDBRANCH   1  17
TORSDOF 5
ENDMDL
MODEL 5
REMARK VINA RESULT:    -6.443      3.354      9.399
REMARK INTER + INTRA:          -9.480
REMARK INTER:                  -7.935
REMARK INTRA:                  -1.545
REMARK CONF_INDEPENDENT:        1.492
REMARK UNBOUND:                -1.545
REMARK  5 active torsions:
REMARK  status: ('A' for Active; 'I' for Inactive)
REMARK    1  A    between atoms: C_2  and  C_3 
REMARK    2  A    between atoms: C_6  and  C_7 
REMARK       I    between atoms: C_7  and  N_9 
REMARK    3  A    between atoms: N_9  and  N_10 
REMARK       I    between atoms: N_10  and  C_11 
REMARK    4  A    between atoms: C_11  and  C_13 
REMARK    5  A    between atoms: C_16  and  N_17 
ROOT
ATOM      1  C   UNL d   1      23.490 -17.942  -0.858  0.00  0.00     0.270 C 
ATOM      2  O   UNL d   1      24.513 -18.611  -0.698  0.00  0.00    -0.266 OA
ATOM      3  N   UNL d   1      23.527 -16.697  -1.489  0.00  0.00    -0.263 N 
ATOM      4  H   UNL d   1      22.710 -16.120  -1.669  0.00  0.00     0.190 HD
ENDROOT
BRANCH   3   5
ATOM      5  N   UNL d   1      24.761 -16.183  -1.998  0.00  0.00    -0.261 N 
ATOM      6  C   UNL d   1      24.778 -15.011  -2.766  0.00  0.00     0.293 C 
ATOM      7  O   UNL d   1      23.722 -14.425  -3.039  0.00  0.00    -0.264 OA
ATOM      8  H   UNL d   1      25.604 -16.657  -1.677  0.00  0.00     0.190 HD
BRANCH   6   9
ATOM      9  C   UNL d   1      26.094 -14.582  -3.249  0.00  0.00     0.147 A 
ATOM     10  C   UNL d   1      26.883 -13.511  -2.847  0.00  0.00     0.048 A 
ATOM     11  C   UNL d   1      28.078 -13.541  -3.601  0.00  0.00     0.066 A 
ATOM     12  C   UNL d   1      27.971 -14.631  -4.429  0.00  0.00     0.215 A 
ATOM     13  O   UNL d   1      26.789 -15.299  -4.223  0.00  0.00    -0.283 OA
BRANCH  12  14
ATOM     14  N   UNL d   1      28.897 -15.106  -5.422  0.00  0.00    -0.090 N 
ATOM     15  O   UNL d   1      30.099 -15.156  -5.140  0.00  0.00    -0.530 OA
ATOM     16  O   UNL d   1      28.395 -15.449  -6.506  0.00  0.00    -0.530 OA
ENDBRANCH  12  14
ENDBRANCH   6   9
ENDBRANCH   3   5
BRANCH   1  17
ATOM     17  C   UNL d   1      22.151 -18.482  -0.400  0.00  0.00     0.033 A 
ATOM     18  C   UNL d   1      21.872 -18.575   0.980  0.00  0.00     0.017 A 
ATOM     19  C   UNL d   1      20.693 -19.185   1.447  0.00  0.00     0.008 A 
ATOM     20  C   UNL d   1      19.721 -19.627   0.544  0.00  0.00    -0.059 A 
ATOM     21  C   UNL d   1      19.983 -19.517  -0.824  0.00  0.00     0.008 A 
ATOM     22  C   UNL d   1      21.179 -18.950  -1.291  0.00  0.00     0.017 A 
BRANCH  20  23
ATOM     23  C   UNL d   1      18.405 -20.196   1.019  0.00  0.00     0.034 C 
ATOM     24  C   UNL d   1      18.391 -21.714   0.996  0.00  0.00     0.010 C 
ENDBRANCH  20  23
ENDBRANCH   1  17
TORSDOF 5
ENDMDL
MODEL 6
REMARK VINA RESULT:    -6.267      4.846     10.159
REMARK INTER + INTRA:          -9.262
REMARK INTER:                  -7.759
REMARK INTRA:                  -1.503
REMARK CONF_INDEPENDENT:        1.492
REMARK UNBOUND:                -1.503
REMARK  5 active torsions:
REMARK  status: ('A' for Active; 'I' for Inactive)
REMARK    1  A    between atoms: C_2  and  C_3 
REMARK    2  A    between atoms: C_6  and  C_7 
REMARK       I    between atoms: C_7  and  N_9 
REMARK    3  A    between atoms: N_9  and  N_10 
REMARK       I    between atoms: N_10  and  C_11 
REMARK    4  A    between atoms: C_11  and  C_13 
REMARK    5  A    between atoms: C_16  and  N_17 
ROOT
ATOM      1  C   UNL d   1      25.736 -16.264  -1.687  0.00  0.00     0.270 C 
ATOM      2  O   UNL d   1      26.735 -16.032  -1.003  0.00  0.00    -0.266 OA
ATOM      3  N   UNL d   1      25.695 -15.946  -3.046  0.00  0.00    -0.263 N 
ATOM      4  H   UNL d   1      24.907 -16.141  -3.658  0.00  0.00     0.190 HD
ENDROOT
BRANCH   3   5
ATOM      5  N   UNL d   1      26.838 -15.370  -3.686  0.00  0.00    -0.261 N 
ATOM      6  C   UNL d   1      26.860 -15.200  -5.077  0.00  0.00     0.293 C 
ATOM      7  O   UNL d   1      25.905 -15.575  -5.770  0.00  0.00    -0.264 OA
ATOM      8  H   UNL d   1      27.558 -15.007  -3.063  0.00  0.00     0.190 HD
BRANCH   6   9
ATOM      9  C   UNL d   1      28.085 -14.615  -5.630  0.00  0.00     0.147 A 
ATOM     10  C   UNL d   1      28.513 -13.293  -5.638  0.00  0.00     0.048 A 
ATOM     11  C   UNL d   1      29.778 -13.247  -6.268  0.00  0.00     0.066 A 
ATOM     12  C   UNL d   1      30.071 -14.542  -6.614  0.00  0.00     0.215 A 
ATOM     13  O   UNL d   1      29.075 -15.401  -6.219  0.00  0.00    -0.283 OA
BRANCH  12  14
ATOM     14  N   UNL d   1      31.224 -15.054  -7.305  0.00  0.00    -0.090 N 
ATOM     15  O   UNL d   1      32.113 -14.267  -7.645  0.00  0.00    -0.530 OA
ATOM     16  O   UNL d   1      31.236 -16.282  -7.495  0.00  0.00    -0.530 OA
ENDBRANCH  12  14
ENDBRANCH   6   9
ENDBRANCH   3   5
BRANCH   1  17
ATOM     17  C   UNL d   1      24.531 -16.940  -1.065  0.00  0.00     0.033 A 
ATOM     18  C   UNL d   1      24.657 -18.244  -0.541  0.00  0.00     0.017 A 
ATOM     19  C   UNL d   1      23.536 -18.953  -0.070  0.00  0.00     0.008 A 
ATOM     20  C   UNL d   1      22.281 -18.338  -0.022  0.00  0.00    -0.059 A 
ATOM     21  C   UNL d   1      22.155 -17.039  -0.520  0.00  0.00     0.008 A 
ATOM     22  C   UNL d   1      23.264 -16.347  -1.032  0.00  0.00     0.017 A 
BRANCH  20  23
ATOM     23  C   UNL d   1      21.082 -19.040   0.569  0.00  0.00     0.034 C 
ATOM     24  C   UNL d   1      20.006 -19.316  -0.466  0.00  0.00     0.010 C 
ENDBRANCH  20  23
ENDBRANCH   1  17
TORSDOF 5
ENDMDL
MODEL 7
REMARK VINA RESULT:    -5.944     10.433     13.112
REMARK INTER + INTRA:          -9.164
REMARK INTER:                  -7.435
REMARK INTRA:                  -1.728
REMARK CONF_INDEPENDENT:        1.492
REMARK UNBOUND:                -1.728
REMARK  5 active torsions:
REMARK  status: ('A' for Active; 'I' for Inactive)
REMARK    1  A    between atoms: C_2  and  C_3 
REMARK    2  A    between atoms: C_6  and  C_7 
REMARK       I    between atoms: C_7  and  N_9 
REMARK    3  A    between atoms: N_9  and  N_10 
REMARK       I    between atoms: N_10  and  C_11 
REMARK    4  A    between atoms: C_11  and  C_13 
REMARK    5  A    between atoms: C_16  and  N_17 
ROOT
ATOM      1  C   UNL d   1      28.504 -11.993   7.962  0.00  0.00     0.270 C 
ATOM      2  O   UNL d   1      28.522 -10.771   8.118  0.00  0.00    -0.266 OA
ATOM      3  N   UNL d   1      28.136 -12.566   6.744  0.00  0.00    -0.263 N 
ATOM      4  H   UNL d   1      28.131 -13.565   6.556  0.00  0.00     0.190 HD
ENDROOT
BRANCH   3   5
ATOM      5  N   UNL d   1      27.803 -11.735   5.628  0.00  0.00    -0.261 N 
ATOM      6  C   UNL d   1      27.749 -12.272   4.335  0.00  0.00     0.293 C 
ATOM      7  O   UNL d   1      28.020 -13.464   4.139  0.00  0.00    -0.264 OA
ATOM      8  H   UNL d   1      27.511 -10.785   5.855  0.00  0.00     0.190 HD
BRANCH   6   9
ATOM      9  C   UNL d   1      27.412 -11.329   3.264  0.00  0.00     0.147 A 
ATOM     10  C   UNL d   1      27.627 -11.425   1.895  0.00  0.00     0.048 A 
ATOM     11  C   UNL d   1      27.095 -10.266   1.286  0.00  0.00     0.066 A 
ATOM     12  C   UNL d   1      26.575  -9.512   2.308  0.00  0.00     0.215 A 
ATOM     13  O   UNL d   1      26.729 -10.140   3.519  0.00  0.00    -0.283 OA
BRANCH  12  14
ATOM     14  N   UNL d   1      25.939  -8.223   2.248  0.00  0.00    -0.090 N 
ATOM     15  O   UNL d   1      26.279  -7.352   3.056  0.00  0.00    -0.530 OA
ATOM     16  O   UNL d   1      25.086  -8.085   1.355  0.00  0.00    -0.530 OA
ENDBRANCH  12  14
ENDBRANCH   6   9
ENDBRANCH   3   5
BRANCH   1  17
ATOM     17  C   UNL d   1      28.921 -12.908   9.096  0.00  0.00     0.033 A 
ATOM     18  C   UNL d   1      29.961 -13.840   8.892  0.00  0.00     0.017 A 
ATOM     19  C   UNL d   1      30.293 -14.790   9.876  0.00  0.00     0.008 A 
ATOM     20  C   UNL d   1      29.659 -14.767  11.122  0.00  0.00    -0.059 A 
ATOM     21  C   UNL d   1      28.642 -13.832  11.336  0.00  0.00     0.008 A 
ATOM     22  C   UNL d   1      28.279 -12.913  10.340  0.00  0.00     0.017 A 
BRANCH  20  23
ATOM     23  C   UNL d   1      30.063 -15.711  12.230  0.00  0.00     0.034 C 
ATOM     24  C   UNL d   1      31.150 -16.677  11.796  0.00  0.00     0.010 C 
ENDBRANCH  20  23
ENDBRANCH   1  17
TORSDOF 5
ENDMDL
MODEL 8
REMARK VINA RESULT:    -5.875      4.896     10.258
REMARK INTER + INTRA:          -9.209
REMARK INTER:                  -7.366
REMARK INTRA:                  -1.843
REMARK CONF_INDEPENDENT:        1.492
REMARK UNBOUND:                -1.843
REMARK  5 active torsions:
REMARK  status: ('A' for Active; 'I' for Inactive)
REMARK    1  A    between atoms: C_2  and  C_3 
REMARK    2  A    between atoms: C_6  and  C_7 
REMARK       I    between atoms: C_7  and  N_9 
REMARK    3  A    between atoms: N_9  and  N_10 
REMARK       I    between atoms: N_10  and  C_11 
REMARK    4  A    between atoms: C_11  and  C_13 
REMARK    5  A    between atoms: C_16  and  N_17 
ROOT
ATOM      1  C   UNL d   1      25.668 -16.026  -1.677  0.00  0.00     0.270 C 
ATOM      2  O   UNL d   1      26.481 -15.522  -0.901  0.00  0.00    -0.266 OA
ATOM      3  N   UNL d   1      25.805 -15.894  -3.060  0.00  0.00    -0.263 N 
ATOM      4  H   UNL d   1      25.178 -16.313  -3.742  0.00  0.00     0.190 HD
ENDROOT
BRANCH   3   5
ATOM      5  N   UNL d   1      26.924 -15.192  -3.610  0.00  0.00    -0.261 N 
ATOM      6  C   UNL d   1      27.065 -15.059  -4.999  0.00  0.00     0.293 C 
ATOM      7  O   UNL d   1      26.240 -15.575  -5.765  0.00  0.00    -0.264 OA
ATOM      8  H   UNL d   1      27.526 -14.721  -2.936  0.00  0.00     0.190 HD
BRANCH   6   9
ATOM      9  C   UNL d   1      28.255 -14.335  -5.454  0.00  0.00     0.147 A 
ATOM     10  C   UNL d   1      28.717 -14.106  -6.744  0.00  0.00     0.048 A 
ATOM     11  C   UNL d   1      29.895 -13.329  -6.656  0.00  0.00     0.066 A 
ATOM     12  C   UNL d   1      30.100 -13.113  -5.316  0.00  0.00     0.215 A 
ATOM     13  O   UNL d   1      29.109 -13.689  -4.560  0.00  0.00    -0.283 OA
BRANCH  12  14
ATOM     14  N   UNL d   1      31.172 -12.404  -4.669  0.00  0.00    -0.090 N 
ATOM     15  O   UNL d   1      32.279 -12.947  -4.584  0.00  0.00    -0.530 OA
ATOM     16  O   UNL d   1      30.891 -11.269  -4.250  0.00  0.00    -0.530 OA
ENDBRANCH  12  14
ENDBRANCH   6   9
ENDBRANCH   3   5
BRANCH   1  17
ATOM     17  C   UNL d   1      24.509 -16.840  -1.139  0.00  0.00     0.033 A 
ATOM     18  C   UNL d   1      24.703 -18.200  -0.819  0.00  0.00     0.017 A 
ATOM     19  C   UNL d   1      23.625 -19.021  -0.436  0.00  0.00     0.008 A 
ATOM     20  C   UNL d   1      22.348 -18.476  -0.270  0.00  0.00    -0.059 A 
ATOM     21  C   UNL d   1      22.155 -17.124  -0.565  0.00  0.00     0.008 A 
ATOM     22  C   UNL d   1      23.220 -16.315  -0.991  0.00  0.00     0.017 A 
BRANCH  20  23
ATOM     23  C   UNL d   1      21.195 -19.312   0.234  0.00  0.00     0.034 C 
ATOM     24  C   UNL d   1      20.025 -19.324  -0.734  0.00  0.00     0.010 C 
ENDBRANCH  20  23
ENDBRANCH   1  17
TORSDOF 5
ENDMDL
MODEL 9
REMARK VINA RESULT:    -5.841      3.839      9.318
REMARK INTER + INTRA:          -9.118
REMARK INTER:                  -7.332
REMARK INTRA:                  -1.786
REMARK CONF_INDEPENDENT:        1.492
REMARK UNBOUND:                -1.786
REMARK  5 active torsions:
REMARK  status: ('A' for Active; 'I' for Inactive)
REMARK    1  A    between atoms: C_2  and  C_3 
REMARK    2  A    between atoms: C_6  and  C_7 
REMARK       I    between atoms: C_7  and  N_9 
REMARK    3  A    between atoms: N_9  and  N_10 
REMARK       I    between atoms: N_10  and  C_11 
REMARK    4  A    between atoms: C_11  and  C_13 
REMARK    5  A    between atoms: C_16  and  N_17 
ROOT
ATOM      1  C   UNL d   1      22.936 -17.526  -0.311  0.00  0.00     0.270 C 
ATOM      2  O   UNL d   1      22.736 -16.357  -0.646  0.00  0.00    -0.266 OA
ATOM      3  N   UNL d   1      24.224 -17.997  -0.047  0.00  0.00    -0.263 N 
ATOM      4  H   UNL d   1      24.438 -18.942   0.259  0.00  0.00     0.190 HD
ENDROOT
BRANCH   3   5
ATOM      5  N   UNL d   1      25.345 -17.112  -0.129  0.00  0.00    -0.261 N 
ATOM      6  C   UNL d   1      26.638 -17.580   0.143  0.00  0.00     0.293 C 
ATOM      7  O   UNL d   1      26.820 -18.755   0.487  0.00  0.00    -0.264 OA
ATOM      8  H   UNL d   1      25.149 -16.181  -0.493  0.00  0.00     0.190 HD
BRANCH   6   9
ATOM      9  C   UNL d   1      27.711 -16.586   0.044  0.00  0.00     0.147 A 
ATOM     10  C   UNL d   1      29.076 -16.768  -0.145  0.00  0.00     0.048 A 
ATOM     11  C   UNL d   1      29.683 -15.492  -0.199  0.00  0.00     0.066 A 
ATOM     12  C   UNL d   1      28.664 -14.586  -0.044  0.00  0.00     0.215 A 
ATOM     13  O   UNL d   1      27.451 -15.217   0.081  0.00  0.00    -0.283 OA
BRANCH  12  14
ATOM     14  N   UNL d   1      28.732 -13.150   0.005  0.00  0.00    -0.090 N 
ATOM     15  O   UNL d   1      29.820 -12.612   0.235  0.00  0.00    -0.530 OA
ATOM     16  O   UNL d   1      27.663 -12.553  -0.207  0.00  0.00    -0.530 OA
ENDBRANCH  12  14
ENDBRANCH   6   9
ENDBRANCH   3   5
BRANCH   1  17
ATOM     17  C   UNL d   1      21.769 -18.477  -0.140  0.00  0.00     0.033 A 
ATOM     18  C   UNL d   1      21.021 -18.871  -1.269  0.00  0.00     0.017 A 
ATOM     19  C   UNL d   1      19.857 -19.652  -1.138  0.00  0.00     0.008 A 
ATOM     20  C   UNL d   1      19.470 -20.136   0.115  0.00  0.00    -0.059 A 
ATOM     21  C   UNL d   1      20.220 -19.765   1.235  0.00  0.00     0.008 A 
ATOM     22  C   UNL d   1      21.355 -18.950   1.111  0.00  0.00     0.017 A 
BRANCH  20  23
ATOM     23  C   UNL d   1      18.281 -21.055   0.272  0.00  0.00     0.034 C 
ATOM     24  C   UNL d   1      17.910 -21.275   1.728  0.00  0.00     0.010 C 
ENDBRANCH  20  23
ENDBRANCH   1  17
TORSDOF 5
ENDMDL
