MODEL 1
REMARK VINA RESULT:    -8.109      0.000      0.000
REMARK INTER + INTRA:         -15.892
REMARK INTER:                 -11.390
REMARK INTRA:                  -4.501
REMARK CONF_INDEPENDENT:        3.281
REMARK UNBOUND:                -4.501
REMARK  11 active torsions:
REMARK  status: ('A' for Active; 'I' for Inactive)
REMARK    1  A    between atoms: N_2  and  C_4 
REMARK    2  A    between atoms: C_8  and  C_7 
REMARK    3  A    between atoms: C_8  and  N_20 
REMARK    4  A    between atoms: C_8  and  C_9 
REMARK       I    between atoms: C_9  and  N_11 
REMARK    5  A    between atoms: N_11  and  C_12 
REMARK    6  A    between atoms: C_12  and  C_15 
REMARK    7  A    between atoms: C_15  and  C_16 
REMARK       I    between atoms: N_20  and  C_21 
REMARK    8  A    between atoms: N_20  and  C_31 
REMARK    9  A    between atoms: C_21  and  C_23 
REMARK   10  A    between atoms: C_24  and  O_25 
REMARK   11  A    between atoms: C_29  and  O_30 
ROOT
ATOM      1  C   UNL d   1      28.825 -16.721  -1.615  0.00  0.00     0.213 C 
ENDROOT
BRANCH   1   2
ATOM      2  N   UNL d   1      29.031 -16.493  -3.225  0.00  0.00    -0.322 N 
ATOM      3  C   UNL d   1      28.246 -15.551  -4.085  0.00  0.00     0.261 C 
ATOM      4  O   UNL d   1      28.299 -15.576  -5.324  0.00  0.00    -0.267 OA
BRANCH   3   5
ATOM      5  C   UNL d   1      27.212 -14.527  -3.759  0.00  0.00     0.098 C 
ATOM      6  C   UNL d   1      27.642 -13.282  -3.195  0.00  0.00     0.084 C 
ATOM      7  C   UNL d   1      26.780 -12.175  -3.145  0.00  0.00     0.038 C 
ATOM      8  C   UNL d   1      25.529 -12.257  -3.765  0.00  0.00     0.005 C 
ATOM      9  C   UNL d   1      25.066 -13.480  -4.277  0.00  0.00     0.038 C 
ATOM     10  C   UNL d   1      25.875 -14.640  -4.224  0.00  0.00     0.084 C 
BRANCH   6  11
ATOM     11  O   UNL d   1      28.950 -12.988  -2.863  0.00  0.00    -0.360 OA
ATOM     12  H   UNL d   1      29.388 -13.804  -2.557  0.00  0.00     0.217 HD
ENDBRANCH   6  11
BRANCH  10  13
ATOM     13  O   UNL d   1      25.530 -15.709  -5.039  0.00  0.00    -0.360 OA
ATOM     14  H   UNL d   1      26.204 -15.750  -5.743  0.00  0.00     0.217 HD
ENDBRANCH  10  13
ENDBRANCH   3   5
BRANCH   2  15
ATOM     15  C   UNL d   1      30.370 -17.013  -3.896  0.00  0.00     0.026 C 
ATOM     16  C   UNL d   1      31.165 -17.912  -2.934  0.00  0.00     0.037 C 
ATOM     17  C   UNL d   1      30.239 -17.851  -5.175  0.00  0.00     0.037 C 
ATOM     18  C   UNL d   1      31.271 -15.900  -4.448  0.00  0.00     0.037 C 
ENDBRANCH   2  15
ENDBRANCH   1   2
BRANCH   1  19
ATOM     19  C   UNL d   1      29.358 -15.636  -0.727  0.00  0.00     0.245 C 
ATOM     20  O   UNL d   1      29.924 -14.762  -1.278  0.00  0.00    -0.271 OA
ATOM     21  N   UNL d   1      29.267 -15.418   0.609  0.00  0.00    -0.351 N 
ATOM     22  H   UNL d   1      28.890 -16.083   1.268  0.00  0.00     0.163 HD
BRANCH  21  23
ATOM     23  C   UNL d   1      29.900 -14.195   1.104  0.00  0.00     0.026 C 
ATOM     24  C   UNL d   1      31.378 -14.564   0.954  0.00  0.00     0.038 C 
ATOM     25  C   UNL d   1      29.406 -12.889   0.390  0.00  0.00     0.038 C 
BRANCH  23  26
ATOM     26  C   UNL d   1      29.504 -13.995   2.563  0.00  0.00     0.038 C 
BRANCH  26  27
ATOM     27  C   UNL d   1      28.020 -13.603   2.811  0.00  0.00    -0.049 C 
ATOM     28  C   UNL d   1      27.834 -12.096   3.030  0.00  0.00     0.014 C 
ATOM     29  C   UNL d   1      27.030 -14.074   1.730  0.00  0.00     0.014 C 
ATOM     30  C   UNL d   1      27.608 -14.296   4.101  0.00  0.00     0.014 C 
ENDBRANCH  26  27
ENDBRANCH  23  26
ENDBRANCH  21  23
ENDBRANCH   1  19
BRANCH   1  31
ATOM     31  C   UNL d   1      27.426 -16.897  -1.090  0.00  0.00    -0.026 C 
ATOM     32  C   UNL d   1      26.962 -17.868  -0.230  0.00  0.00     0.012 C 
ATOM     33  C   UNL d   1      25.641 -18.195  -0.110  0.00  0.00     0.030 C 
ATOM     34  C   UNL d   1      24.701 -17.302  -0.571  0.00  0.00     0.029 C 
ATOM     35  C   UNL d   1      25.146 -16.163  -1.198  0.00  0.00     0.030 C 
ATOM     36  C   UNL d   1      26.494 -15.949  -1.196  0.00  0.00     0.012 C 
BRANCH  34  37
ATOM     37  N   UNL d   1      23.393 -17.434  -0.177  0.00  0.00    -0.390 N 
ATOM     38  C   UNL d   1      22.901 -18.766   0.053  0.00  0.00     0.149 C 
ATOM     39  C   UNL d   1      22.521 -16.324  -0.520  0.00  0.00     0.149 C 
ENDBRANCH  34  37
ENDBRANCH   1  31
TORSDOF 11
ENDMDL
MODEL 2
REMARK VINA RESULT:    -8.027      1.055      1.511
REMARK INTER + INTRA:         -15.384
REMARK INTER:                 -11.308
REMARK INTRA:                  -4.076
REMARK CONF_INDEPENDENT:        3.281
REMARK UNBOUND:                -4.076
REMARK  11 active torsions:
REMARK  status: ('A' for Active; 'I' for Inactive)
REMARK    1  A    between atoms: N_2  and  C_4 
REMARK    2  A    between atoms: C_8  and  C_7 
REMARK    3  A    between atoms: C_8  and  N_20 
REMARK    4  A    between atoms: C_8  and  C_9 
REMARK       I    between atoms: C_9  and  N_11 
REMARK    5  A    between atoms: N_11  and  C_12 
REMARK    6  A    between atoms: C_12  and  C_15 
REMARK    7  A    between atoms: C_15  and  C_16 
REMARK       I    between atoms: N_20  and  C_21 
REMARK    8  A    between atoms: N_20  and  C_31 
REMARK    9  A    between atoms: C_21  and  C_23 
REMARK   10  A    between atoms: C_24  and  O_25 
REMARK   11  A    between atoms: C_29  and  O_30 
ROOT
ATOM      1  C   UNL d   1      28.232 -16.781  -0.957  0.00  0.00     0.213 C 
ENDROOT
BRANCH   1   2
ATOM      2  N   UNL d   1      28.710 -16.517  -2.502  0.00  0.00    -0.322 N 
ATOM      3  C   UNL d   1      28.045 -15.599  -3.481  0.00  0.00     0.261 C 
ATOM      4  O   UNL d   1      28.320 -15.599  -4.690  0.00  0.00    -0.267 OA
BRANCH   3   5
ATOM      5  C   UNL d   1      26.921 -14.630  -3.336  0.00  0.00     0.098 C 
ATOM      6  C   UNL d   1      27.185 -13.369  -2.708  0.00  0.00     0.084 C 
ATOM      7  C   UNL d   1      26.272 -12.308  -2.807  0.00  0.00     0.038 C 
ATOM      8  C   UNL d   1      25.151 -12.446  -3.631  0.00  0.00     0.005 C 
ATOM      9  C   UNL d   1      24.844 -13.687  -4.214  0.00  0.00     0.038 C 
ATOM     10  C   UNL d   1      25.690 -14.805  -4.023  0.00  0.00     0.084 C 
BRANCH   6  11
ATOM     11  O   UNL d   1      28.401 -13.014  -2.158  0.00  0.00    -0.360 OA
ATOM     12  H   UNL d   1      28.484 -13.431  -1.280  0.00  0.00     0.217 HD
ENDBRANCH   6  11
BRANCH  10  13
ATOM     13  O   UNL d   1      25.543 -15.884  -4.884  0.00  0.00    -0.360 OA
ATOM     14  H   UNL d   1      26.344 -15.904  -5.442  0.00  0.00     0.217 HD
ENDBRANCH  10  13
ENDBRANCH   3   5
BRANCH   2  15
ATOM     15  C   UNL d   1      30.172 -16.961  -2.927  0.00  0.00     0.026 C 
ATOM     16  C   UNL d   1      30.147 -17.820  -4.202  0.00  0.00     0.037 C 
ATOM     17  C   UNL d   1      31.183 -15.850  -3.240  0.00  0.00     0.037 C 
ATOM     18  C   UNL d   1      30.958 -17.677  -1.821  0.00  0.00     0.037 C 
ENDBRANCH   2  15
ENDBRANCH   1   2
BRANCH   1  19
ATOM     19  C   UNL d   1      28.490 -15.664   0.009  0.00  0.00     0.245 C 
ATOM     20  O   UNL d   1      29.048 -14.727  -0.437  0.00  0.00    -0.271 OA
ATOM     21  N   UNL d   1      28.153 -15.480   1.310  0.00  0.00    -0.351 N 
ATOM     22  H   UNL d   1      27.740 -16.192   1.895  0.00  0.00     0.163 HD
BRANCH  21  23
ATOM     23  C   UNL d   1      28.562 -14.207   1.907  0.00  0.00     0.026 C 
ATOM     24  C   UNL d   1      30.080 -14.399   1.959  0.00  0.00     0.038 C 
ATOM     25  C   UNL d   1      28.019 -12.946   1.149  0.00  0.00     0.038 C 
BRANCH  23  26
ATOM     26  C   UNL d   1      27.949 -14.100   3.298  0.00  0.00     0.038 C 
BRANCH  26  27
ATOM     27  C   UNL d   1      28.791 -13.322   4.348  0.00  0.00    -0.049 C 
ATOM     28  C   UNL d   1      29.914 -14.173   4.955  0.00  0.00     0.014 C 
ATOM     29  C   UNL d   1      29.388 -11.992   3.850  0.00  0.00     0.014 C 
ATOM     30  C   UNL d   1      27.838 -12.967   5.479  0.00  0.00     0.014 C 
ENDBRANCH  26  27
ENDBRANCH  23  26
ENDBRANCH  21  23
ENDBRANCH   1  19
BRANCH   1  31
ATOM     31  C   UNL d   1      26.781 -17.089  -0.699  0.00  0.00    -0.026 C 
ATOM     32  C   UNL d   1      26.254 -18.150   0.003  0.00  0.00     0.012 C 
ATOM     33  C   UNL d   1      24.962 -18.573  -0.132  0.00  0.00     0.030 C 
ATOM     34  C   UNL d   1      24.049 -17.711  -0.695  0.00  0.00     0.029 C 
ATOM     35  C   UNL d   1      24.503 -16.502  -1.162  0.00  0.00     0.030 C 
ATOM     36  C   UNL d   1      25.810 -16.199  -0.909  0.00  0.00     0.012 C 
BRANCH  34  37
ATOM     37  N   UNL d   1      22.707 -17.959  -0.548  0.00  0.00    -0.390 N 
ATOM     38  C   UNL d   1      22.279 -19.333  -0.571  0.00  0.00     0.149 C 
ATOM     39  C   UNL d   1      21.825 -16.857  -0.893  0.00  0.00     0.149 C 
ENDBRANCH  34  37
ENDBRANCH   1  31
TORSDOF 11
ENDMDL
MODEL 3
REMARK VINA RESULT:    -7.857      0.573      1.268
REMARK INTER + INTRA:         -15.821
REMARK INTER:                 -11.138
REMARK INTRA:                  -4.683
REMARK CONF_INDEPENDENT:        3.281
REMARK UNBOUND:                -4.683
REMARK  11 active torsions:
REMARK  status: ('A' for Active; 'I' for Inactive)
REMARK    1  A    between atoms: N_2  and  C_4 
REMARK    2  A    between atoms: C_8  and  C_7 
REMARK    3  A    between atoms: C_8  and  N_20 
REMARK    4  A    between atoms: C_8  and  C_9 
REMARK       I    between atoms: C_9  and  N_11 
REMARK    5  A    between atoms: N_11  and  C_12 
REMARK    6  A    between atoms: C_12  and  C_15 
REMARK    7  A    between atoms: C_15  and  C_16 
REMARK       I    between atoms: N_20  and  C_21 
REMARK    8  A    between atoms: N_20  and  C_31 
REMARK    9  A    between atoms: C_21  and  C_23 
REMARK   10  A    between atoms: C_24  and  O_25 
REMARK   11  A    between atoms: C_29  and  O_30 
ROOT
ATOM      1  C   UNL d   1      28.790 -16.771  -1.687  0.00  0.00     0.213 C 
ENDROOT
BRANCH   1   2
ATOM      2  N   UNL d   1      29.022 -16.529  -3.291  0.00  0.00    -0.322 N 
ATOM      3  C   UNL d   1      28.265 -15.564  -4.151  0.00  0.00     0.261 C 
ATOM      4  O   UNL d   1      28.335 -15.575  -5.389  0.00  0.00    -0.267 OA
BRANCH   3   5
ATOM      5  C   UNL d   1      27.245 -14.525  -3.827  0.00  0.00     0.098 C 
ATOM      6  C   UNL d   1      27.694 -13.271  -3.298  0.00  0.00     0.084 C 
ATOM      7  C   UNL d   1      26.841 -12.158  -3.255  0.00  0.00     0.038 C 
ATOM      8  C   UNL d   1      25.578 -12.243  -3.849  0.00  0.00     0.005 C 
ATOM      9  C   UNL d   1      25.097 -13.474  -4.326  0.00  0.00     0.038 C 
ATOM     10  C   UNL d   1      25.899 -14.638  -4.264  0.00  0.00     0.084 C 
BRANCH   6  11
ATOM     11  O   UNL d   1      29.011 -12.981  -2.997  0.00  0.00    -0.360 OA
ATOM     12  H   UNL d   1      29.413 -13.754  -2.560  0.00  0.00     0.217 HD
ENDBRANCH   6  11
BRANCH  10  13
ATOM     13  O   UNL d   1      25.530 -15.721  -5.049  0.00  0.00    -0.360 OA
ATOM     14  H   UNL d   1      26.300 -15.931  -5.611  0.00  0.00     0.217 HD
ENDBRANCH  10  13
ENDBRANCH   3   5
BRANCH   2  15
ATOM     15  C   UNL d   1      30.361 -17.064  -3.950  0.00  0.00     0.026 C 
ATOM     16  C   UNL d   1      31.180 -17.901  -2.953  0.00  0.00     0.037 C 
ATOM     17  C   UNL d   1      30.228 -17.970  -5.182  0.00  0.00     0.037 C 
ATOM     18  C   UNL d   1      31.239 -15.970  -4.570  0.00  0.00     0.037 C 
ENDBRANCH   2  15
ENDBRANCH   1   2
BRANCH   1  19
ATOM     19  C   UNL d   1      29.309 -15.695  -0.780  0.00  0.00     0.245 C 
ATOM     20  O   UNL d   1      29.804 -14.772  -1.321  0.00  0.00    -0.271 OA
ATOM     21  N   UNL d   1      29.270 -15.533   0.565  0.00  0.00    -0.351 N 
ATOM     22  H   UNL d   1      28.957 -16.240   1.213  0.00  0.00     0.163 HD
BRANCH  21  23
ATOM     23  C   UNL d   1      29.863 -14.297   1.081  0.00  0.00     0.026 C 
ATOM     24  C   UNL d   1      29.569 -14.450   2.577  0.00  0.00     0.038 C 
ATOM     25  C   UNL d   1      31.358 -14.085   0.658  0.00  0.00     0.038 C 
BRANCH  23  26
ATOM     26  C   UNL d   1      29.129 -13.110   0.470  0.00  0.00     0.038 C 
BRANCH  26  27
ATOM     27  C   UNL d   1      27.679 -12.878   0.980  0.00  0.00    -0.049 C 
ATOM     28  C   UNL d   1      26.838 -14.161   0.980  0.00  0.00     0.014 C 
ATOM     29  C   UNL d   1      27.572 -12.213   2.365  0.00  0.00     0.014 C 
ATOM     30  C   UNL d   1      27.030 -11.918  -0.007  0.00  0.00     0.014 C 
ENDBRANCH  26  27
ENDBRANCH  23  26
ENDBRANCH  21  23
ENDBRANCH   1  19
BRANCH   1  31
ATOM     31  C   UNL d   1      27.383 -16.951  -1.186  0.00  0.00    -0.026 C 
ATOM     32  C   UNL d   1      26.949 -17.755  -0.155  0.00  0.00     0.012 C 
ATOM     33  C   UNL d   1      25.652 -18.162  -0.014  0.00  0.00     0.030 C 
ATOM     34  C   UNL d   1      24.673 -17.469  -0.689  0.00  0.00     0.029 C 
ATOM     35  C   UNL d   1      25.063 -16.455  -1.529  0.00  0.00     0.030 C 
ATOM     36  C   UNL d   1      26.389 -16.130  -1.526  0.00  0.00     0.012 C 
BRANCH  34  37
ATOM     37  N   UNL d   1      23.360 -17.626  -0.322  0.00  0.00    -0.390 N 
ATOM     38  C   UNL d   1      22.841 -18.967  -0.272  0.00  0.00     0.149 C 
ATOM     39  C   UNL d   1      22.512 -16.463  -0.520  0.00  0.00     0.149 C 
ENDBRANCH  34  37
ENDBRANCH   1  31
TORSDOF 11
ENDMDL
MODEL 4
REMARK VINA RESULT:    -7.390      0.485      1.630
REMARK INTER + INTRA:         -14.710
REMARK INTER:                 -10.671
REMARK INTRA:                  -4.039
REMARK CONF_INDEPENDENT:        3.281
REMARK UNBOUND:                -4.039
REMARK  11 active torsions:
REMARK  status: ('A' for Active; 'I' for Inactive)
REMARK    1  A    between atoms: N_2  and  C_4 
REMARK    2  A    between atoms: C_8  and  C_7 
REMARK    3  A    between atoms: C_8  and  N_20 
REMARK    4  A    between atoms: C_8  and  C_9 
REMARK       I    between atoms: C_9  and  N_11 
REMARK    5  A    between atoms: N_11  and  C_12 
REMARK    6  A    between atoms: C_12  and  C_15 
REMARK    7  A    between atoms: C_15  and  C_16 
REMARK       I    between atoms: N_20  and  C_21 
REMARK    8  A    between atoms: N_20  and  C_31 
REMARK    9  A    between atoms: C_21  and  C_23 
REMARK   10  A    between atoms: C_24  and  O_25 
REMARK   11  A    between atoms: C_29  and  O_30 
ROOT
ATOM      1  C   UNL d   1      28.830 -16.608  -1.709  0.00  0.00     0.213 C 
ENDROOT
BRANCH   1   2
ATOM      2  N   UNL d   1      29.106 -16.485  -3.320  0.00  0.00    -0.322 N 
ATOM      3  C   UNL d   1      28.421 -15.539  -4.257  0.00  0.00     0.261 C 
ATOM      4  O   UNL d   1      28.514 -15.635  -5.490  0.00  0.00    -0.267 OA
BRANCH   3   5
ATOM      5  C   UNL d   1      27.454 -14.428  -4.024  0.00  0.00     0.098 C 
ATOM      6  C   UNL d   1      26.052 -14.718  -4.100  0.00  0.00     0.084 C 
ATOM      7  C   UNL d   1      25.099 -13.816  -3.605  0.00  0.00     0.038 C 
ATOM      8  C   UNL d   1      25.531 -12.676  -2.919  0.00  0.00     0.005 C 
ATOM      9  C   UNL d   1      26.896 -12.344  -2.877  0.00  0.00     0.038 C 
ATOM     10  C   UNL d   1      27.863 -13.182  -3.480  0.00  0.00     0.084 C 
BRANCH   6  11
ATOM     11  O   UNL d   1      25.531 -15.949  -4.448  0.00  0.00    -0.360 OA
ATOM     12  H   UNL d   1      25.493 -16.012  -5.421  0.00  0.00     0.217 HD
ENDBRANCH   6  11
BRANCH  10  13
ATOM     13  O   UNL d   1      29.191 -13.006  -3.116  0.00  0.00    -0.360 OA
ATOM     14  H   UNL d   1      29.248 -13.221  -2.166  0.00  0.00     0.217 HD
ENDBRANCH  10  13
ENDBRANCH   3   5
BRANCH   2  15
ATOM     15  C   UNL d   1      30.426 -17.134  -3.912  0.00  0.00     0.026 C 
ATOM     16  C   UNL d   1      30.110 -18.062  -5.097  0.00  0.00     0.037 C 
ATOM     17  C   UNL d   1      31.498 -16.180  -4.455  0.00  0.00     0.037 C 
ATOM     18  C   UNL d   1      31.285 -17.871  -2.876  0.00  0.00     0.037 C 
ENDBRANCH   2  15
ENDBRANCH   1   2
BRANCH   1  19
ATOM     19  C   UNL d   1      29.249 -15.431  -0.881  0.00  0.00     0.245 C 
ATOM     20  O   UNL d   1      29.856 -14.598  -1.453  0.00  0.00    -0.271 OA
ATOM     21  N   UNL d   1      29.016 -15.089   0.411  0.00  0.00    -0.351 N 
ATOM     22  H   UNL d   1      28.583 -15.698   1.089  0.00  0.00     0.163 HD
BRANCH  21  23
ATOM     23  C   UNL d   1      29.574 -13.808   0.848  0.00  0.00     0.026 C 
ATOM     24  C   UNL d   1      31.069 -14.140   0.849  0.00  0.00     0.038 C 
ATOM     25  C   UNL d   1      29.107 -12.584  -0.015  0.00  0.00     0.038 C 
BRANCH  23  26
ATOM     26  C   UNL d   1      29.054 -13.499   2.247  0.00  0.00     0.038 C 
BRANCH  26  27
ATOM     27  C   UNL d   1      27.544 -13.139   2.341  0.00  0.00    -0.049 C 
ATOM     28  C   UNL d   1      27.297 -11.625   2.374  0.00  0.00     0.014 C 
ATOM     29  C   UNL d   1      26.654 -13.765   1.251  0.00  0.00     0.014 C 
ATOM     30  C   UNL d   1      27.055 -13.701   3.668  0.00  0.00     0.014 C 
ENDBRANCH  26  27
ENDBRANCH  23  26
ENDBRANCH  21  23
ENDBRANCH   1  19
BRANCH   1  31
ATOM     31  C   UNL d   1      27.419 -16.835  -1.240  0.00  0.00    -0.026 C 
ATOM     32  C   UNL d   1      26.958 -17.816  -0.390  0.00  0.00     0.012 C 
ATOM     33  C   UNL d   1      25.647 -18.195  -0.320  0.00  0.00     0.030 C 
ATOM     34  C   UNL d   1      24.693 -17.343  -0.828  0.00  0.00     0.029 C 
ATOM     35  C   UNL d   1      25.118 -16.193  -1.448  0.00  0.00     0.030 C 
ATOM     36  C   UNL d   1      26.456 -15.926  -1.393  0.00  0.00     0.012 C 
BRANCH  34  37
ATOM     37  N   UNL d   1      23.376 -17.523  -0.486  0.00  0.00    -0.390 N 
ATOM     38  C   UNL d   1      22.830 -18.847  -0.624  0.00  0.00     0.149 C 
ATOM     39  C   UNL d   1      22.552 -16.327  -0.520  0.00  0.00     0.149 C 
ENDBRANCH  34  37
ENDBRANCH   1  31
TORSDOF 11
ENDMDL
MODEL 5
REMARK VINA RESULT:    -7.224      0.858      2.299
REMARK INTER + INTRA:         -14.438
REMARK INTER:                 -10.505
REMARK INTRA:                  -3.933
REMARK CONF_INDEPENDENT:        3.281
REMARK UNBOUND:                -3.933
REMARK  11 active torsions:
REMARK  status: ('A' for Active; 'I' for Inactive)
REMARK    1  A    between atoms: N_2  and  C_4 
REMARK    2  A    between atoms: C_8  and  C_7 
REMARK    3  A    between atoms: C_8  and  N_20 
REMARK    4  A    between atoms: C_8  and  C_9 
REMARK       I    between atoms: C_9  and  N_11 
REMARK    5  A    between atoms: N_11  and  C_12 
REMARK    6  A    between atoms: C_12  and  C_15 
REMARK    7  A    between atoms: C_15  and  C_16 
REMARK       I    between atoms: N_20  and  C_21 
REMARK    8  A    between atoms: N_20  and  C_31 
REMARK    9  A    between atoms: C_21  and  C_23 
REMARK   10  A    between atoms: C_24  and  O_25 
REMARK   11  A    between atoms: C_29  and  O_30 
ROOT
ATOM      1  C   UNL d   1      28.503 -16.731  -1.453  0.00  0.00     0.213 C 
ENDROOT
BRANCH   1   2
ATOM      2  N   UNL d   1      28.899 -16.512  -3.029  0.00  0.00    -0.322 N 
ATOM      3  C   UNL d   1      28.241 -15.554  -3.973  0.00  0.00     0.261 C 
ATOM      4  O   UNL d   1      28.436 -15.582  -5.197  0.00  0.00    -0.267 OA
BRANCH   3   5
ATOM      5  C   UNL d   1      27.201 -14.505  -3.768  0.00  0.00     0.098 C 
ATOM      6  C   UNL d   1      27.615 -13.222  -3.280  0.00  0.00     0.084 C 
ATOM      7  C   UNL d   1      26.759 -12.112  -3.348  0.00  0.00     0.038 C 
ATOM      8  C   UNL d   1      25.535 -12.235  -4.013  0.00  0.00     0.005 C 
ATOM      9  C   UNL d   1      25.086 -13.491  -4.453  0.00  0.00     0.038 C 
ATOM     10  C   UNL d   1      25.884 -14.646  -4.280  0.00  0.00     0.084 C 
BRANCH   6  11
ATOM     11  O   UNL d   1      28.910 -12.910  -2.915  0.00  0.00    -0.360 OA
ATOM     12  H   UNL d   1      29.142 -13.414  -2.113  0.00  0.00     0.217 HD
ENDBRANCH   6  11
BRANCH  10  13
ATOM     13  O   UNL d   1      25.566 -15.772  -5.027  0.00  0.00    -0.360 OA
ATOM     14  H   UNL d   1      26.335 -15.949  -5.602  0.00  0.00     0.217 HD
ENDBRANCH  10  13
ENDBRANCH   3   5
BRANCH   2  15
ATOM     15  C   UNL d   1      30.294 -17.065  -3.541  0.00  0.00     0.026 C 
ATOM     16  C   UNL d   1      30.120 -17.958  -4.781  0.00  0.00     0.037 C 
ATOM     17  C   UNL d   1      31.348 -16.033  -3.964  0.00  0.00     0.037 C 
ATOM     18  C   UNL d   1      31.112 -17.797  -2.470  0.00  0.00     0.037 C 
ENDBRANCH   2  15
ENDBRANCH   1   2
BRANCH   1  19
ATOM     19  C   UNL d   1      28.867 -15.611  -0.525  0.00  0.00     0.245 C 
ATOM     20  O   UNL d   1      28.741 -14.525  -0.966  0.00  0.00    -0.271 OA
ATOM     21  N   UNL d   1      29.263 -15.587   0.772  0.00  0.00    -0.351 N 
ATOM     22  H   UNL d   1      29.502 -16.409   1.307  0.00  0.00     0.163 HD
BRANCH  21  23
ATOM     23  C   UNL d   1      29.487 -14.261   1.352  0.00  0.00     0.026 C 
ATOM     24  C   UNL d   1      28.070 -13.685   1.287  0.00  0.00     0.038 C 
ATOM     25  C   UNL d   1      30.191 -14.291   2.752  0.00  0.00     0.038 C 
BRANCH  23  26
ATOM     26  C   UNL d   1      30.459 -13.496   0.461  0.00  0.00     0.038 C 
BRANCH  26  27
ATOM     27  C   UNL d   1      31.901 -14.072   0.385  0.00  0.00    -0.049 C 
ATOM     28  C   UNL d   1      32.882 -13.336   1.306  0.00  0.00     0.014 C 
ATOM     29  C   UNL d   1      32.014 -15.586   0.645  0.00  0.00     0.014 C 
ATOM     30  C   UNL d   1      32.374 -13.846  -1.044  0.00  0.00     0.014 C 
ENDBRANCH  26  27
ENDBRANCH  23  26
ENDBRANCH  21  23
ENDBRANCH   1  19
BRANCH   1  31
ATOM     31  C   UNL d   1      27.059 -16.971  -1.105  0.00  0.00    -0.026 C 
ATOM     32  C   UNL d   1      26.545 -17.891  -0.218  0.00  0.00     0.012 C 
ATOM     33  C   UNL d   1      25.246 -18.314  -0.241  0.00  0.00     0.030 C 
ATOM     34  C   UNL d   1      24.323 -17.547  -0.914  0.00  0.00     0.029 C 
ATOM     35  C   UNL d   1      24.773 -16.440  -1.592  0.00  0.00     0.030 C 
ATOM     36  C   UNL d   1      26.089 -16.117  -1.432  0.00  0.00     0.012 C 
BRANCH  34  37
ATOM     37  N   UNL d   1      22.984 -17.748  -0.687  0.00  0.00    -0.390 N 
ATOM     38  C   UNL d   1      22.157 -16.583  -0.523  0.00  0.00     0.149 C 
ATOM     39  C   UNL d   1      22.631 -19.045  -0.136  0.00  0.00     0.149 C 
ENDBRANCH  34  37
ENDBRANCH   1  31
TORSDOF 11
ENDMDL
MODEL 6
REMARK VINA RESULT:    -7.158      1.172      2.063
REMARK INTER + INTRA:         -14.309
REMARK INTER:                 -10.439
REMARK INTRA:                  -3.870
REMARK CONF_INDEPENDENT:        3.281
REMARK UNBOUND:                -3.870
REMARK  11 active torsions:
REMARK  status: ('A' for Active; 'I' for Inactive)
REMARK    1  A    between atoms: N_2  and  C_4 
REMARK    2  A    between atoms: C_8  and  C_7 
REMARK    3  A    between atoms: C_8  and  N_20 
REMARK    4  A    between atoms: C_8  and  C_9 
REMARK       I    between atoms: C_9  and  N_11 
REMARK    5  A    between atoms: N_11  and  C_12 
REMARK    6  A    between atoms: C_12  and  C_15 
REMARK    7  A    between atoms: C_15  and  C_16 
REMARK       I    between atoms: N_20  and  C_21 
REMARK    8  A    between atoms: N_20  and  C_31 
REMARK    9  A    between atoms: C_21  and  C_23 
REMARK   10  A    between atoms: C_24  and  O_25 
REMARK   11  A    between atoms: C_29  and  O_30 
ROOT
ATOM      1  C   UNL d   1      28.591 -16.347  -0.678  0.00  0.00     0.213 C 
ENDROOT
BRANCH   1   2
ATOM      2  N   UNL d   1      29.313 -15.966  -2.100  0.00  0.00    -0.322 N 
ATOM      3  C   UNL d   1      28.728 -15.106  -3.177  0.00  0.00     0.261 C 
ATOM      4  O   UNL d   1      29.224 -15.027  -4.311  0.00  0.00    -0.267 OA
BRANCH   3   5
ATOM      5  C   UNL d   1      27.477 -14.298  -3.241  0.00  0.00     0.098 C 
ATOM      6  C   UNL d   1      27.420 -13.071  -2.502  0.00  0.00     0.084 C 
ATOM      7  C   UNL d   1      26.415 -12.124  -2.748  0.00  0.00     0.038 C 
ATOM      8  C   UNL d   1      25.531 -12.329  -3.813  0.00  0.00     0.005 C 
ATOM      9  C   UNL d   1      25.534 -13.544  -4.517  0.00  0.00     0.038 C 
ATOM     10  C   UNL d   1      26.463 -14.563  -4.199  0.00  0.00     0.084 C 
BRANCH   6  11
ATOM     11  O   UNL d   1      28.425 -12.618  -1.669  0.00  0.00    -0.360 OA
ATOM     12  H   UNL d   1      29.017 -13.363  -1.454  0.00  0.00     0.217 HD
ENDBRANCH   6  11
BRANCH  10  13
ATOM     13  O   UNL d   1      26.658 -15.575  -5.129  0.00  0.00    -0.360 OA
ATOM     14  H   UNL d   1      27.522 -15.403  -5.548  0.00  0.00     0.217 HD
ENDBRANCH  10  13
ENDBRANCH   3   5
BRANCH   2  15
ATOM     15  C   UNL d   1      30.874 -16.201  -2.240  0.00  0.00     0.026 C 
ATOM     16  C   UNL d   1      31.187 -17.251  -3.319  0.00  0.00     0.037 C 
ATOM     17  C   UNL d   1      31.737 -14.993  -2.628  0.00  0.00     0.037 C 
ATOM     18  C   UNL d   1      31.577 -16.567  -0.926  0.00  0.00     0.037 C 
ENDBRANCH   2  15
ENDBRANCH   1   2
BRANCH   1  19
ATOM     19  C   UNL d   1      28.605 -15.276   0.372  0.00  0.00     0.245 C 
ATOM     20  O   UNL d   1      29.017 -14.229   0.022  0.00  0.00    -0.271 OA
ATOM     21  N   UNL d   1      28.174 -15.248   1.657  0.00  0.00    -0.351 N 
ATOM     22  H   UNL d   1      27.859 -16.059   2.168  0.00  0.00     0.163 HD
BRANCH  21  23
ATOM     23  C   UNL d   1      28.329 -13.971   2.358  0.00  0.00     0.026 C 
ATOM     24  C   UNL d   1      27.773 -14.341   3.736  0.00  0.00     0.038 C 
ATOM     25  C   UNL d   1      29.783 -13.387   2.301  0.00  0.00     0.038 C 
BRANCH  23  26
ATOM     26  C   UNL d   1      27.476 -12.921   1.658  0.00  0.00     0.038 C 
BRANCH  26  27
ATOM     27  C   UNL d   1      27.582 -11.477   2.225  0.00  0.00    -0.049 C 
ATOM     28  C   UNL d   1      26.268 -10.695   2.104  0.00  0.00     0.014 C 
ATOM     29  C   UNL d   1      28.087 -11.382   3.677  0.00  0.00     0.014 C 
ATOM     30  C   UNL d   1      28.612 -10.758   1.366  0.00  0.00     0.014 C 
ENDBRANCH  26  27
ENDBRANCH  23  26
ENDBRANCH  21  23
ENDBRANCH   1  19
BRANCH   1  31
ATOM     31  C   UNL d   1      27.140 -16.748  -0.697  0.00  0.00    -0.026 C 
ATOM     32  C   UNL d   1      26.109 -16.157  -1.394  0.00  0.00     0.012 C 
ATOM     33  C   UNL d   1      24.792 -16.320  -1.069  0.00  0.00     0.030 C 
ATOM     34  C   UNL d   1      24.444 -17.382  -0.267  0.00  0.00     0.029 C 
ATOM     35  C   UNL d   1      25.451 -18.175   0.228  0.00  0.00     0.030 C 
ATOM     36  C   UNL d   1      26.712 -17.920  -0.227  0.00  0.00     0.012 C 
BRANCH  34  37
ATOM     37  N   UNL d   1      23.130 -17.770  -0.192  0.00  0.00    -0.390 N 
ATOM     38  C   UNL d   1      22.845 -19.176  -0.305  0.00  0.00     0.149 C 
ATOM     39  C   UNL d   1      22.155 -16.744  -0.520  0.00  0.00     0.149 C 
ENDBRANCH  34  37
ENDBRANCH   1  31
TORSDOF 11
ENDMDL
MODEL 7
REMARK VINA RESULT:    -7.033      1.538      2.609
REMARK INTER + INTRA:         -14.115
REMARK INTER:                 -10.315
REMARK INTRA:                  -3.800
REMARK CONF_INDEPENDENT:        3.281
REMARK UNBOUND:                -3.800
REMARK  11 active torsions:
REMARK  status: ('A' for Active; 'I' for Inactive)
REMARK    1  A    between atoms: N_2  and  C_4 
REMARK    2  A    between atoms: C_8  and  C_7 
REMARK    3  A    between atoms: C_8  and  N_20 
REMARK    4  A    between atoms: C_8  and  C_9 
REMARK       I    between atoms: C_9  and  N_11 
REMARK    5  A    between atoms: N_11  and  C_12 
REMARK    6  A    between atoms: C_12  and  C_15 
REMARK    7  A    between atoms: C_15  and  C_16 
REMARK       I    between atoms: N_20  and  C_21 
REMARK    8  A    between atoms: N_20  and  C_31 
REMARK    9  A    between atoms: C_21  and  C_23 
REMARK   10  A    between atoms: C_24  and  O_25 
REMARK   11  A    between atoms: C_29  and  O_30 
ROOT
ATOM      1  C   UNL d   1      28.519 -16.211   0.019  0.00  0.00     0.213 C 
ENDROOT
BRANCH   1   2
ATOM      2  N   UNL d   1      29.385 -16.190  -1.372  0.00  0.00    -0.322 N 
ATOM      3  C   UNL d   1      29.069 -15.375  -2.589  0.00  0.00     0.261 C 
ATOM      4  O   UNL d   1      29.632 -15.557  -3.679  0.00  0.00    -0.267 OA
BRANCH   3   5
ATOM      5  C   UNL d   1      28.039 -14.329  -2.851  0.00  0.00     0.098 C 
ATOM      6  C   UNL d   1      26.710 -14.751  -3.181  0.00  0.00     0.084 C 
ATOM      7  C   UNL d   1      25.635 -13.850  -3.144  0.00  0.00     0.038 C 
ATOM      8  C   UNL d   1      25.847 -12.555  -2.659  0.00  0.00     0.005 C 
ATOM      9  C   UNL d   1      27.148 -12.104  -2.379  0.00  0.00     0.038 C 
ATOM     10  C   UNL d   1      28.261 -12.964  -2.530  0.00  0.00     0.084 C 
BRANCH   6  11
ATOM     11  O   UNL d   1      26.330 -16.069  -3.346  0.00  0.00    -0.360 OA
ATOM     12  H   UNL d   1      25.675 -16.297  -2.661  0.00  0.00     0.217 HD
ENDBRANCH   6  11
BRANCH  10  13
ATOM     13  O   UNL d   1      29.451 -12.597  -1.919  0.00  0.00    -0.360 OA
ATOM     14  H   UNL d   1      29.236 -12.406  -0.986  0.00  0.00     0.217 HD
ENDBRANCH  10  13
ENDBRANCH   3   5
BRANCH   2  15
ATOM     15  C   UNL d   1      30.858 -16.776  -1.354  0.00  0.00     0.026 C 
ATOM     16  C   UNL d   1      31.901 -15.674  -1.604  0.00  0.00     0.037 C 
ATOM     17  C   UNL d   1      31.330 -17.457  -0.063  0.00  0.00     0.037 C 
ATOM     18  C   UNL d   1      31.082 -17.946  -2.321  0.00  0.00     0.037 C 
ENDBRANCH   2  15
ENDBRANCH   1   2
BRANCH   1  19
ATOM     19  C   UNL d   1      28.375 -14.893   0.721  0.00  0.00     0.245 C 
ATOM     20  O   UNL d   1      28.236 -13.957   0.019  0.00  0.00    -0.271 OA
ATOM     21  N   UNL d   1      28.309 -14.556   2.033  0.00  0.00    -0.351 N 
ATOM     22  H   UNL d   1      28.481 -15.197   2.793  0.00  0.00     0.163 HD
BRANCH  21  23
ATOM     23  C   UNL d   1      28.119 -13.133   2.322  0.00  0.00     0.026 C 
ATOM     24  C   UNL d   1      29.487 -12.580   1.910  0.00  0.00     0.038 C 
ATOM     25  C   UNL d   1      26.853 -12.509   1.639  0.00  0.00     0.038 C 
BRANCH  23  26
ATOM     26  C   UNL d   1      27.859 -12.967   3.814  0.00  0.00     0.038 C 
BRANCH  26  27
ATOM     27  C   UNL d   1      28.617 -13.955   4.745  0.00  0.00    -0.049 C 
ATOM     28  C   UNL d   1      27.819 -15.235   5.027  0.00  0.00     0.014 C 
ATOM     29  C   UNL d   1      30.030 -14.344   4.273  0.00  0.00     0.014 C 
ATOM     30  C   UNL d   1      28.792 -13.236   6.075  0.00  0.00     0.014 C 
ENDBRANCH  26  27
ENDBRANCH  23  26
ENDBRANCH  21  23
ENDBRANCH   1  19
BRANCH   1  31
ATOM     31  C   UNL d   1      27.096 -16.697  -0.030  0.00  0.00    -0.026 C 
ATOM     32  C   UNL d   1      26.621 -17.953   0.275  0.00  0.00     0.012 C 
ATOM     33  C   UNL d   1      25.414 -18.426  -0.156  0.00  0.00     0.030 C 
ATOM     34  C   UNL d   1      24.476 -17.518  -0.594  0.00  0.00     0.029 C 
ATOM     35  C   UNL d   1      24.834 -16.193  -0.646  0.00  0.00     0.030 C 
ATOM     36  C   UNL d   1      26.057 -15.868  -0.132  0.00  0.00     0.012 C 
BRANCH  34  37
ATOM     37  N   UNL d   1      23.166 -17.908  -0.716  0.00  0.00    -0.390 N 
ATOM     38  C   UNL d   1      22.154 -16.903  -0.519  0.00  0.00     0.149 C 
ATOM     39  C   UNL d   1      22.913 -19.324  -0.518  0.00  0.00     0.149 C 
ENDBRANCH  34  37
ENDBRANCH   1  31
TORSDOF 11
ENDMDL
MODEL 8
REMARK VINA RESULT:    -6.456      1.671      5.738
REMARK INTER + INTRA:         -13.913
REMARK INTER:                  -9.737
REMARK INTRA:                  -4.175
REMARK CONF_INDEPENDENT:        3.281
REMARK UNBOUND:                -4.175
REMARK  11 active torsions:
REMARK  status: ('A' for Active; 'I' for Inactive)
REMARK    1  A    between atoms: N_2  and  C_4 
REMARK    2  A    between atoms: C_8  and  C_7 
REMARK    3  A    between atoms: C_8  and  N_20 
REMARK    4  A    between atoms: C_8  and  C_9 
REMARK       I    between atoms: C_9  and  N_11 
REMARK    5  A    between atoms: N_11  and  C_12 
REMARK    6  A    between atoms: C_12  and  C_15 
REMARK    7  A    between atoms: C_15  and  C_16 
REMARK       I    between atoms: N_20  and  C_21 
REMARK    8  A    between atoms: N_20  and  C_31 
REMARK    9  A    between atoms: C_21  and  C_23 
REMARK   10  A    between atoms: C_24  and  O_25 
REMARK   11  A    between atoms: C_29  and  O_30 
ROOT
ATOM      1  C   UNL d   1      27.027 -16.235  -0.362  0.00  0.00     0.213 C 
ENDROOT
BRANCH   1   2
ATOM      2  N   UNL d   1      25.662 -16.044  -1.248  0.00  0.00    -0.322 N 
ATOM      3  C   UNL d   1      25.557 -15.313  -2.551  0.00  0.00     0.261 C 
ATOM      4  O   UNL d   1      24.469 -15.020  -3.067  0.00  0.00    -0.267 OA
BRANCH   3   5
ATOM      5  C   UNL d   1      26.587 -14.695  -3.435  0.00  0.00     0.098 C 
ATOM      6  C   UNL d   1      26.580 -15.030  -4.828  0.00  0.00     0.084 C 
ATOM      7  C   UNL d   1      27.307 -14.273  -5.758  0.00  0.00     0.038 C 
ATOM      8  C   UNL d   1      27.948 -13.104  -5.334  0.00  0.00     0.005 C 
ATOM      9  C   UNL d   1      28.013 -12.784  -3.967  0.00  0.00     0.038 C 
ATOM     10  C   UNL d   1      27.388 -13.605  -3.001  0.00  0.00     0.084 C 
BRANCH   6  11
ATOM     11  O   UNL d   1      25.723 -15.950  -5.402  0.00  0.00    -0.360 OA
ATOM     12  H   UNL d   1      25.119 -16.289  -4.716  0.00  0.00     0.217 HD
ENDBRANCH   6  11
BRANCH  10  13
ATOM     13  O   UNL d   1      27.180 -13.075  -1.735  0.00  0.00    -0.360 OA
ATOM     14  H   UNL d   1      27.960 -13.318  -1.202  0.00  0.00     0.217 HD
ENDBRANCH  10  13
ENDBRANCH   3   5
BRANCH   2  15
ATOM     15  C   UNL d   1      24.420 -16.978  -0.933  0.00  0.00     0.026 C 
ATOM     16  C   UNL d   1      23.153 -16.150  -0.659  0.00  0.00     0.037 C 
ATOM     17  C   UNL d   1      23.992 -17.974  -2.020  0.00  0.00     0.037 C 
ATOM     18  C   UNL d   1      24.657 -17.977   0.207  0.00  0.00     0.037 C 
ENDBRANCH   2  15
ENDBRANCH   1   2
BRANCH   1  19
ATOM     19  C   UNL d   1      28.303 -16.352  -1.141  0.00  0.00     0.245 C 
ATOM     20  O   UNL d   1      28.696 -17.450  -1.308  0.00  0.00    -0.271 OA
ATOM     21  N   UNL d   1      29.086 -15.434  -1.760  0.00  0.00    -0.351 N 
ATOM     22  H   UNL d   1      28.965 -14.435  -1.675  0.00  0.00     0.163 HD
BRANCH  21  23
ATOM     23  C   UNL d   1      30.255 -15.959  -2.468  0.00  0.00     0.026 C 
ATOM     24  C   UNL d   1      30.852 -14.662  -3.021  0.00  0.00     0.038 C 
ATOM     25  C   UNL d   1      31.183 -16.860  -1.582  0.00  0.00     0.038 C 
BRANCH  23  26
ATOM     26  C   UNL d   1      29.778 -16.890  -3.576  0.00  0.00     0.038 C 
BRANCH  26  27
ATOM     27  C   UNL d   1      30.675 -16.943  -4.845  0.00  0.00    -0.049 C 
ATOM     28  C   UNL d   1      30.315 -15.861  -5.872  0.00  0.00     0.014 C 
ATOM     29  C   UNL d   1      32.191 -16.888  -4.576  0.00  0.00     0.014 C 
ATOM     30  C   UNL d   1      30.405 -18.289  -5.501  0.00  0.00     0.014 C 
ENDBRANCH  26  27
ENDBRANCH  23  26
ENDBRANCH  21  23
ENDBRANCH   1  19
BRANCH   1  31
ATOM     31  C   UNL d   1      27.375 -15.180   0.653  0.00  0.00    -0.026 C 
ATOM     32  C   UNL d   1      28.551 -15.037   1.355  0.00  0.00     0.012 C 
ATOM     33  C   UNL d   1      28.653 -14.317   2.512  0.00  0.00     0.030 C 
ATOM     34  C   UNL d   1      27.666 -13.404   2.802  0.00  0.00     0.029 C 
ATOM     35  C   UNL d   1      26.591 -13.322   1.951  0.00  0.00     0.030 C 
ATOM     36  C   UNL d   1      26.655 -14.068   0.809  0.00  0.00     0.012 C 
BRANCH  34  37
ATOM     37  N   UNL d   1      27.893 -12.444   3.757  0.00  0.00    -0.390 N 
ATOM     38  C   UNL d   1      28.008 -12.882   5.123  0.00  0.00     0.149 C 
ATOM     39  C   UNL d   1      27.491 -11.096   3.397  0.00  0.00     0.149 C 
ENDBRANCH  34  37
ENDBRANCH   1  31
TORSDOF 11
ENDMDL
MODEL 9
REMARK VINA RESULT:    -6.148      2.432      6.202
REMARK INTER + INTRA:         -14.106
REMARK INTER:                  -9.429
REMARK INTRA:                  -4.677
REMARK CONF_INDEPENDENT:        3.281
REMARK UNBOUND:                -4.677
REMARK  11 active torsions:
REMARK  status: ('A' for Active; 'I' for Inactive)
REMARK    1  A    between atoms: N_2  and  C_4 
REMARK    2  A    between atoms: C_8  and  C_7 
REMARK    3  A    between atoms: C_8  and  N_20 
REMARK    4  A    between atoms: C_8  and  C_9 
REMARK       I    between atoms: C_9  and  N_11 
REMARK    5  A    between atoms: N_11  and  C_12 
REMARK    6  A    between atoms: C_12  and  C_15 
REMARK    7  A    between atoms: C_15  and  C_16 
REMARK       I    between atoms: N_20  and  C_21 
REMARK    8  A    between atoms: N_20  and  C_31 
REMARK    9  A    between atoms: C_21  and  C_23 
REMARK   10  A    between atoms: C_24  and  O_25 
REMARK   11  A    between atoms: C_29  and  O_30 
ROOT
ATOM      1  C   UNL d   1      26.363 -13.880  -3.732  0.00  0.00     0.213 C 
ENDROOT
BRANCH   1   2
ATOM      2  N   UNL d   1      26.596 -12.409  -3.048  0.00  0.00    -0.322 N 
ATOM      3  C   UNL d   1      27.223 -12.152  -1.712  0.00  0.00     0.261 C 
ATOM      4  O   UNL d   1      27.180 -11.045  -1.156  0.00  0.00    -0.267 OA
BRANCH   3   5
ATOM      5  C   UNL d   1      27.887 -13.057  -0.730  0.00  0.00     0.098 C 
ATOM      6  C   UNL d   1      29.214 -13.515  -1.015  0.00  0.00     0.084 C 
ATOM      7  C   UNL d   1      30.004 -14.109  -0.019  0.00  0.00     0.038 C 
ATOM      8  C   UNL d   1      29.531 -14.141   1.297  0.00  0.00     0.005 C 
ATOM      9  C   UNL d   1      28.216 -13.746   1.591  0.00  0.00     0.038 C 
ATOM     10  C   UNL d   1      27.361 -13.259   0.574  0.00  0.00     0.084 C 
BRANCH   6  11
ATOM     11  O   UNL d   1      29.901 -13.233  -2.181  0.00  0.00    -0.360 OA
ATOM     12  H   UNL d   1      30.229 -12.316  -2.140  0.00  0.00     0.217 HD
ENDBRANCH   6  11
BRANCH  10  13
ATOM     13  O   UNL d   1      26.223 -12.566   0.960  0.00  0.00    -0.360 OA
ATOM     14  H   UNL d   1      26.330 -11.653   0.631  0.00  0.00     0.217 HD
ENDBRANCH  10  13
ENDBRANCH   3   5
BRANCH   2  15
ATOM     15  C   UNL d   1      26.496 -11.123  -3.970  0.00  0.00     0.026 C 
ATOM     16  C   UNL d   1      26.031 -11.488  -5.390  0.00  0.00     0.037 C 
ATOM     17  C   UNL d   1      25.531 -10.014  -3.531  0.00  0.00     0.037 C 
ATOM     18  C   UNL d   1      27.783 -10.290  -4.031  0.00  0.00     0.037 C 
ENDBRANCH   2  15
ENDBRANCH   1   2
BRANCH   1  19
ATOM     19  C   UNL d   1      27.513 -14.421  -4.528  0.00  0.00     0.245 C 
ATOM     20  O   UNL d   1      27.227 -15.199  -5.366  0.00  0.00    -0.271 OA
ATOM     21  N   UNL d   1      28.841 -14.148  -4.522  0.00  0.00    -0.351 N 
ATOM     22  H   UNL d   1      29.298 -13.569  -3.834  0.00  0.00     0.163 HD
BRANCH  21  23
ATOM     23  C   UNL d   1      29.650 -14.873  -5.503  0.00  0.00     0.026 C 
ATOM     24  C   UNL d   1      31.031 -14.270  -5.226  0.00  0.00     0.038 C 
ATOM     25  C   UNL d   1      29.513 -16.432  -5.413  0.00  0.00     0.038 C 
BRANCH  23  26
ATOM     26  C   UNL d   1      29.146 -14.534  -6.901  0.00  0.00     0.038 C 
BRANCH  26  27
ATOM     27  C   UNL d   1      29.504 -13.113  -7.421  0.00  0.00    -0.049 C 
ATOM     28  C   UNL d   1      29.310 -12.025  -6.356  0.00  0.00     0.014 C 
ATOM     29  C   UNL d   1      30.915 -12.974  -8.022  0.00  0.00     0.014 C 
ATOM     30  C   UNL d   1      28.527 -12.814  -8.548  0.00  0.00     0.014 C 
ENDBRANCH  26  27
ENDBRANCH  23  26
ENDBRANCH  21  23
ENDBRANCH   1  19
BRANCH   1  31
ATOM     31  C   UNL d   1      26.029 -15.041  -2.835  0.00  0.00    -0.026 C 
ATOM     32  C   UNL d   1      24.780 -15.507  -2.484  0.00  0.00     0.012 C 
ATOM     33  C   UNL d   1      24.551 -16.290  -1.389  0.00  0.00     0.030 C 
ATOM     34  C   UNL d   1      25.618 -16.947  -0.821  0.00  0.00     0.029 C 
ATOM     35  C   UNL d   1      26.869 -16.715  -1.339  0.00  0.00     0.030 C 
ATOM     36  C   UNL d   1      26.934 -15.948  -2.466  0.00  0.00     0.012 C 
BRANCH  34  37
ATOM     37  N   UNL d   1      25.388 -17.982   0.051  0.00  0.00    -0.390 N 
ATOM     38  C   UNL d   1      26.531 -18.575   0.694  0.00  0.00     0.149 C 
ATOM     39  C   UNL d   1      24.139 -18.698  -0.144  0.00  0.00     0.149 C 
ENDBRANCH  34  37
ENDBRANCH   1  31
TORSDOF 11
ENDMDL
