MODEL 1
REMARK VINA RESULT:   -12.021      0.000      0.000
REMARK INTER + INTRA:         -17.695
REMARK INTER:                 -15.302
REMARK INTRA:                  -2.393
REMARK CONF_INDEPENDENT:        3.281
REMARK UNBOUND:                -2.393
REMARK  11 active torsions:
REMARK  status: ('A' for Active; 'I' for Inactive)
REMARK    1  A    between atoms: C_2  and  C_3 
REMARK       I    between atoms: C_2  and  N_13 
REMARK    2  A    between atoms: C_3  and  N_4 
REMARK    3  A    between atoms: N_13  and  N_14 
REMARK    4  A    between atoms: N_14  and  C_15 
REMARK    5  A    between atoms: C_15  and  N_17 
REMARK       I    between atoms: N_17  and  C_18 
REMARK    6  A    between atoms: C_18  and  C_20 
REMARK    7  A    between atoms: C_24  and  O_25 
REMARK    8  A    between atoms: O_25  and  C_26 
REMARK    9  A    between atoms: C_26  and  C_27 
REMARK   10  A    between atoms: C_27  and  O_28 
REMARK   11  A    between atoms: O_28  and  C_29 
ROOT
ATOM      1  N   UNL d   1      26.045 -13.569  -2.379  0.00  0.00    -0.298 N 
ATOM      2  C   UNL d   1      25.081 -14.603  -2.317  0.00  0.00     0.258 C 
ATOM      3  O   UNL d   1      24.021 -14.624  -2.950  0.00  0.00    -0.267 OA
ATOM      4  H   UNL d   1      26.890 -13.722  -1.847  0.00  0.00     0.171 HD
ENDROOT
BRANCH   1   5
ATOM      5  C   UNL d   1      25.986 -12.404  -3.187  0.00  0.00     0.193 C 
ATOM      6  S   UNL d   1      26.491 -10.868  -2.704  0.00  0.00    -0.039 SA
BRANCH   5   7
ATOM      7  N   UNL d   1      25.462 -12.601  -4.488  0.00  0.00    -0.273 N 
ATOM      8  H   UNL d   1      25.161 -11.851  -5.097  0.00  0.00     0.189 HD
BRANCH   7   9
ATOM      9  N   UNL d   1      25.359 -13.949  -4.976  0.00  0.00    -0.266 N 
ATOM     10  C   UNL d   1      26.348 -14.823  -5.378  0.00  0.00     0.254 C 
ATOM     11  O   UNL d   1      26.009 -15.941  -5.774  0.00  0.00    -0.270 OA
ATOM     12  H   UNL d   1      24.405 -14.319  -5.038  0.00  0.00     0.190 HD
BRANCH  10  13
ATOM     13  C   UNL d   1      27.789 -14.364  -5.324  0.00  0.00     0.233 C 
BRANCH  13  14
ATOM     14  N   UNL d   1      28.693 -15.280  -4.619  0.00  0.00    -0.347 N 
ATOM     15  C   UNL d   1      28.665 -15.487  -3.258  0.00  0.00     0.092 A 
ATOM     16  C   UNL d   1      29.610 -16.434  -2.942  0.00  0.00     0.031 A 
ATOM     17  C   UNL d   1      30.220 -16.854  -4.150  0.00  0.00    -0.008 A 
ATOM     18  C   UNL d   1      31.230 -17.794  -4.440  0.00  0.00     0.014 A 
ATOM     19  C   UNL d   1      29.630 -16.127  -5.195  0.00  0.00     0.044 A 
ATOM     20  C   UNL d   1      31.627 -17.996  -5.762  0.00  0.00     0.001 A 
ATOM     21  C   UNL d   1      31.034 -17.269  -6.789  0.00  0.00     0.002 A 
ATOM     22  C   UNL d   1      30.031 -16.325  -6.527  0.00  0.00     0.030 A 
ENDBRANCH  13  14
ENDBRANCH  10  13
ENDBRANCH   7   9
ENDBRANCH   5   7
ENDBRANCH   1   5
BRANCH   2  23
ATOM     23  C   UNL d   1      25.320 -15.816  -1.481  0.00  0.00     0.035 C 
ATOM     24  C   UNL d   1      26.594 -16.211  -1.074  0.00  0.00     0.017 C 
ATOM     25  C   UNL d   1      26.733 -17.319  -0.227  0.00  0.00     0.004 C 
ATOM     26  C   UNL d   1      25.617 -18.094   0.124  0.00  0.00     0.037 C 
ATOM     27  C   UNL d   1      24.332 -17.696  -0.251  0.00  0.00     0.069 C 
ATOM     28  C   UNL d   1      24.193 -16.508  -0.976  0.00  0.00     0.053 C 
BRANCH  27  29
ATOM     29  O   UNL d   1      23.312 -18.533   0.132  0.00  0.00    -0.349 OA
BRANCH  29  30
ATOM     30  C   UNL d   1      22.659 -19.278  -0.907  0.00  0.00     0.202 C 
BRANCH  30  31
ATOM     31  C   UNL d   1      21.300 -18.656  -1.256  0.00  0.00     0.202 C 
BRANCH  31  32
ATOM     32  O   UNL d   1      20.291 -19.688  -1.281  0.00  0.00    -0.349 OA
BRANCH  32  33
ATOM     33  C   UNL d   1      19.783 -19.984  -0.041  0.00  0.00     0.068 C 
ATOM     34  C   UNL d   1      20.368 -19.537   1.143  0.00  0.00     0.037 C 
ATOM     35  C   UNL d   1      19.908 -20.010   2.374  0.00  0.00     0.003 C 
ATOM     36  C   UNL d   1      18.775 -20.817   2.431  0.00  0.00     0.000 C 
ATOM     37  C   UNL d   1      18.083 -21.119   1.259  0.00  0.00     0.003 C 
ATOM     38  C   UNL d   1      18.607 -20.734   0.020  0.00  0.00     0.037 C 
ENDBRANCH  32  33
ENDBRANCH  31  32
ENDBRANCH  30  31
ENDBRANCH  29  30
ENDBRANCH  27  29
ENDBRANCH   2  23
TORSDOF 11
ENDMDL
MODEL 2
REMARK VINA RESULT:   -11.501      1.752      2.383
REMARK INTER + INTRA:         -16.129
REMARK INTER:                 -14.783
REMARK INTRA:                  -1.347
REMARK CONF_INDEPENDENT:        3.281
REMARK UNBOUND:                -1.347
REMARK  11 active torsions:
REMARK  status: ('A' for Active; 'I' for Inactive)
REMARK    1  A    between atoms: C_2  and  C_3 
REMARK       I    between atoms: C_2  and  N_13 
REMARK    2  A    between atoms: C_3  and  N_4 
REMARK    3  A    between atoms: N_13  and  N_14 
REMARK    4  A    between atoms: N_14  and  C_15 
REMARK    5  A    between atoms: C_15  and  N_17 
REMARK       I    between atoms: N_17  and  C_18 
REMARK    6  A    between atoms: C_18  and  C_20 
REMARK    7  A    between atoms: C_24  and  O_25 
REMARK    8  A    between atoms: O_25  and  C_26 
REMARK    9  A    between atoms: C_26  and  C_27 
REMARK   10  A    between atoms: C_27  and  O_28 
REMARK   11  A    between atoms: O_28  and  C_29 
ROOT
ATOM      1  N   UNL d   1      27.493 -14.722  -3.859  0.00  0.00    -0.298 N 
ATOM      2  C   UNL d   1      26.239 -15.168  -3.378  0.00  0.00     0.258 C 
ATOM      3  O   UNL d   1      25.158 -15.007  -3.954  0.00  0.00    -0.267 OA
ATOM      4  H   UNL d   1      28.295 -14.980  -3.303  0.00  0.00     0.171 HD
ENDROOT
BRANCH   1   5
ATOM      5  C   UNL d   1      27.738 -14.049  -5.084  0.00  0.00     0.193 C 
ATOM      6  S   UNL d   1      27.988 -12.387  -5.238  0.00  0.00    -0.039 SA
BRANCH   5   7
ATOM      7  N   UNL d   1      27.771 -14.879  -6.231  0.00  0.00    -0.273 N 
ATOM      8  H   UNL d   1      27.010 -15.482  -6.515  0.00  0.00     0.189 HD
BRANCH   7   9
ATOM      9  N   UNL d   1      28.956 -14.859  -7.043  0.00  0.00    -0.266 N 
ATOM     10  C   UNL d   1      30.265 -15.136  -6.707  0.00  0.00     0.254 C 
ATOM     11  O   UNL d   1      31.124 -15.038  -7.586  0.00  0.00    -0.270 OA
ATOM     12  H   UNL d   1      28.809 -14.595  -8.023  0.00  0.00     0.190 HD
BRANCH  10  13
ATOM     13  C   UNL d   1      30.580 -15.531  -5.280  0.00  0.00     0.233 C 
BRANCH  13  14
ATOM     14  N   UNL d   1      30.716 -16.977  -5.065  0.00  0.00    -0.347 N 
ATOM     15  C   UNL d   1      30.627 -17.579  -3.830  0.00  0.00     0.092 A 
ATOM     16  C   UNL d   1      30.755 -18.937  -3.999  0.00  0.00     0.031 A 
ATOM     17  C   UNL d   1      30.895 -19.188  -5.387  0.00  0.00    -0.008 A 
ATOM     18  C   UNL d   1      31.050 -20.371  -6.137  0.00  0.00     0.014 A 
ATOM     19  C   UNL d   1      30.862 -17.950  -6.044  0.00  0.00     0.044 A 
ATOM     20  C   UNL d   1      31.161 -20.299  -7.526  0.00  0.00     0.001 A 
ATOM     21  C   UNL d   1      31.126 -19.064  -8.167  0.00  0.00     0.002 A 
ATOM     22  C   UNL d   1      30.978 -17.873  -7.443  0.00  0.00     0.030 A 
ENDBRANCH  13  14
ENDBRANCH  10  13
ENDBRANCH   7   9
ENDBRANCH   5   7
ENDBRANCH   1   5
BRANCH   2  23
ATOM     23  C   UNL d   1      26.145 -15.943  -2.105  0.00  0.00     0.035 C 
ATOM     24  C   UNL d   1      26.910 -15.637  -0.980  0.00  0.00     0.017 C 
ATOM     25  C   UNL d   1      26.712 -16.363   0.203  0.00  0.00     0.004 C 
ATOM     26  C   UNL d   1      25.835 -17.457   0.232  0.00  0.00     0.037 C 
ATOM     27  C   UNL d   1      25.041 -17.757  -0.877  0.00  0.00     0.069 C 
ATOM     28  C   UNL d   1      25.143 -16.938  -2.005  0.00  0.00     0.053 C 
BRANCH  27  29
ATOM     29  O   UNL d   1      24.227 -18.858  -0.749  0.00  0.00    -0.349 OA
BRANCH  29  30
ATOM     30  C   UNL d   1      22.942 -18.793  -1.385  0.00  0.00     0.202 C 
BRANCH  30  31
ATOM     31  C   UNL d   1      21.893 -18.191  -0.441  0.00  0.00     0.202 C 
BRANCH  31  32
ATOM     32  O   UNL d   1      20.571 -18.540  -0.904  0.00  0.00    -0.349 OA
BRANCH  32  33
ATOM     33  C   UNL d   1      19.878 -19.335  -0.026  0.00  0.00     0.068 C 
ATOM     34  C   UNL d   1      20.193 -19.419   1.329  0.00  0.00     0.037 C 
ATOM     35  C   UNL d   1      19.565 -20.370   2.137  0.00  0.00     0.003 C 
ATOM     36  C   UNL d   1      18.523 -21.140   1.626  0.00  0.00     0.000 C 
ATOM     37  C   UNL d   1      18.088 -20.930   0.317  0.00  0.00     0.003 C 
ATOM     38  C   UNL d   1      18.788 -20.055  -0.520  0.00  0.00     0.037 C 
ENDBRANCH  32  33
ENDBRANCH  31  32
ENDBRANCH  30  31
ENDBRANCH  29  30
ENDBRANCH  27  29
ENDBRANCH   2  23
TORSDOF 11
ENDMDL
MODEL 3
REMARK VINA RESULT:   -11.128      1.701      2.501
REMARK INTER + INTRA:         -16.330
REMARK INTER:                 -14.409
REMARK INTRA:                  -1.921
REMARK CONF_INDEPENDENT:        3.281
REMARK UNBOUND:                -1.921
REMARK  11 active torsions:
REMARK  status: ('A' for Active; 'I' for Inactive)
REMARK    1  A    between atoms: C_2  and  C_3 
REMARK       I    between atoms: C_2  and  N_13 
REMARK    2  A    between atoms: C_3  and  N_4 
REMARK    3  A    between atoms: N_13  and  N_14 
REMARK    4  A    between atoms: N_14  and  C_15 
REMARK    5  A    between atoms: C_15  and  N_17 
REMARK       I    between atoms: N_17  and  C_18 
REMARK    6  A    between atoms: C_18  and  C_20 
REMARK    7  A    between atoms: C_24  and  O_25 
REMARK    8  A    between atoms: O_25  and  C_26 
REMARK    9  A    between atoms: C_26  and  C_27 
REMARK   10  A    between atoms: C_27  and  O_28 
REMARK   11  A    between atoms: O_28  and  C_29 
ROOT
ATOM      1  N   UNL d   1      26.358 -13.477  -2.261  0.00  0.00    -0.298 N 
ATOM      2  C   UNL d   1      25.488 -14.593  -2.317  0.00  0.00     0.258 C 
ATOM      3  O   UNL d   1      24.492 -14.681  -3.041  0.00  0.00    -0.267 OA
ATOM      4  H   UNL d   1      27.164 -13.577  -1.661  0.00  0.00     0.171 HD
ENDROOT
BRANCH   1   5
ATOM      5  C   UNL d   1      26.264 -12.292  -3.035  0.00  0.00     0.193 C 
ATOM      6  S   UNL d   1      26.741 -10.759  -2.514  0.00  0.00    -0.039 SA
BRANCH   5   7
ATOM      7  N   UNL d   1      25.730 -12.463  -4.336  0.00  0.00    -0.273 N 
ATOM      8  H   UNL d   1      25.141 -11.784  -4.800  0.00  0.00     0.189 HD
BRANCH   7   9
ATOM      9  N   UNL d   1      26.051 -13.673  -5.041  0.00  0.00    -0.266 N 
ATOM     10  C   UNL d   1      27.260 -14.115  -5.537  0.00  0.00     0.254 C 
ATOM     11  O   UNL d   1      27.287 -15.199  -6.125  0.00  0.00    -0.270 OA
ATOM     12  H   UNL d   1      25.261 -14.306  -5.205  0.00  0.00     0.190 HD
BRANCH  10  13
ATOM     13  C   UNL d   1      28.485 -13.246  -5.347  0.00  0.00     0.233 C 
BRANCH  13  14
ATOM     14  N   UNL d   1      29.281 -13.042  -6.563  0.00  0.00    -0.347 N 
ATOM     15  C   UNL d   1      29.122 -11.970  -7.412  0.00  0.00     0.092 A 
ATOM     16  C   UNL d   1      30.055 -12.069  -8.417  0.00  0.00     0.031 A 
ATOM     17  C   UNL d   1      30.840 -13.221  -8.164  0.00  0.00    -0.008 A 
ATOM     18  C   UNL d   1      31.931 -13.806  -8.839  0.00  0.00     0.014 A 
ATOM     19  C   UNL d   1      30.348 -13.818  -6.994  0.00  0.00     0.044 A 
ATOM     20  C   UNL d   1      32.513 -14.968  -8.333  0.00  0.00     0.001 A 
ATOM     21  C   UNL d   1      32.017 -15.551  -7.171  0.00  0.00     0.002 A 
ATOM     22  C   UNL d   1      30.931 -14.991  -6.484  0.00  0.00     0.030 A 
ENDBRANCH  13  14
ENDBRANCH  10  13
ENDBRANCH   7   9
ENDBRANCH   5   7
ENDBRANCH   1   5
BRANCH   2  23
ATOM     23  C   UNL d   1      25.763 -15.812  -1.501  0.00  0.00     0.035 C 
ATOM     24  C   UNL d   1      27.045 -16.162  -1.077  0.00  0.00     0.017 C 
ATOM     25  C   UNL d   1      27.214 -17.281  -0.250  0.00  0.00     0.004 C 
ATOM     26  C   UNL d   1      26.126 -18.107   0.065  0.00  0.00     0.037 C 
ATOM     27  C   UNL d   1      24.832 -17.755  -0.326  0.00  0.00     0.069 C 
ATOM     28  C   UNL d   1      24.657 -16.559  -1.030  0.00  0.00     0.053 C 
BRANCH  27  29
ATOM     29  O   UNL d   1      23.840 -18.641   0.021  0.00  0.00    -0.349 OA
BRANCH  29  30
ATOM     30  C   UNL d   1      22.956 -19.068  -1.025  0.00  0.00     0.202 C 
BRANCH  30  31
ATOM     31  C   UNL d   1      21.635 -18.288  -0.980  0.00  0.00     0.202 C 
BRANCH  31  32
ATOM     32  O   UNL d   1      20.537 -19.184  -1.252  0.00  0.00    -0.349 OA
BRANCH  32  33
ATOM     33  C   UNL d   1      19.967 -19.708  -0.119  0.00  0.00     0.068 C 
ATOM     34  C   UNL d   1      18.782 -20.443  -0.139  0.00  0.00     0.037 C 
ATOM     35  C   UNL d   1      18.162 -20.803   1.059  0.00  0.00     0.003 C 
ATOM     36  C   UNL d   1      18.795 -20.554   2.274  0.00  0.00     0.000 C 
ATOM     37  C   UNL d   1      20.064 -19.978   2.286  0.00  0.00     0.003 C 
ATOM     38  C   UNL d   1      20.634 -19.521   1.093  0.00  0.00     0.037 C 
ENDBRANCH  32  33
ENDBRANCH  31  32
ENDBRANCH  30  31
ENDBRANCH  29  30
ENDBRANCH  27  29
ENDBRANCH   2  23
TORSDOF 11
ENDMDL
MODEL 4
REMARK VINA RESULT:   -10.957      5.061      7.263
REMARK INTER + INTRA:         -16.230
REMARK INTER:                 -14.238
REMARK INTRA:                  -1.992
REMARK CONF_INDEPENDENT:        3.281
REMARK UNBOUND:                -1.992
REMARK  11 active torsions:
REMARK  status: ('A' for Active; 'I' for Inactive)
REMARK    1  A    between atoms: C_2  and  C_3 
REMARK       I    between atoms: C_2  and  N_13 
REMARK    2  A    between atoms: C_3  and  N_4 
REMARK    3  A    between atoms: N_13  and  N_14 
REMARK    4  A    between atoms: N_14  and  C_15 
REMARK    5  A    between atoms: C_15  and  N_17 
REMARK       I    between atoms: N_17  and  C_18 
REMARK    6  A    between atoms: C_18  and  C_20 
REMARK    7  A    between atoms: C_24  and  O_25 
REMARK    8  A    between atoms: O_25  and  C_26 
REMARK    9  A    between atoms: C_26  and  C_27 
REMARK   10  A    between atoms: C_27  and  O_28 
REMARK   11  A    between atoms: O_28  and  C_29 
ROOT
ATOM      1  N   UNL d   1      29.247 -15.195   1.100  0.00  0.00    -0.298 N 
ATOM      2  C   UNL d   1      27.976 -14.941   0.531  0.00  0.00     0.258 C 
ATOM      3  O   UNL d   1      27.560 -13.830   0.190  0.00  0.00    -0.267 OA
ATOM      4  H   UNL d   1      29.467 -16.166   1.273  0.00  0.00     0.171 HD
ENDROOT
BRANCH   1   5
ATOM      5  C   UNL d   1      30.268 -14.242   1.349  0.00  0.00     0.193 C 
ATOM      6  S   UNL d   1      31.703 -14.113   0.469  0.00  0.00    -0.039 SA
BRANCH   5   7
ATOM      7  N   UNL d   1      30.013 -13.353   2.422  0.00  0.00    -0.273 N 
ATOM      8  H   UNL d   1      30.373 -13.479   3.359  0.00  0.00     0.189 HD
BRANCH   7   9
ATOM      9  N   UNL d   1      29.198 -12.199   2.161  0.00  0.00    -0.266 N 
ATOM     10  C   UNL d   1      27.866 -11.975   2.440  0.00  0.00     0.254 C 
ATOM     11  O   UNL d   1      27.376 -10.893   2.105  0.00  0.00    -0.270 OA
ATOM     12  H   UNL d   1      29.677 -11.423   1.693  0.00  0.00     0.190 HD
BRANCH  10  13
ATOM     13  C   UNL d   1      27.073 -13.066   3.127  0.00  0.00     0.233 C 
BRANCH  13  14
ATOM     14  N   UNL d   1      27.746 -13.669   4.284  0.00  0.00    -0.347 N 
ATOM     15  C   UNL d   1      28.151 -14.985   4.334  0.00  0.00     0.092 A 
ATOM     16  C   UNL d   1      28.782 -15.199   5.536  0.00  0.00     0.031 A 
ATOM     17  C   UNL d   1      28.799 -13.970   6.240  0.00  0.00    -0.008 A 
ATOM     18  C   UNL d   1      29.312 -13.591   7.497  0.00  0.00     0.014 A 
ATOM     19  C   UNL d   1      28.152 -13.017   5.440  0.00  0.00     0.044 A 
ATOM     20  C   UNL d   1      29.177 -12.271   7.929  0.00  0.00     0.001 A 
ATOM     21  C   UNL d   1      28.533 -11.334   7.125  0.00  0.00     0.002 A 
ATOM     22  C   UNL d   1      28.011 -11.687   5.873  0.00  0.00     0.030 A 
ENDBRANCH  13  14
ENDBRANCH  10  13
ENDBRANCH   7   9
ENDBRANCH   5   7
ENDBRANCH   1   5
BRANCH   2  23
ATOM     23  C   UNL d   1      27.033 -16.063   0.247  0.00  0.00     0.035 C 
ATOM     24  C   UNL d   1      27.318 -17.388   0.576  0.00  0.00     0.017 C 
ATOM     25  C   UNL d   1      26.351 -18.376   0.347  0.00  0.00     0.004 C 
ATOM     26  C   UNL d   1      25.149 -18.062  -0.305  0.00  0.00     0.037 C 
ATOM     27  C   UNL d   1      24.836 -16.737  -0.613  0.00  0.00     0.069 C 
ATOM     28  C   UNL d   1      25.747 -15.740  -0.251  0.00  0.00     0.053 C 
BRANCH  27  29
ATOM     29  O   UNL d   1      23.641 -16.541  -1.264  0.00  0.00    -0.349 OA
BRANCH  29  30
ATOM     30  C   UNL d   1      22.448 -16.908  -0.555  0.00  0.00     0.202 C 
BRANCH  30  31
ATOM     31  C   UNL d   1      22.029 -18.345  -0.895  0.00  0.00     0.202 C 
BRANCH  31  32
ATOM     32  O   UNL d   1      20.594 -18.404  -1.047  0.00  0.00    -0.349 OA
BRANCH  32  33
ATOM     33  C   UNL d   1      19.988 -19.263  -0.165  0.00  0.00     0.068 C 
ATOM     34  C   UNL d   1      18.912 -20.076  -0.520  0.00  0.00     0.037 C 
ATOM     35  C   UNL d   1      18.228 -20.800   0.459  0.00  0.00     0.003 C 
ATOM     36  C   UNL d   1      18.705 -20.825   1.767  0.00  0.00     0.000 C 
ATOM     37  C   UNL d   1      19.885 -20.153   2.085  0.00  0.00     0.003 C 
ATOM     38  C   UNL d   1      20.506 -19.343   1.128  0.00  0.00     0.037 C 
ENDBRANCH  32  33
ENDBRANCH  31  32
ENDBRANCH  30  31
ENDBRANCH  29  30
ENDBRANCH  27  29
ENDBRANCH   2  23
TORSDOF 11
ENDMDL
MODEL 5
REMARK VINA RESULT:   -10.883      1.932      3.310
REMARK INTER + INTRA:         -16.426
REMARK INTER:                 -14.164
REMARK INTRA:                  -2.262
REMARK CONF_INDEPENDENT:        3.281
REMARK UNBOUND:                -2.262
REMARK  11 active torsions:
REMARK  status: ('A' for Active; 'I' for Inactive)
REMARK    1  A    between atoms: C_2  and  C_3 
REMARK       I    between atoms: C_2  and  N_13 
REMARK    2  A    between atoms: C_3  and  N_4 
REMARK    3  A    between atoms: N_13  and  N_14 
REMARK    4  A    between atoms: N_14  and  C_15 
REMARK    5  A    between atoms: C_15  and  N_17 
REMARK       I    between atoms: N_17  and  C_18 
REMARK    6  A    between atoms: C_18  and  C_20 
REMARK    7  A    between atoms: C_24  and  O_25 
REMARK    8  A    between atoms: O_25  and  C_26 
REMARK    9  A    between atoms: C_26  and  C_27 
REMARK   10  A    between atoms: C_27  and  O_28 
REMARK   11  A    between atoms: O_28  and  C_29 
ROOT
ATOM      1  N   UNL d   1      26.047 -13.553  -2.379  0.00  0.00    -0.298 N 
ATOM      2  C   UNL d   1      25.109 -14.613  -2.347  0.00  0.00     0.258 C 
ATOM      3  O   UNL d   1      24.061 -14.654  -3.000  0.00  0.00    -0.267 OA
ATOM      4  H   UNL d   1      26.885 -13.690  -1.833  0.00  0.00     0.171 HD
ENDROOT
BRANCH   1   5
ATOM      5  C   UNL d   1      25.973 -12.382  -3.176  0.00  0.00     0.193 C 
ATOM      6  S   UNL d   1      26.398 -10.833  -2.658  0.00  0.00    -0.039 SA
BRANCH   5   7
ATOM      7  N   UNL d   1      25.508 -12.583  -4.499  0.00  0.00    -0.273 N 
ATOM      8  H   UNL d   1      25.211 -11.836  -5.114  0.00  0.00     0.189 HD
BRANCH   7   9
ATOM      9  N   UNL d   1      25.462 -13.928  -5.000  0.00  0.00    -0.266 N 
ATOM     10  C   UNL d   1      26.491 -14.777  -5.356  0.00  0.00     0.254 C 
ATOM     11  O   UNL d   1      26.200 -15.899  -5.776  0.00  0.00    -0.270 OA
ATOM     12  H   UNL d   1      24.522 -14.321  -5.114  0.00  0.00     0.190 HD
BRANCH  10  13
ATOM     13  C   UNL d   1      27.916 -14.285  -5.225  0.00  0.00     0.233 C 
BRANCH  13  14
ATOM     14  N   UNL d   1      28.350 -13.385  -6.300  0.00  0.00    -0.347 N 
ATOM     15  C   UNL d   1      28.550 -13.787  -7.601  0.00  0.00     0.092 A 
ATOM     16  C   UNL d   1      28.907 -12.688  -8.346  0.00  0.00     0.031 A 
ATOM     17  C   UNL d   1      28.894 -11.562  -7.487  0.00  0.00    -0.008 A 
ATOM     18  C   UNL d   1      29.161 -10.193  -7.693  0.00  0.00     0.014 A 
ATOM     19  C   UNL d   1      28.536 -12.012  -6.207  0.00  0.00     0.044 A 
ATOM     20  C   UNL d   1      29.059  -9.300  -6.626  0.00  0.00     0.001 A 
ATOM     21  C   UNL d   1      28.703  -9.759  -5.362  0.00  0.00     0.002 A 
ATOM     22  C   UNL d   1      28.437 -11.116  -5.129  0.00  0.00     0.030 A 
ENDBRANCH  13  14
ENDBRANCH  10  13
ENDBRANCH   7   9
ENDBRANCH   5   7
ENDBRANCH   1   5
BRANCH   2  23
ATOM     23  C   UNL d   1      25.363 -15.828  -1.519  0.00  0.00     0.035 C 
ATOM     24  C   UNL d   1      26.645 -16.220  -1.131  0.00  0.00     0.017 C 
ATOM     25  C   UNL d   1      26.798 -17.331  -0.291  0.00  0.00     0.004 C 
ATOM     26  C   UNL d   1      25.690 -18.111   0.073  0.00  0.00     0.037 C 
ATOM     27  C   UNL d   1      24.399 -17.715  -0.283  0.00  0.00     0.069 C 
ATOM     28  C   UNL d   1      24.246 -16.526  -1.001  0.00  0.00     0.053 C 
BRANCH  27  29
ATOM     29  O   UNL d   1      23.386 -18.558   0.111  0.00  0.00    -0.349 OA
BRANCH  29  30
ATOM     30  C   UNL d   1      22.714 -19.292  -0.923  0.00  0.00     0.202 C 
BRANCH  30  31
ATOM     31  C   UNL d   1      21.358 -18.655  -1.255  0.00  0.00     0.202 C 
BRANCH  31  32
ATOM     32  O   UNL d   1      20.342 -19.680  -1.295  0.00  0.00    -0.349 OA
BRANCH  32  33
ATOM     33  C   UNL d   1      19.821 -19.981  -0.062  0.00  0.00     0.068 C 
ATOM     34  C   UNL d   1      20.397 -19.543   1.130  0.00  0.00     0.037 C 
ATOM     35  C   UNL d   1      19.923 -20.021   2.353  0.00  0.00     0.003 C 
ATOM     36  C   UNL d   1      18.786 -20.824   2.395  0.00  0.00     0.000 C 
ATOM     37  C   UNL d   1      18.104 -21.116   1.214  0.00  0.00     0.003 C 
ATOM     38  C   UNL d   1      18.641 -20.726  -0.017  0.00  0.00     0.037 C 
ENDBRANCH  32  33
ENDBRANCH  31  32
ENDBRANCH  30  31
ENDBRANCH  29  30
ENDBRANCH  27  29
ENDBRANCH   2  23
TORSDOF 11
ENDMDL
MODEL 6
REMARK VINA RESULT:   -10.709      5.973      8.217
REMARK INTER + INTRA:         -16.039
REMARK INTER:                 -13.990
REMARK INTRA:                  -2.049
REMARK CONF_INDEPENDENT:        3.281
REMARK UNBOUND:                -2.049
REMARK  11 active torsions:
REMARK  status: ('A' for Active; 'I' for Inactive)
REMARK    1  A    between atoms: C_2  and  C_3 
REMARK       I    between atoms: C_2  and  N_13 
REMARK    2  A    between atoms: C_3  and  N_4 
REMARK    3  A    between atoms: N_13  and  N_14 
REMARK    4  A    between atoms: N_14  and  C_15 
REMARK    5  A    between atoms: C_15  and  N_17 
REMARK       I    between atoms: N_17  and  C_18 
REMARK    6  A    between atoms: C_18  and  C_20 
REMARK    7  A    between atoms: C_24  and  O_25 
REMARK    8  A    between atoms: O_25  and  C_26 
REMARK    9  A    between atoms: C_26  and  C_27 
REMARK   10  A    between atoms: C_27  and  O_28 
REMARK   11  A    between atoms: O_28  and  C_29 
ROOT
ATOM      1  N   UNL d   1      26.897 -13.456   1.171  0.00  0.00    -0.298 N 
ATOM      2  C   UNL d   1      27.297 -14.736   0.717  0.00  0.00     0.258 C 
ATOM      3  O   UNL d   1      28.307 -15.338   1.092  0.00  0.00    -0.267 OA
ATOM      4  H   UNL d   1      26.014 -13.118   0.814  0.00  0.00     0.171 HD
ENDROOT
BRANCH   1   5
ATOM      5  C   UNL d   1      27.553 -12.660   2.144  0.00  0.00     0.193 C 
ATOM      6  S   UNL d   1      27.023 -11.147   2.671  0.00  0.00    -0.039 SA
BRANCH   5   7
ATOM      7  N   UNL d   1      28.733 -13.225   2.687  0.00  0.00    -0.273 N 
ATOM      8  H   UNL d   1      29.664 -12.870   2.510  0.00  0.00     0.189 HD
BRANCH   7   9
ATOM      9  N   UNL d   1      28.598 -14.369   3.546  0.00  0.00    -0.266 N 
ATOM     10  C   UNL d   1      28.020 -14.475   4.795  0.00  0.00     0.254 C 
ATOM     11  O   UNL d   1      28.035 -15.576   5.351  0.00  0.00    -0.270 OA
ATOM     12  H   UNL d   1      28.993 -15.241   3.179  0.00  0.00     0.190 HD
BRANCH  10  13
ATOM     13  C   UNL d   1      27.413 -13.239   5.421  0.00  0.00     0.233 C 
BRANCH  13  14
ATOM     14  N   UNL d   1      28.320 -12.494   6.303  0.00  0.00    -0.347 N 
ATOM     15  C   UNL d   1      28.646 -11.169   6.123  0.00  0.00     0.092 A 
ATOM     16  C   UNL d   1      29.476 -10.782   7.149  0.00  0.00     0.031 A 
ATOM     17  C   UNL d   1      29.642 -11.894   8.011  0.00  0.00    -0.008 A 
ATOM     18  C   UNL d   1      30.362 -12.080   9.208  0.00  0.00     0.014 A 
ATOM     19  C   UNL d   1      28.905 -12.959   7.473  0.00  0.00     0.044 A 
ATOM     20  C   UNL d   1      30.330 -13.320   9.848  0.00  0.00     0.001 A 
ATOM     21  C   UNL d   1      29.595 -14.369   9.304  0.00  0.00     0.002 A 
ATOM     22  C   UNL d   1      28.874 -14.210   8.112  0.00  0.00     0.030 A 
ENDBRANCH  13  14
ENDBRANCH  10  13
ENDBRANCH   7   9
ENDBRANCH   5   7
ENDBRANCH   1   5
BRANCH   2  23
ATOM     23  C   UNL d   1      26.455 -15.495  -0.253  0.00  0.00     0.035 C 
ATOM     24  C   UNL d   1      26.239 -15.063  -1.562  0.00  0.00     0.017 C 
ATOM     25  C   UNL d   1      25.497 -15.869  -2.438  0.00  0.00     0.004 C 
ATOM     26  C   UNL d   1      24.886 -17.045  -1.982  0.00  0.00     0.037 C 
ATOM     27  C   UNL d   1      25.117 -17.507  -0.684  0.00  0.00     0.069 C 
ATOM     28  C   UNL d   1      25.974 -16.768   0.138  0.00  0.00     0.053 C 
BRANCH  27  29
ATOM     29  O   UNL d   1      24.458 -18.661  -0.334  0.00  0.00    -0.349 OA
BRANCH  29  30
ATOM     30  C   UNL d   1      23.190 -18.902  -0.963  0.00  0.00     0.202 C 
BRANCH  30  31
ATOM     31  C   UNL d   1      22.077 -18.097  -0.279  0.00  0.00     0.202 C 
BRANCH  31  32
ATOM     32  O   UNL d   1      20.803 -18.452  -0.856  0.00  0.00    -0.349 OA
BRANCH  32  33
ATOM     33  C   UNL d   1      20.071 -19.312  -0.077  0.00  0.00     0.068 C 
ATOM     34  C   UNL d   1      19.018 -20.077  -0.578  0.00  0.00     0.037 C 
ATOM     35  C   UNL d   1      18.203 -20.802   0.294  0.00  0.00     0.003 C 
ATOM     36  C   UNL d   1      18.523 -20.878   1.647  0.00  0.00     0.000 C 
ATOM     37  C   UNL d   1      19.680 -20.257   2.119  0.00  0.00     0.003 C 
ATOM     38  C   UNL d   1      20.433 -19.444   1.265  0.00  0.00     0.037 C 
ENDBRANCH  32  33
ENDBRANCH  31  32
ENDBRANCH  30  31
ENDBRANCH  29  30
ENDBRANCH  27  29
ENDBRANCH   2  23
TORSDOF 11
ENDMDL
MODEL 7
REMARK VINA RESULT:   -10.605      1.711      2.483
REMARK INTER + INTRA:         -16.918
REMARK INTER:                 -13.887
REMARK INTRA:                  -3.032
REMARK CONF_INDEPENDENT:        3.281
REMARK UNBOUND:                -3.032
REMARK  11 active torsions:
REMARK  status: ('A' for Active; 'I' for Inactive)
REMARK    1  A    between atoms: C_2  and  C_3 
REMARK       I    between atoms: C_2  and  N_13 
REMARK    2  A    between atoms: C_3  and  N_4 
REMARK    3  A    between atoms: N_13  and  N_14 
REMARK    4  A    between atoms: N_14  and  C_15 
REMARK    5  A    between atoms: C_15  and  N_17 
REMARK       I    between atoms: N_17  and  C_18 
REMARK    6  A    between atoms: C_18  and  C_20 
REMARK    7  A    between atoms: C_24  and  O_25 
REMARK    8  A    between atoms: O_25  and  C_26 
REMARK    9  A    between atoms: C_26  and  C_27 
REMARK   10  A    between atoms: C_27  and  O_28 
REMARK   11  A    between atoms: O_28  and  C_29 
ROOT
ATOM      1  N   UNL d   1      25.921 -13.309  -2.576  0.00  0.00    -0.298 N 
ATOM      2  C   UNL d   1      25.587 -14.663  -2.819  0.00  0.00     0.258 C 
ATOM      3  O   UNL d   1      25.165 -15.109  -3.890  0.00  0.00    -0.267 OA
ATOM      4  H   UNL d   1      26.310 -13.107  -1.666  0.00  0.00     0.171 HD
ENDROOT
BRANCH   1   5
ATOM      5  C   UNL d   1      25.864 -12.243  -3.511  0.00  0.00     0.193 C 
ATOM      6  S   UNL d   1      25.859 -10.604  -3.107  0.00  0.00    -0.039 SA
BRANCH   5   7
ATOM      7  N   UNL d   1      25.815 -12.637  -4.870  0.00  0.00    -0.273 N 
ATOM      8  H   UNL d   1      25.833 -13.599  -5.182  0.00  0.00     0.189 HD
BRANCH   7   9
ATOM      9  N   UNL d   1      25.729 -11.606  -5.867  0.00  0.00    -0.266 N 
ATOM     10  C   UNL d   1      26.732 -10.934  -6.536  0.00  0.00     0.254 C 
ATOM     11  O   UNL d   1      26.407 -10.069  -7.352  0.00  0.00    -0.270 OA
ATOM     12  H   UNL d   1      24.777 -11.322  -6.121  0.00  0.00     0.190 HD
BRANCH  10  13
ATOM     13  C   UNL d   1      28.171 -11.283  -6.226  0.00  0.00     0.233 C 
BRANCH  13  14
ATOM     14  N   UNL d   1      28.453 -12.723  -6.181  0.00  0.00    -0.347 N 
ATOM     15  C   UNL d   1      28.519 -13.525  -7.298  0.00  0.00     0.092 A 
ATOM     16  C   UNL d   1      28.844 -14.800  -6.899  0.00  0.00     0.031 A 
ATOM     17  C   UNL d   1      29.019 -14.780  -5.493  0.00  0.00    -0.008 A 
ATOM     18  C   UNL d   1      29.361 -15.774  -4.554  0.00  0.00     0.014 A 
ATOM     19  C   UNL d   1      28.777 -13.469  -5.057  0.00  0.00     0.044 A 
ATOM     20  C   UNL d   1      29.463 -15.443  -3.203  0.00  0.00     0.001 A 
ATOM     21  C   UNL d   1      29.221 -14.139  -2.782  0.00  0.00     0.002 A 
ATOM     22  C   UNL d   1      28.874 -13.133  -3.695  0.00  0.00     0.030 A 
ENDBRANCH  13  14
ENDBRANCH  10  13
ENDBRANCH   7   9
ENDBRANCH   5   7
ENDBRANCH   1   5
BRANCH   2  23
ATOM     23  C   UNL d   1      25.781 -15.695  -1.758  0.00  0.00     0.035 C 
ATOM     24  C   UNL d   1      27.008 -15.908  -1.130  0.00  0.00     0.017 C 
ATOM     25  C   UNL d   1      27.094 -16.844  -0.090  0.00  0.00     0.004 C 
ATOM     26  C   UNL d   1      25.989 -17.639   0.249  0.00  0.00     0.037 C 
ATOM     27  C   UNL d   1      24.747 -17.418  -0.350  0.00  0.00     0.069 C 
ATOM     28  C   UNL d   1      24.638 -16.384  -1.285  0.00  0.00     0.053 C 
BRANCH  27  29
ATOM     29  O   UNL d   1      23.735 -18.262   0.043  0.00  0.00    -0.349 OA
BRANCH  29  30
ATOM     30  C   UNL d   1      22.994 -18.915  -0.998  0.00  0.00     0.202 C 
BRANCH  30  31
ATOM     31  C   UNL d   1      21.575 -18.341  -1.103  0.00  0.00     0.202 C 
BRANCH  31  32
ATOM     32  O   UNL d   1      20.634 -19.417  -1.304  0.00  0.00    -0.349 OA
BRANCH  32  33
ATOM     33  C   UNL d   1      19.973 -19.785  -0.159  0.00  0.00     0.068 C 
ATOM     34  C   UNL d   1      20.446 -19.483   1.117  0.00  0.00     0.037 C 
ATOM     35  C   UNL d   1      19.823 -20.029   2.242  0.00  0.00     0.003 C 
ATOM     36  C   UNL d   1      18.646 -20.760   2.101  0.00  0.00     0.000 C 
ATOM     37  C   UNL d   1      18.075 -20.911   0.838  0.00  0.00     0.003 C 
ATOM     38  C   UNL d   1      18.757 -20.456  -0.296  0.00  0.00     0.037 C 
ENDBRANCH  32  33
ENDBRANCH  31  32
ENDBRANCH  30  31
ENDBRANCH  29  30
ENDBRANCH  27  29
ENDBRANCH   2  23
TORSDOF 11
ENDMDL
MODEL 8
REMARK VINA RESULT:    -9.710      2.623      3.739
REMARK INTER + INTRA:         -16.226
REMARK INTER:                 -12.992
REMARK INTRA:                  -3.235
REMARK CONF_INDEPENDENT:        3.281
REMARK UNBOUND:                -3.235
REMARK  11 active torsions:
REMARK  status: ('A' for Active; 'I' for Inactive)
REMARK    1  A    between atoms: C_2  and  C_3 
REMARK       I    between atoms: C_2  and  N_13 
REMARK    2  A    between atoms: C_3  and  N_4 
REMARK    3  A    between atoms: N_13  and  N_14 
REMARK    4  A    between atoms: N_14  and  C_15 
REMARK    5  A    between atoms: C_15  and  N_17 
REMARK       I    between atoms: N_17  and  C_18 
REMARK    6  A    between atoms: C_18  and  C_20 
REMARK    7  A    between atoms: C_24  and  O_25 
REMARK    8  A    between atoms: O_25  and  C_26 
REMARK    9  A    between atoms: C_26  and  C_27 
REMARK   10  A    between atoms: C_27  and  O_28 
REMARK   11  A    between atoms: O_28  and  C_29 
ROOT
ATOM      1  N   UNL d   1      26.598 -14.298  -3.708  0.00  0.00    -0.298 N 
ATOM      2  C   UNL d   1      25.513 -14.854  -2.988  0.00  0.00     0.258 C 
ATOM      3  O   UNL d   1      24.328 -14.537  -3.133  0.00  0.00    -0.267 OA
ATOM      4  H   UNL d   1      27.504 -14.702  -3.518  0.00  0.00     0.171 HD
ENDROOT
BRANCH   1   5
ATOM      5  C   UNL d   1      26.522 -13.318  -4.730  0.00  0.00     0.193 C 
ATOM      6  S   UNL d   1      27.660 -13.116  -5.960  0.00  0.00    -0.039 SA
BRANCH   5   7
ATOM      7  N   UNL d   1      25.385 -12.476  -4.672  0.00  0.00    -0.273 N 
ATOM      8  H   UNL d   1      24.477 -12.772  -4.336  0.00  0.00     0.189 HD
BRANCH   7   9
ATOM      9  N   UNL d   1      25.531 -11.116  -5.112  0.00  0.00    -0.266 N 
ATOM     10  C   UNL d   1      25.942  -9.998  -4.414  0.00  0.00     0.254 C 
ATOM     11  O   UNL d   1      25.977  -8.920  -5.012  0.00  0.00    -0.270 OA
ATOM     12  H   UNL d   1      25.292 -10.946  -6.095  0.00  0.00     0.190 HD
BRANCH  10  13
ATOM     13  C   UNL d   1      26.313 -10.150  -2.955  0.00  0.00     0.233 C 
BRANCH  13  14
ATOM     14  N   UNL d   1      27.595 -10.826  -2.720  0.00  0.00    -0.347 N 
ATOM     15  C   UNL d   1      28.773 -10.469  -3.337  0.00  0.00     0.092 A 
ATOM     16  C   UNL d   1      29.777 -11.276  -2.855  0.00  0.00     0.031 A 
ATOM     17  C   UNL d   1      29.209 -12.138  -1.884  0.00  0.00    -0.008 A 
ATOM     18  C   UNL d   1      29.750 -13.150  -1.066  0.00  0.00     0.014 A 
ATOM     19  C   UNL d   1      27.841 -11.840  -1.804  0.00  0.00     0.044 A 
ATOM     20  C   UNL d   1      28.921 -13.841  -0.182  0.00  0.00     0.001 A 
ATOM     21  C   UNL d   1      27.565 -13.536  -0.112  0.00  0.00     0.002 A 
ATOM     22  C   UNL d   1      27.002 -12.536  -0.917  0.00  0.00     0.030 A 
ENDBRANCH  13  14
ENDBRANCH  10  13
ENDBRANCH   7   9
ENDBRANCH   5   7
ENDBRANCH   1   5
BRANCH   2  23
ATOM     23  C   UNL d   1      25.738 -15.946  -1.996  0.00  0.00     0.035 C 
ATOM     24  C   UNL d   1      26.999 -16.249  -1.484  0.00  0.00     0.017 C 
ATOM     25  C   UNL d   1      27.121 -17.239  -0.499  0.00  0.00     0.004 C 
ATOM     26  C   UNL d   1      26.008 -17.995  -0.104  0.00  0.00     0.037 C 
ATOM     27  C   UNL d   1      24.734 -17.684  -0.585  0.00  0.00     0.069 C 
ATOM     28  C   UNL d   1      24.603 -16.601  -1.460  0.00  0.00     0.053 C 
BRANCH  27  29
ATOM     29  O   UNL d   1      23.715 -18.496  -0.147  0.00  0.00    -0.349 OA
BRANCH  29  30
ATOM     30  C   UNL d   1      22.856 -19.058  -1.151  0.00  0.00     0.202 C 
BRANCH  30  31
ATOM     31  C   UNL d   1      21.488 -18.362  -1.154  0.00  0.00     0.202 C 
BRANCH  31  32
ATOM     32  O   UNL d   1      20.448 -19.345  -1.337  0.00  0.00    -0.349 OA
BRANCH  32  33
ATOM     33  C   UNL d   1      19.872 -19.755  -0.160  0.00  0.00     0.068 C 
ATOM     34  C   UNL d   1      20.434 -19.492   1.089  0.00  0.00     0.037 C 
ATOM     35  C   UNL d   1      19.896 -20.080   2.236  0.00  0.00     0.003 C 
ATOM     36  C   UNL d   1      18.715 -20.813   2.155  0.00  0.00     0.000 C 
ATOM     37  C   UNL d   1      18.055 -20.926   0.932  0.00  0.00     0.003 C 
ATOM     38  C   UNL d   1      18.652 -20.430  -0.231  0.00  0.00     0.037 C 
ENDBRANCH  32  33
ENDBRANCH  31  32
ENDBRANCH  30  31
ENDBRANCH  29  30
ENDBRANCH  27  29
ENDBRANCH   2  23
TORSDOF 11
ENDMDL
MODEL 9
REMARK VINA RESULT:    -9.506      2.441      4.128
REMARK INTER + INTRA:         -16.341
REMARK INTER:                 -12.788
REMARK INTRA:                  -3.553
REMARK CONF_INDEPENDENT:        3.281
REMARK UNBOUND:                -3.553
REMARK  11 active torsions:
REMARK  status: ('A' for Active; 'I' for Inactive)
REMARK    1  A    between atoms: C_2  and  C_3 
REMARK       I    between atoms: C_2  and  N_13 
REMARK    2  A    between atoms: C_3  and  N_4 
REMARK    3  A    between atoms: N_13  and  N_14 
REMARK    4  A    between atoms: N_14  and  C_15 
REMARK    5  A    between atoms: C_15  and  N_17 
REMARK       I    between atoms: N_17  and  C_18 
REMARK    6  A    between atoms: C_18  and  C_20 
REMARK    7  A    between atoms: C_24  and  O_25 
REMARK    8  A    between atoms: O_25  and  C_26 
REMARK    9  A    between atoms: C_26  and  C_27 
REMARK   10  A    between atoms: C_27  and  O_28 
REMARK   11  A    between atoms: O_28  and  C_29 
ROOT
ATOM      1  N   UNL d   1      28.871 -15.255  -4.706  0.00  0.00    -0.298 N 
ATOM      2  C   UNL d   1      27.569 -15.557  -4.240  0.00  0.00     0.258 C 
ATOM      3  O   UNL d   1      26.551 -15.575  -4.938  0.00  0.00    -0.267 OA
ATOM      4  H   UNL d   1      29.613 -15.338  -4.025  0.00  0.00     0.171 HD
ENDROOT
BRANCH   1   5
ATOM      5  C   UNL d   1      29.243 -14.957  -6.042  0.00  0.00     0.193 C 
ATOM      6  S   UNL d   1      30.779 -15.207  -6.696  0.00  0.00    -0.039 SA
BRANCH   5   7
ATOM      7  N   UNL d   1      28.210 -14.417  -6.847  0.00  0.00    -0.273 N 
ATOM      8  H   UNL d   1      27.224 -14.565  -6.679  0.00  0.00     0.189 HD
BRANCH   7   9
ATOM      9  N   UNL d   1      28.588 -13.602  -7.969  0.00  0.00    -0.266 N 
ATOM     10  C   UNL d   1      28.301 -12.280  -8.240  0.00  0.00     0.254 C 
ATOM     11  O   UNL d   1      28.732 -11.794  -9.288  0.00  0.00    -0.270 OA
ATOM     12  H   UNL d   1      29.156 -14.074  -8.681  0.00  0.00     0.190 HD
BRANCH  10  13
ATOM     13  C   UNL d   1      27.465 -11.500  -7.248  0.00  0.00     0.233 C 
BRANCH  13  14
ATOM     14  N   UNL d   1      27.849 -11.693  -5.845  0.00  0.00    -0.347 N 
ATOM     15  C   UNL d   1      29.083 -11.354  -5.335  0.00  0.00     0.092 A 
ATOM     16  C   UNL d   1      29.085 -11.625  -3.987  0.00  0.00     0.031 A 
ATOM     17  C   UNL d   1      27.800 -12.115  -3.643  0.00  0.00    -0.008 A 
ATOM     18  C   UNL d   1      27.229 -12.538  -2.426  0.00  0.00     0.014 A 
ATOM     19  C   UNL d   1      27.033 -12.146  -4.817  0.00  0.00     0.044 A 
ATOM     20  C   UNL d   1      25.904 -12.976  -2.401  0.00  0.00     0.001 A 
ATOM     21  C   UNL d   1      25.153 -13.001  -3.572  0.00  0.00     0.002 A 
ATOM     22  C   UNL d   1      25.700 -12.590  -4.795  0.00  0.00     0.030 A 
ENDBRANCH  13  14
ENDBRANCH  10  13
ENDBRANCH   7   9
ENDBRANCH   5   7
ENDBRANCH   1   5
BRANCH   2  23
ATOM     23  C   UNL d   1      27.342 -15.938  -2.814  0.00  0.00     0.035 C 
ATOM     24  C   UNL d   1      28.350 -15.889  -1.852  0.00  0.00     0.017 C 
ATOM     25  C   UNL d   1      28.042 -16.190  -0.518  0.00  0.00     0.004 C 
ATOM     26  C   UNL d   1      26.762 -16.641  -0.165  0.00  0.00     0.037 C 
ATOM     27  C   UNL d   1      25.734 -16.666  -1.110  0.00  0.00     0.069 C 
ATOM     28  C   UNL d   1      26.017 -16.227  -2.407  0.00  0.00     0.053 C 
BRANCH  27  29
ATOM     29  O   UNL d   1      24.522 -17.137  -0.663  0.00  0.00    -0.349 OA
BRANCH  29  30
ATOM     30  C   UNL d   1      23.653 -17.725  -1.643  0.00  0.00     0.202 C 
BRANCH  30  31
ATOM     31  C   UNL d   1      22.927 -18.948  -1.067  0.00  0.00     0.202 C 
BRANCH  31  32
ATOM     32  O   UNL d   1      21.562 -18.962  -1.537  0.00  0.00    -0.349 OA
BRANCH  32  33
ATOM     33  C   UNL d   1      20.657 -19.335  -0.574  0.00  0.00     0.068 C 
ATOM     34  C   UNL d   1      20.955 -19.325   0.788  0.00  0.00     0.037 C 
ATOM     35  C   UNL d   1      20.057 -19.875   1.705  0.00  0.00     0.003 C 
ATOM     36  C   UNL d   1      18.803 -20.305   1.280  0.00  0.00     0.000 C 
ATOM     37  C   UNL d   1      18.436 -20.150  -0.056  0.00  0.00     0.003 C 
ATOM     38  C   UNL d   1      19.376 -19.700  -0.990  0.00  0.00     0.037 C 
ENDBRANCH  32  33
ENDBRANCH  31  32
ENDBRANCH  30  31
ENDBRANCH  29  30
ENDBRANCH  27  29
ENDBRANCH   2  23
TORSDOF 11
ENDMDL
