MODEL 1
REMARK VINA RESULT:   -10.802      0.000      0.000
REMARK INTER + INTRA:         -15.171
REMARK INTER:                 -12.890
REMARK INTRA:                  -2.281
REMARK CONF_INDEPENDENT:        2.088
REMARK UNBOUND:                -2.281
REMARK  7 active torsions:
REMARK  status: ('A' for Active; 'I' for Inactive)
REMARK    1  A    between atoms: C_2  and  C_3 
REMARK    2  A    between atoms: C_3  and  N_6 
REMARK    3  A    between atoms: C_10  and  C_11 
REMARK    4  A    between atoms: C_11  and  C_12 
REMARK    5  A    between atoms: C_11  and  N_26 
REMARK    6  A    between atoms: N_29  and  C_30 
REMARK    7  A    between atoms: C_33  and  O_34 
ROOT
ATOM      1  C   UNL d   1      28.547 -15.838  -0.496  0.00  0.00     0.299 C 
ENDROOT
BRANCH   1   2
ATOM      2  C   UNL d   1      29.451 -16.832  -1.290  0.00  0.00     0.184 C 
ATOM      3  N   UNL d   1      30.079 -17.797  -0.631  0.00  0.00    -0.111 NA
ATOM      4  N   UNL d   1      30.979 -18.353  -1.483  0.00  0.00    -0.023 NA
ATOM      5  N   UNL d   1      30.890 -17.824  -2.688  0.00  0.00    -0.043 NA
ATOM      6  N   UNL d   1      29.840 -16.970  -2.671  0.00  0.00    -0.223 N 
BRANCH   6   7
ATOM      7  C   UNL d   1      29.720 -16.027  -3.864  0.00  0.00     0.051 C 
ATOM      8  C   UNL d   1      29.676 -16.626  -5.220  0.00  0.00     0.040 C 
ATOM      9  C   UNL d   1      31.069 -15.351  -3.666  0.00  0.00     0.040 C 
BRANCH   7  10
ATOM     10  C   UNL d   1      28.299 -15.201  -3.912  0.00  0.00     0.028 C 
ATOM     11  C   UNL d   1      26.752 -15.207  -4.621  0.00  0.00     0.007 C 
ENDBRANCH   7  10
ENDBRANCH   6   7
ENDBRANCH   1   2
BRANCH   1  12
ATOM     12  C   UNL d   1      27.076 -16.155  -0.387  0.00  0.00     0.049 C 
ATOM     13  C   UNL d   1      26.538 -17.276   0.152  0.00  0.00     0.029 C 
ATOM     14  C   UNL d   1      25.120 -17.611  -0.117  0.00  0.00    -0.006 C 
ATOM     15  C   UNL d   1      24.401 -18.781   0.227  0.00  0.00     0.053 C 
ATOM     16  C   UNL d   1      24.437 -16.670  -0.905  0.00  0.00     0.048 C 
ATOM     17  C   UNL d   1      23.054 -18.807  -0.166  0.00  0.00     0.105 C 
ATOM     18  C   UNL d   1      22.425 -17.615  -0.342  0.00  0.00     0.107 C 
ATOM     19  O   UNL d   1      22.199 -19.745  -0.752  0.00  0.00    -0.323 OA
ATOM     20  C   UNL d   1      23.085 -16.646  -0.993  0.00  0.00     0.070 C 
ATOM     21  O   UNL d   1      21.089 -17.689  -0.520  0.00  0.00    -0.323 OA
ATOM     22  C   UNL d   1      21.196 -18.821  -1.364  0.00  0.00     0.352 C 
ATOM     23  N   UNL d   1      25.039 -15.624  -1.543  0.00  0.00    -0.322 N 
ATOM     24  C   UNL d   1      26.245 -15.145  -1.131  0.00  0.00     0.254 C 
ATOM     25  H   UNL d   1      24.470 -14.966  -2.062  0.00  0.00     0.169 HD
ATOM     26  O   UNL d   1      26.603 -14.081  -1.461  0.00  0.00    -0.268 OA
ENDBRANCH   1  12
BRANCH   1  27
ATOM     27  N   UNL d   1      28.971 -15.195   0.897  0.00  0.00    -0.052 N 
ATOM     28  C   UNL d   1      29.984 -13.839   0.855  0.00  0.00     0.256 C 
ATOM     29  C   UNL d   1      29.720 -12.635   1.857  0.00  0.00     0.150 C 
ATOM     30  N   UNL d   1      28.292 -12.436   2.178  0.00  0.00    -0.378 N 
ATOM     31  C   UNL d   1      27.842 -14.045   2.837  0.00  0.00     0.150 C 
ATOM     32  C   UNL d   1      27.783 -15.261   1.789  0.00  0.00     0.256 C 
ATOM     33  H   UNL d   1      29.579 -15.883   1.353  0.00  0.00     0.281 HD
BRANCH  30  34
ATOM     34  C   UNL d   1      27.730 -10.919   2.102  0.00  0.00     0.030 C 
ATOM     35  C   UNL d   1      27.614 -10.081   0.884  0.00  0.00     0.032 C 
ATOM     36  C   UNL d   1      26.689  -8.973   0.641  0.00  0.00     0.039 C 
ATOM     37  C   UNL d   1      25.896  -8.483   1.641  0.00  0.00     0.068 C 
ATOM     38  C   UNL d   1      25.968  -9.171   2.842  0.00  0.00     0.039 C 
ATOM     39  C   UNL d   1      26.905 -10.281   3.091  0.00  0.00     0.032 C 
BRANCH  37  40
ATOM     40  O   UNL d   1      25.156  -7.371   1.354  0.00  0.00    -0.356 OA
ATOM     41  C   UNL d   1      25.155  -6.996  -0.022  0.00  0.00     0.210 C 
ENDBRANCH  37  40
ENDBRANCH  30  34
ENDBRANCH   1  27
TORSDOF 7
ENDMDL
MODEL 2
REMARK VINA RESULT:   -10.522      3.311      8.547
REMARK INTER + INTRA:         -15.340
REMARK INTER:                 -12.610
REMARK INTRA:                  -2.729
REMARK CONF_INDEPENDENT:        2.088
REMARK UNBOUND:                -2.729
REMARK  7 active torsions:
REMARK  status: ('A' for Active; 'I' for Inactive)
REMARK    1  A    between atoms: C_2  and  C_3 
REMARK    2  A    between atoms: C_3  and  N_6 
REMARK    3  A    between atoms: C_10  and  C_11 
REMARK    4  A    between atoms: C_11  and  C_12 
REMARK    5  A    between atoms: C_11  and  N_26 
REMARK    6  A    between atoms: N_29  and  C_30 
REMARK    7  A    between atoms: C_33  and  O_34 
ROOT
ATOM      1  C   UNL d   1      28.744 -14.142   0.917  0.00  0.00     0.299 C 
ENDROOT
BRANCH   1   2
ATOM      2  C   UNL d   1      27.952 -12.966   0.266  0.00  0.00     0.184 C 
ATOM      3  N   UNL d   1      27.292 -13.182  -0.864  0.00  0.00    -0.111 NA
ATOM      4  N   UNL d   1      26.910 -11.973  -1.352  0.00  0.00    -0.023 NA
ATOM      5  N   UNL d   1      27.237 -10.998  -0.526  0.00  0.00    -0.043 NA
ATOM      6  N   UNL d   1      27.757 -11.573   0.583  0.00  0.00    -0.223 N 
BRANCH   6   7
ATOM      7  C   UNL d   1      28.471 -10.639   1.554  0.00  0.00     0.051 C 
ATOM      8  C   UNL d   1      28.489  -9.190   1.236  0.00  0.00     0.040 C 
ATOM      9  C   UNL d   1      29.864 -11.211   1.327  0.00  0.00     0.040 C 
BRANCH   7  10
ATOM     10  C   UNL d   1      27.763 -10.559   3.036  0.00  0.00     0.028 C 
ATOM     11  C   UNL d   1      27.480  -9.511   4.347  0.00  0.00     0.007 C 
ENDBRANCH   7  10
ENDBRANCH   6   7
ENDBRANCH   1   2
BRANCH   1  12
ATOM     12  C   UNL d   1      28.876 -14.155   2.420  0.00  0.00     0.049 C 
ATOM     13  C   UNL d   1      27.915 -13.803   3.311  0.00  0.00     0.029 C 
ATOM     14  C   UNL d   1      28.285 -13.533   4.719  0.00  0.00    -0.006 C 
ATOM     15  C   UNL d   1      27.481 -13.029   5.770  0.00  0.00     0.053 C 
ATOM     16  C   UNL d   1      29.647 -13.716   5.012  0.00  0.00     0.048 C 
ATOM     17  C   UNL d   1      28.119 -12.881   7.010  0.00  0.00     0.105 C 
ATOM     18  C   UNL d   1      29.201 -13.664   7.260  0.00  0.00     0.107 C 
ATOM     19  O   UNL d   1      28.156 -11.903   8.008  0.00  0.00    -0.323 OA
ATOM     20  C   UNL d   1      30.106 -13.817   6.282  0.00  0.00     0.070 C 
ATOM     21  O   UNL d   1      29.655 -13.632   8.531  0.00  0.00    -0.323 OA
ATOM     22  C   UNL d   1      29.474 -12.232   8.633  0.00  0.00     0.352 C 
ATOM     23  N   UNL d   1      30.609 -13.937   4.069  0.00  0.00    -0.322 N 
ATOM     24  C   UNL d   1      30.294 -14.433   2.840  0.00  0.00     0.254 C 
ATOM     25  H   UNL d   1      31.564 -14.097   4.365  0.00  0.00     0.169 HD
ATOM     26  O   UNL d   1      31.121 -14.911   2.165  0.00  0.00    -0.268 OA
ENDBRANCH   1  12
BRANCH   1  27
ATOM     27  N   UNL d   1      28.579 -15.660   0.470  0.00  0.00    -0.052 N 
ATOM     28  C   UNL d   1      27.503 -16.622   1.354  0.00  0.00     0.256 C 
ATOM     29  C   UNL d   1      26.564 -17.650   0.588  0.00  0.00     0.150 C 
ATOM     30  N   UNL d   1      26.155 -17.190  -0.754  0.00  0.00    -0.378 N 
ATOM     31  C   UNL d   1      27.745 -16.927  -1.545  0.00  0.00     0.150 C 
ATOM     32  C   UNL d   1      28.617 -15.685  -1.017  0.00  0.00     0.256 C 
ATOM     33  H   UNL d   1      29.473 -16.116   0.681  0.00  0.00     0.281 HD
BRANCH  30  34
ATOM     34  C   UNL d   1      24.585 -17.325  -1.127  0.00  0.00     0.030 C 
ATOM     35  C   UNL d   1      23.837 -18.586  -1.353  0.00  0.00     0.032 C 
ATOM     36  C   UNL d   1      22.403 -18.822  -1.180  0.00  0.00     0.039 C 
ATOM     37  C   UNL d   1      21.543 -17.790  -0.919  0.00  0.00     0.068 C 
ATOM     38  C   UNL d   1      22.143 -16.554  -0.740  0.00  0.00     0.039 C 
ATOM     39  C   UNL d   1      23.585 -16.313  -0.921  0.00  0.00     0.032 C 
BRANCH  37  40
ATOM     40  O   UNL d   1      20.210 -18.088  -0.896  0.00  0.00    -0.356 OA
ATOM     41  C   UNL d   1      19.906 -19.426  -0.508  0.00  0.00     0.210 C 
ENDBRANCH  37  40
ENDBRANCH  30  34
ENDBRANCH   1  27
TORSDOF 7
ENDMDL
MODEL 3
REMARK VINA RESULT:   -10.111      3.015      8.054
REMARK INTER + INTRA:         -15.054
REMARK INTER:                 -12.199
REMARK INTRA:                  -2.855
REMARK CONF_INDEPENDENT:        2.088
REMARK UNBOUND:                -2.855
REMARK  7 active torsions:
REMARK  status: ('A' for Active; 'I' for Inactive)
REMARK    1  A    between atoms: C_2  and  C_3 
REMARK    2  A    between atoms: C_3  and  N_6 
REMARK    3  A    between atoms: C_10  and  C_11 
REMARK    4  A    between atoms: C_11  and  C_12 
REMARK    5  A    between atoms: C_11  and  N_26 
REMARK    6  A    between atoms: N_29  and  C_30 
REMARK    7  A    between atoms: C_33  and  O_34 
ROOT
ATOM      1  C   UNL d   1      27.727 -13.510  -3.066  0.00  0.00     0.299 C 
ENDROOT
BRANCH   1   2
ATOM      2  C   UNL d   1      27.239 -14.275  -4.337  0.00  0.00     0.184 C 
ATOM      3  N   UNL d   1      26.004 -14.757  -4.363  0.00  0.00    -0.111 NA
ATOM      4  N   UNL d   1      25.910 -15.579  -5.440  0.00  0.00    -0.023 NA
ATOM      5  N   UNL d   1      27.024 -15.575  -6.146  0.00  0.00    -0.043 NA
ATOM      6  N   UNL d   1      27.844 -14.653  -5.589  0.00  0.00    -0.223 N 
BRANCH   6   7
ATOM      7  C   UNL d   1      29.296 -14.676  -6.055  0.00  0.00     0.051 C 
ATOM      8  C   UNL d   1      30.303 -13.973  -5.224  0.00  0.00     0.040 C 
ATOM      9  C   UNL d   1      29.065 -13.878  -7.330  0.00  0.00     0.040 C 
BRANCH   7  10
ATOM     10  C   UNL d   1      29.970 -16.176  -6.043  0.00  0.00     0.028 C 
ATOM     11  C   UNL d   1      30.155 -17.571  -5.085  0.00  0.00     0.007 C 
ENDBRANCH   7  10
ENDBRANCH   6   7
ENDBRANCH   1   2
BRANCH   1  12
ATOM     12  C   UNL d   1      27.257 -12.089  -2.875  0.00  0.00     0.049 C 
ATOM     13  C   UNL d   1      26.210 -11.501  -3.506  0.00  0.00     0.029 C 
ATOM     14  C   UNL d   1      26.078 -10.027  -3.485  0.00  0.00    -0.006 C 
ATOM     15  C   UNL d   1      25.155  -9.206  -4.178  0.00  0.00     0.053 C 
ATOM     16  C   UNL d   1      27.070  -9.360  -2.748  0.00  0.00     0.048 C 
ATOM     17  C   UNL d   1      25.275  -7.827  -3.954  0.00  0.00     0.105 C 
ATOM     18  C   UNL d   1      25.840  -7.426  -2.784  0.00  0.00     0.107 C 
ATOM     19  O   UNL d   1      25.256  -6.676  -4.747  0.00  0.00    -0.323 OA
ATOM     20  C   UNL d   1      26.940  -8.067  -2.364  0.00  0.00     0.070 C 
ATOM     21  O   UNL d   1      25.751  -6.104  -2.524  0.00  0.00    -0.323 OA
ATOM     22  C   UNL d   1      26.034  -5.752  -3.865  0.00  0.00     0.352 C 
ATOM     23  N   UNL d   1      28.182  -9.966  -2.240  0.00  0.00    -0.322 N 
ATOM     24  C   UNL d   1      28.216 -11.310  -2.017  0.00  0.00     0.254 C 
ATOM     25  H   UNL d   1      28.833  -9.423  -1.686  0.00  0.00     0.169 HD
ATOM     26  O   UNL d   1      29.023 -11.771  -1.307  0.00  0.00    -0.268 OA
ENDBRANCH   1  12
BRANCH   1  27
ATOM     27  N   UNL d   1      27.773 -14.166  -1.617  0.00  0.00    -0.052 N 
ATOM     28  C   UNL d   1      26.519 -13.781  -0.546  0.00  0.00     0.256 C 
ATOM     29  C   UNL d   1      25.905 -14.917   0.379  0.00  0.00     0.150 C 
ATOM     30  N   UNL d   1      25.909 -16.254  -0.246  0.00  0.00    -0.378 N 
ATOM     31  C   UNL d   1      27.653 -16.476  -0.614  0.00  0.00     0.150 C 
ATOM     32  C   UNL d   1      28.266 -15.559  -1.781  0.00  0.00     0.256 C 
ATOM     33  H   UNL d   1      28.577 -13.744  -1.141  0.00  0.00     0.281 HD
BRANCH  30  34
ATOM     34  C   UNL d   1      24.537 -17.109  -0.154  0.00  0.00     0.030 C 
ATOM     35  C   UNL d   1      23.170 -16.620  -0.462  0.00  0.00     0.032 C 
ATOM     36  C   UNL d   1      22.013 -17.404  -0.895  0.00  0.00     0.039 C 
ATOM     37  C   UNL d   1      22.052 -18.771  -0.912  0.00  0.00     0.068 C 
ATOM     38  C   UNL d   1      23.278 -19.330  -0.589  0.00  0.00     0.039 C 
ATOM     39  C   UNL d   1      24.442 -18.543  -0.146  0.00  0.00     0.032 C 
BRANCH  37  40
ATOM     40  O   UNL d   1      20.887 -19.419  -1.212  0.00  0.00    -0.356 OA
ATOM     41  C   UNL d   1      19.958 -19.503  -0.133  0.00  0.00     0.210 C 
ENDBRANCH  37  40
ENDBRANCH  30  34
ENDBRANCH   1  27
TORSDOF 7
ENDMDL
MODEL 4
REMARK VINA RESULT:   -10.015      3.174      7.722
REMARK INTER + INTRA:         -14.670
REMARK INTER:                 -12.103
REMARK INTRA:                  -2.567
REMARK CONF_INDEPENDENT:        2.088
REMARK UNBOUND:                -2.567
REMARK  7 active torsions:
REMARK  status: ('A' for Active; 'I' for Inactive)
REMARK    1  A    between atoms: C_2  and  C_3 
REMARK    2  A    between atoms: C_3  and  N_6 
REMARK    3  A    between atoms: C_10  and  C_11 
REMARK    4  A    between atoms: C_11  and  C_12 
REMARK    5  A    between atoms: C_11  and  N_26 
REMARK    6  A    between atoms: N_29  and  C_30 
REMARK    7  A    between atoms: C_33  and  O_34 
ROOT
ATOM      1  C   UNL d   1      30.268 -14.233  -0.095  0.00  0.00     0.299 C 
ENDROOT
BRANCH   1   2
ATOM      2  C   UNL d   1      30.050 -12.827  -0.736  0.00  0.00     0.184 C 
ATOM      3  N   UNL d   1      31.108 -12.081  -1.027  0.00  0.00    -0.111 NA
ATOM      4  N   UNL d   1      30.658 -10.834  -1.327  0.00  0.00    -0.023 NA
ATOM      5  N   UNL d   1      29.340 -10.784  -1.313  0.00  0.00    -0.043 NA
ATOM      6  N   UNL d   1      28.896 -12.045  -1.101  0.00  0.00    -0.223 N 
BRANCH   6   7
ATOM      7  C   UNL d   1      27.417 -12.188  -0.757  0.00  0.00     0.051 C 
ATOM      8  C   UNL d   1      26.854 -13.557  -0.667  0.00  0.00     0.040 C 
ATOM      9  C   UNL d   1      26.895 -11.522  -2.023  0.00  0.00     0.040 C 
BRANCH   7  10
ATOM     10  C   UNL d   1      27.037 -11.664   0.755  0.00  0.00     0.028 C 
ATOM     11  C   UNL d   1      26.806 -10.256   1.683  0.00  0.00     0.007 C 
ENDBRANCH   7  10
ENDBRANCH   6   7
ENDBRANCH   1   2
BRANCH   1  12
ATOM     12  C   UNL d   1      29.960 -14.392   1.374  0.00  0.00     0.049 C 
ATOM     13  C   UNL d   1      28.752 -14.212   1.962  0.00  0.00     0.029 C 
ATOM     14  C   UNL d   1      28.668 -14.061   3.433  0.00  0.00    -0.006 C 
ATOM     15  C   UNL d   1      27.546 -13.735   4.232  0.00  0.00     0.053 C 
ATOM     16  C   UNL d   1      29.898 -14.167   4.103  0.00  0.00     0.048 C 
ATOM     17  C   UNL d   1      27.778 -13.668   5.613  0.00  0.00     0.105 C 
ATOM     18  C   UNL d   1      28.818 -14.386   6.113  0.00  0.00     0.107 C 
ATOM     19  O   UNL d   1      27.422 -12.799   6.649  0.00  0.00    -0.323 OA
ATOM     20  C   UNL d   1      29.979 -14.365   5.441  0.00  0.00     0.070 C 
ATOM     21  O   UNL d   1      28.879 -14.452   7.460  0.00  0.00    -0.323 OA
ATOM     22  C   UNL d   1      28.530 -13.088   7.611  0.00  0.00     0.352 C 
ATOM     23  N   UNL d   1      31.109 -14.214   3.475  0.00  0.00    -0.322 N 
ATOM     24  C   UNL d   1      31.217 -14.602   2.174  0.00  0.00     0.254 C 
ATOM     25  H   UNL d   1      31.950 -14.329   4.029  0.00  0.00     0.169 HD
ATOM     26  O   UNL d   1      32.250 -14.940   1.741  0.00  0.00    -0.268 OA
ENDBRANCH   1  12
BRANCH   1  27
ATOM     27  N   UNL d   1      29.824 -15.590  -0.795  0.00  0.00    -0.052 N 
ATOM     28  C   UNL d   1      29.312 -16.855   0.207  0.00  0.00     0.256 C 
ATOM     29  C   UNL d   1      28.065 -17.739  -0.226  0.00  0.00     0.150 C 
ATOM     30  N   UNL d   1      27.046 -16.990  -0.989  0.00  0.00    -0.378 N 
ATOM     31  C   UNL d   1      28.013 -16.369  -2.368  0.00  0.00     0.150 C 
ATOM     32  C   UNL d   1      29.091 -15.224  -2.036  0.00  0.00     0.256 C 
ATOM     33  H   UNL d   1      30.676 -15.992  -1.200  0.00  0.00     0.281 HD
BRANCH  30  34
ATOM     34  C   UNL d   1      25.504 -17.184  -0.536  0.00  0.00     0.030 C 
ATOM     35  C   UNL d   1      24.381 -16.251  -0.803  0.00  0.00     0.032 C 
ATOM     36  C   UNL d   1      22.956 -16.566  -0.896  0.00  0.00     0.039 C 
ATOM     37  C   UNL d   1      22.484 -17.810  -0.576  0.00  0.00     0.068 C 
ATOM     38  C   UNL d   1      23.456 -18.746  -0.262  0.00  0.00     0.039 C 
ATOM     39  C   UNL d   1      24.891 -18.429  -0.160  0.00  0.00     0.032 C 
BRANCH  37  40
ATOM     40  O   UNL d   1      21.128 -17.974  -0.575  0.00  0.00    -0.356 OA
ATOM     41  C   UNL d   1      20.693 -19.331  -0.497  0.00  0.00     0.210 C 
ENDBRANCH  37  40
ENDBRANCH  30  34
ENDBRANCH   1  27
TORSDOF 7
ENDMDL
MODEL 5
REMARK VINA RESULT:    -9.817      1.572      1.963
REMARK INTER + INTRA:         -14.505
REMARK INTER:                 -11.906
REMARK INTRA:                  -2.599
REMARK CONF_INDEPENDENT:        2.088
REMARK UNBOUND:                -2.599
REMARK  7 active torsions:
REMARK  status: ('A' for Active; 'I' for Inactive)
REMARK    1  A    between atoms: C_2  and  C_3 
REMARK    2  A    between atoms: C_3  and  N_6 
REMARK    3  A    between atoms: C_10  and  C_11 
REMARK    4  A    between atoms: C_11  and  C_12 
REMARK    5  A    between atoms: C_11  and  N_26 
REMARK    6  A    between atoms: N_29  and  C_30 
REMARK    7  A    between atoms: C_33  and  O_34 
ROOT
ATOM      1  C   UNL d   1      28.713 -15.628  -0.880  0.00  0.00     0.299 C 
ENDROOT
BRANCH   1   2
ATOM      2  C   UNL d   1      29.837 -15.868  -1.936  0.00  0.00     0.184 C 
ATOM      3  N   UNL d   1      31.018 -16.313  -1.530  0.00  0.00    -0.111 NA
ATOM      4  N   UNL d   1      31.879 -16.197  -2.574  0.00  0.00    -0.023 NA
ATOM      5  N   UNL d   1      31.263 -15.764  -3.658  0.00  0.00    -0.043 NA
ATOM      6  N   UNL d   1      29.945 -15.688  -3.362  0.00  0.00    -0.223 N 
BRANCH   6   7
ATOM      7  C   UNL d   1      29.073 -14.939  -4.365  0.00  0.00     0.051 C 
ATOM      8  C   UNL d   1      29.484 -14.954  -5.790  0.00  0.00     0.040 C 
ATOM      9  C   UNL d   1      29.331 -13.552  -3.792  0.00  0.00     0.040 C 
BRANCH   7  10
ATOM     10  C   UNL d   1      27.566 -15.575  -4.535  0.00  0.00     0.028 C 
ATOM     11  C   UNL d   1      25.959 -15.167  -4.919  0.00  0.00     0.007 C 
ENDBRANCH   7  10
ENDBRANCH   6   7
ENDBRANCH   1   2
BRANCH   1  12
ATOM     12  C   UNL d   1      27.438 -16.422  -1.015  0.00  0.00     0.049 C 
ATOM     13  C   UNL d   1      26.250 -15.956  -1.474  0.00  0.00     0.029 C 
ATOM     14  C   UNL d   1      25.014 -16.734  -1.229  0.00  0.00    -0.006 C 
ATOM     15  C   UNL d   1      23.670 -16.376  -1.496  0.00  0.00     0.053 C 
ATOM     16  C   UNL d   1      25.211 -17.949  -0.553  0.00  0.00     0.048 C 
ATOM     17  C   UNL d   1      22.704 -17.334  -1.153  0.00  0.00     0.105 C 
ATOM     18  C   UNL d   1      23.095 -18.635  -1.106  0.00  0.00     0.107 C 
ATOM     19  O   UNL d   1      21.458 -17.319  -0.520  0.00  0.00    -0.323 OA
ATOM     20  C   UNL d   1      24.266 -18.919  -0.518  0.00  0.00     0.070 C 
ATOM     21  O   UNL d   1      22.095 -19.532  -0.972  0.00  0.00    -0.323 OA
ATOM     22  C   UNL d   1      21.409 -18.730  -0.029  0.00  0.00     0.352 C 
ATOM     23  N   UNL d   1      26.395 -18.325   0.013  0.00  0.00    -0.322 N 
ATOM     24  C   UNL d   1      27.577 -17.785  -0.394  0.00  0.00     0.254 C 
ATOM     25  H   UNL d   1      26.467 -19.236   0.451  0.00  0.00     0.169 HD
ATOM     26  O   UNL d   1      28.588 -18.319  -0.145  0.00  0.00    -0.268 OA
ENDBRANCH   1  12
BRANCH   1  27
ATOM     27  N   UNL d   1      28.996 -15.496   0.680  0.00  0.00    -0.052 N 
ATOM     28  C   UNL d   1      30.241 -14.455   1.164  0.00  0.00     0.256 C 
ATOM     29  C   UNL d   1      30.037 -13.534   2.442  0.00  0.00     0.150 C 
ATOM     30  N   UNL d   1      28.640 -13.099   2.640  0.00  0.00    -0.378 N 
ATOM     31  C   UNL d   1      27.781 -14.673   2.731  0.00  0.00     0.150 C 
ATOM     32  C   UNL d   1      27.678 -15.518   1.368  0.00  0.00     0.256 C 
ATOM     33  H   UNL d   1      29.371 -16.404   0.978  0.00  0.00     0.281 HD
BRANCH  30  34
ATOM     34  C   UNL d   1      28.400 -11.529   2.955  0.00  0.00     0.030 C 
ATOM     35  C   UNL d   1      28.548 -10.404   2.000  0.00  0.00     0.032 C 
ATOM     36  C   UNL d   1      27.884  -9.100   2.039  0.00  0.00     0.039 C 
ATOM     37  C   UNL d   1      27.131  -8.722   3.117  0.00  0.00     0.068 C 
ATOM     38  C   UNL d   1      26.974  -9.691   4.094  0.00  0.00     0.039 C 
ATOM     39  C   UNL d   1      27.647 -11.002   4.060  0.00  0.00     0.032 C 
BRANCH  37  40
ATOM     40  O   UNL d   1      26.654  -7.442   3.119  0.00  0.00    -0.356 OA
ATOM     41  C   UNL d   1      26.269  -6.949   1.837  0.00  0.00     0.210 C 
ENDBRANCH  37  40
ENDBRANCH  30  34
ENDBRANCH   1  27
TORSDOF 7
ENDMDL
MODEL 6
REMARK VINA RESULT:    -9.771      3.138      4.599
REMARK INTER + INTRA:         -14.355
REMARK INTER:                 -11.859
REMARK INTRA:                  -2.496
REMARK CONF_INDEPENDENT:        2.088
REMARK UNBOUND:                -2.496
REMARK  7 active torsions:
REMARK  status: ('A' for Active; 'I' for Inactive)
REMARK    1  A    between atoms: C_2  and  C_3 
REMARK    2  A    between atoms: C_3  and  N_6 
REMARK    3  A    between atoms: C_10  and  C_11 
REMARK    4  A    between atoms: C_11  and  C_12 
REMARK    5  A    between atoms: C_11  and  N_26 
REMARK    6  A    between atoms: N_29  and  C_30 
REMARK    7  A    between atoms: C_33  and  O_34 
ROOT
ATOM      1  C   UNL d   1      27.521 -13.496  -3.708  0.00  0.00     0.299 C 
ENDROOT
BRANCH   1   2
ATOM      2  C   UNL d   1      27.819 -14.069  -5.129  0.00  0.00     0.184 C 
ATOM      3  N   UNL d   1      28.052 -15.368  -5.263  0.00  0.00    -0.111 NA
ATOM      4  N   UNL d   1      28.527 -15.570  -6.519  0.00  0.00    -0.023 NA
ATOM      5  N   UNL d   1      28.530 -14.450  -7.217  0.00  0.00    -0.043 NA
ATOM      6  N   UNL d   1      27.950 -13.501  -6.447  0.00  0.00    -0.223 N 
BRANCH   6   7
ATOM      7  C   UNL d   1      28.102 -12.060  -6.926  0.00  0.00     0.051 C 
ATOM      8  C   UNL d   1      28.416 -11.835  -8.358  0.00  0.00     0.040 C 
ATOM      9  C   UNL d   1      29.339 -11.748  -6.095  0.00  0.00     0.040 C 
BRANCH   7  10
ATOM     10  C   UNL d   1      26.714 -11.184  -6.835  0.00  0.00     0.028 C 
ATOM     11  C   UNL d   1      25.846 -10.121  -5.828  0.00  0.00     0.007 C 
ENDBRANCH   7  10
ENDBRANCH   6   7
ENDBRANCH   1   2
BRANCH   1  12
ATOM     12  C   UNL d   1      26.579 -14.270  -2.820  0.00  0.00     0.049 C 
ATOM     13  C   UNL d   1      26.916 -15.291  -1.994  0.00  0.00     0.029 C 
ATOM     14  C   UNL d   1      25.858 -16.176  -1.453  0.00  0.00    -0.006 C 
ATOM     15  C   UNL d   1      25.993 -17.363  -0.694  0.00  0.00     0.053 C 
ATOM     16  C   UNL d   1      24.552 -15.826  -1.834  0.00  0.00     0.048 C 
ATOM     17  C   UNL d   1      24.794 -17.987  -0.318  0.00  0.00     0.105 C 
ATOM     18  C   UNL d   1      23.681 -17.212  -0.228  0.00  0.00     0.107 C 
ATOM     19  O   UNL d   1      24.311 -19.298  -0.294  0.00  0.00    -0.323 OA
ATOM     20  C   UNL d   1      23.458 -16.315  -1.200  0.00  0.00     0.070 C 
ATOM     21  O   UNL d   1      22.606 -17.809   0.328  0.00  0.00    -0.323 OA
ATOM     22  C   UNL d   1      22.842 -19.025  -0.357  0.00  0.00     0.352 C 
ATOM     23  N   UNL d   1      24.256 -14.879  -2.771  0.00  0.00    -0.322 N 
ATOM     24  C   UNL d   1      25.146 -13.899  -3.091  0.00  0.00     0.254 C 
ATOM     25  H   UNL d   1      23.286 -14.657  -2.962  0.00  0.00     0.169 HD
ATOM     26  O   UNL d   1      24.787 -12.930  -3.640  0.00  0.00    -0.268 OA
ENDBRANCH   1  12
BRANCH   1  27
ATOM     27  N   UNL d   1      28.645 -12.897  -2.755  0.00  0.00    -0.052 N 
ATOM     28  C   UNL d   1      28.145 -11.854  -1.518  0.00  0.00     0.256 C 
ATOM     29  C   UNL d   1      28.817 -11.966  -0.083  0.00  0.00     0.150 C 
ATOM     30  N   UNL d   1      29.219 -13.340   0.277  0.00  0.00    -0.378 N 
ATOM     31  C   UNL d   1      30.319 -13.761  -1.078  0.00  0.00     0.150 C 
ATOM     32  C   UNL d   1      29.640 -13.976  -2.518  0.00  0.00     0.256 C 
ATOM     33  H   UNL d   1      29.201 -12.262  -3.337  0.00  0.00     0.281 HD
BRANCH  30  34
ATOM     34  C   UNL d   1      28.805 -13.861   1.753  0.00  0.00     0.030 C 
ATOM     35  C   UNL d   1      29.729 -14.170   2.872  0.00  0.00     0.032 C 
ATOM     36  C   UNL d   1      29.444 -14.135   4.307  0.00  0.00     0.039 C 
ATOM     37  C   UNL d   1      28.171 -13.946   4.771  0.00  0.00     0.068 C 
ATOM     38  C   UNL d   1      27.219 -13.698   3.795  0.00  0.00     0.039 C 
ATOM     39  C   UNL d   1      27.502 -13.740   2.349  0.00  0.00     0.032 C 
BRANCH  37  40
ATOM     40  O   UNL d   1      27.983 -14.052   6.119  0.00  0.00    -0.356 OA
ATOM     41  C   UNL d   1      29.184 -14.064   6.889  0.00  0.00     0.210 C 
ENDBRANCH  37  40
ENDBRANCH  30  34
ENDBRANCH   1  27
TORSDOF 7
ENDMDL
MODEL 7
REMARK VINA RESULT:    -9.450      3.883      7.979
REMARK INTER + INTRA:         -14.282
REMARK INTER:                 -11.538
REMARK INTRA:                  -2.744
REMARK CONF_INDEPENDENT:        2.088
REMARK UNBOUND:                -2.744
REMARK  7 active torsions:
REMARK  status: ('A' for Active; 'I' for Inactive)
REMARK    1  A    between atoms: C_2  and  C_3 
REMARK    2  A    between atoms: C_3  and  N_6 
REMARK    3  A    between atoms: C_10  and  C_11 
REMARK    4  A    between atoms: C_11  and  C_12 
REMARK    5  A    between atoms: C_11  and  N_26 
REMARK    6  A    between atoms: N_29  and  C_30 
REMARK    7  A    between atoms: C_33  and  O_34 
ROOT
ATOM      1  C   UNL d   1      29.091 -16.550  -2.795  0.00  0.00     0.299 C 
ENDROOT
BRANCH   1   2
ATOM      2  C   UNL d   1      29.126 -16.102  -4.289  0.00  0.00     0.184 C 
ATOM      3  N   UNL d   1      28.226 -15.229  -4.721  0.00  0.00    -0.111 NA
ATOM      4  N   UNL d   1      28.303 -15.200  -6.077  0.00  0.00    -0.023 NA
ATOM      5  N   UNL d   1      29.280 -15.969  -6.518  0.00  0.00    -0.043 NA
ATOM      6  N   UNL d   1      29.935 -16.443  -5.433  0.00  0.00    -0.223 N 
BRANCH   6   7
ATOM      7  C   UNL d   1      30.918 -17.581  -5.684  0.00  0.00     0.051 C 
ATOM      8  C   UNL d   1      30.626 -18.899  -5.070  0.00  0.00     0.040 C 
ATOM      9  C   UNL d   1      32.089 -16.943  -4.950  0.00  0.00     0.040 C 
BRANCH   7  10
ATOM     10  C   UNL d   1      30.994 -18.053  -7.258  0.00  0.00     0.028 C 
ATOM     11  C   UNL d   1      30.886 -19.417  -8.270  0.00  0.00     0.007 C 
ENDBRANCH   7  10
ENDBRANCH   6   7
ENDBRANCH   1   2
BRANCH   1  12
ATOM     12  C   UNL d   1      30.392 -16.963  -2.153  0.00  0.00     0.049 C 
ATOM     13  C   UNL d   1      30.808 -18.235  -1.934  0.00  0.00     0.029 C 
ATOM     14  C   UNL d   1      31.926 -18.489  -0.996  0.00  0.00    -0.006 C 
ATOM     15  C   UNL d   1      32.427 -19.726  -0.523  0.00  0.00     0.053 C 
ATOM     16  C   UNL d   1      32.494 -17.333  -0.436  0.00  0.00     0.048 C 
ATOM     17  C   UNL d   1      33.509 -19.647   0.366  0.00  0.00     0.105 C 
ATOM     18  C   UNL d   1      34.298 -18.542   0.301  0.00  0.00     0.107 C 
ATOM     19  O   UNL d   1      33.867 -20.263   1.568  0.00  0.00    -0.323 OA
ATOM     20  C   UNL d   1      33.699 -17.347   0.184  0.00  0.00     0.070 C 
ATOM     21  O   UNL d   1      35.434 -18.601   1.028  0.00  0.00    -0.323 OA
ATOM     22  C   UNL d   1      34.783 -19.220   2.122  0.00  0.00     0.352 C 
ATOM     23  N   UNL d   1      31.969 -16.081  -0.571  0.00  0.00    -0.322 N 
ATOM     24  C   UNL d   1      31.126 -15.773  -1.595  0.00  0.00     0.254 C 
ATOM     25  H   UNL d   1      32.461 -15.292  -0.168  0.00  0.00     0.169 HD
ATOM     26  O   UNL d   1      30.934 -14.658  -1.889  0.00  0.00    -0.268 OA
ENDBRANCH   1  12
BRANCH   1  27
ATOM     27  N   UNL d   1      28.262 -15.784  -1.673  0.00  0.00    -0.052 N 
ATOM     28  C   UNL d   1      26.759 -15.140  -2.116  0.00  0.00     0.256 C 
ATOM     29  C   UNL d   1      25.535 -15.253  -1.111  0.00  0.00     0.150 C 
ATOM     30  N   UNL d   1      25.559 -16.476  -0.283  0.00  0.00    -0.378 N 
ATOM     31  C   UNL d   1      27.155 -16.333   0.526  0.00  0.00     0.150 C 
ATOM     32  C   UNL d   1      28.453 -16.529  -0.401  0.00  0.00     0.256 C 
ATOM     33  H   UNL d   1      28.789 -14.930  -1.465  0.00  0.00     0.281 HD
BRANCH  30  34
ATOM     34  C   UNL d   1      24.177 -17.312  -0.173  0.00  0.00     0.030 C 
ATOM     35  C   UNL d   1      22.814 -16.810  -0.479  0.00  0.00     0.032 C 
ATOM     36  C   UNL d   1      21.645 -17.585  -0.895  0.00  0.00     0.039 C 
ATOM     37  C   UNL d   1      21.667 -18.953  -0.895  0.00  0.00     0.068 C 
ATOM     38  C   UNL d   1      22.888 -19.523  -0.572  0.00  0.00     0.039 C 
ATOM     39  C   UNL d   1      24.064 -18.744  -0.145  0.00  0.00     0.032 C 
BRANCH  37  40
ATOM     40  O   UNL d   1      20.492 -19.589  -1.180  0.00  0.00    -0.356 OA
ATOM     41  C   UNL d   1      19.441 -19.344  -0.248  0.00  0.00     0.210 C 
ENDBRANCH  37  40
ENDBRANCH  30  34
ENDBRANCH   1  27
TORSDOF 7
ENDMDL
MODEL 8
REMARK VINA RESULT:    -8.936      3.191      5.869
REMARK INTER + INTRA:         -14.354
REMARK INTER:                 -11.024
REMARK INTRA:                  -3.331
REMARK CONF_INDEPENDENT:        2.088
REMARK UNBOUND:                -3.331
REMARK  7 active torsions:
REMARK  status: ('A' for Active; 'I' for Inactive)
REMARK    1  A    between atoms: C_2  and  C_3 
REMARK    2  A    between atoms: C_3  and  N_6 
REMARK    3  A    between atoms: C_10  and  C_11 
REMARK    4  A    between atoms: C_11  and  C_12 
REMARK    5  A    between atoms: C_11  and  N_26 
REMARK    6  A    between atoms: N_29  and  C_30 
REMARK    7  A    between atoms: C_33  and  O_34 
ROOT
ATOM      1  C   UNL d   1      27.570 -15.553   0.662  0.00  0.00     0.299 C 
ENDROOT
BRANCH   1   2
ATOM      2  C   UNL d   1      27.425 -14.000   0.605  0.00  0.00     0.184 C 
ATOM      3  N   UNL d   1      27.011 -13.353   1.686  0.00  0.00    -0.111 NA
ATOM      4  N   UNL d   1      26.727 -12.078   1.315  0.00  0.00    -0.023 NA
ATOM      5  N   UNL d   1      27.021 -11.871   0.045  0.00  0.00    -0.043 NA
ATOM      6  N   UNL d   1      27.610 -12.999  -0.415  0.00  0.00    -0.223 N 
BRANCH   6   7
ATOM      7  C   UNL d   1      27.774 -13.103  -1.928  0.00  0.00     0.051 C 
ATOM      8  C   UNL d   1      27.727 -14.453  -2.541  0.00  0.00     0.040 C 
ATOM      9  C   UNL d   1      29.208 -12.593  -1.966  0.00  0.00     0.040 C 
BRANCH   7  10
ATOM     10  C   UNL d   1      26.549 -12.404  -2.774  0.00  0.00     0.028 C 
ATOM     11  C   UNL d   1      25.837 -12.334  -4.319  0.00  0.00     0.007 C 
ENDBRANCH   7  10
ENDBRANCH   6   7
ENDBRANCH   1   2
BRANCH   1  12
ATOM     12  C   UNL d   1      26.411 -16.387   0.173  0.00  0.00     0.049 C 
ATOM     13  C   UNL d   1      25.353 -15.942  -0.548  0.00  0.00     0.029 C 
ATOM     14  C   UNL d   1      24.137 -16.780  -0.659  0.00  0.00    -0.006 C 
ATOM     15  C   UNL d   1      22.886 -16.460  -1.239  0.00  0.00     0.053 C 
ATOM     16  C   UNL d   1      24.222 -18.023  -0.011  0.00  0.00     0.048 C 
ATOM     17  C   UNL d   1      21.915 -17.473  -1.195  0.00  0.00     0.105 C 
ATOM     18  C   UNL d   1      22.349 -18.758  -1.110  0.00  0.00     0.107 C 
ATOM     19  O   UNL d   1      20.552 -17.542  -0.896  0.00  0.00    -0.323 OA
ATOM     20  C   UNL d   1      23.350 -19.030  -0.260  0.00  0.00     0.070 C 
ATOM     21  O   UNL d   1      21.396 -19.700  -1.274  0.00  0.00    -0.323 OA
ATOM     22  C   UNL d   1      20.456 -18.981  -0.498  0.00  0.00     0.352 C 
ATOM     23  N   UNL d   1      25.245 -18.386   0.817  0.00  0.00    -0.322 N 
ATOM     24  C   UNL d   1      26.462 -17.778   0.746  0.00  0.00     0.254 C 
ATOM     25  H   UNL d   1      25.253 -19.317   1.216  0.00  0.00     0.169 HD
ATOM     26  O   UNL d   1      27.405 -18.285   1.216  0.00  0.00    -0.268 OA
ENDBRANCH   1  12
BRANCH   1  27
ATOM     27  N   UNL d   1      28.892 -16.323   0.223  0.00  0.00    -0.052 N 
ATOM     28  C   UNL d   1      28.782 -17.370  -1.103  0.00  0.00     0.256 C 
ATOM     29  C   UNL d   1      29.962 -17.411  -2.166  0.00  0.00     0.150 C 
ATOM     30  N   UNL d   1      30.636 -16.110  -2.352  0.00  0.00    -0.378 N 
ATOM     31  C   UNL d   1      31.173 -15.740  -0.679  0.00  0.00     0.150 C 
ATOM     32  C   UNL d   1      30.025 -15.374   0.383  0.00  0.00     0.256 C 
ATOM     33  H   UNL d   1      29.100 -16.983   0.980  0.00  0.00     0.281 HD
BRANCH  30  34
ATOM     34  C   UNL d   1      30.887 -15.628  -3.877  0.00  0.00     0.030 C 
ATOM     35  C   UNL d   1      30.194 -16.132  -5.088  0.00  0.00     0.032 C 
ATOM     36  C   UNL d   1      29.982 -15.435  -6.357  0.00  0.00     0.039 C 
ATOM     37  C   UNL d   1      30.575 -14.228  -6.607  0.00  0.00     0.068 C 
ATOM     38  C   UNL d   1      31.291 -13.692  -5.549  0.00  0.00     0.039 C 
ATOM     39  C   UNL d   1      31.512 -14.396  -4.274  0.00  0.00     0.032 C 
BRANCH  37  40
ATOM     40  O   UNL d   1      30.420 -13.712  -7.863  0.00  0.00    -0.356 OA
ATOM     41  C   UNL d   1      29.861 -12.400  -7.902  0.00  0.00     0.210 C 
ENDBRANCH  37  40
ENDBRANCH  30  34
ENDBRANCH   1  27
TORSDOF 7
ENDMDL
MODEL 9
REMARK VINA RESULT:    -8.818      3.312      8.248
REMARK INTER + INTRA:         -14.507
REMARK INTER:                 -10.907
REMARK INTRA:                  -3.600
REMARK CONF_INDEPENDENT:        2.088
REMARK UNBOUND:                -3.600
REMARK  7 active torsions:
REMARK  status: ('A' for Active; 'I' for Inactive)
REMARK    1  A    between atoms: C_2  and  C_3 
REMARK    2  A    between atoms: C_3  and  N_6 
REMARK    3  A    between atoms: C_10  and  C_11 
REMARK    4  A    between atoms: C_11  and  C_12 
REMARK    5  A    between atoms: C_11  and  N_26 
REMARK    6  A    between atoms: N_29  and  C_30 
REMARK    7  A    between atoms: C_33  and  O_34 
ROOT
ATOM      1  C   UNL d   1      29.612 -14.650  -2.742  0.00  0.00     0.299 C 
ENDROOT
BRANCH   1   2
ATOM      2  C   UNL d   1      28.820 -15.041  -4.029  0.00  0.00     0.184 C 
ATOM      3  N   UNL d   1      29.493 -15.376  -5.122  0.00  0.00    -0.111 NA
ATOM      4  N   UNL d   1      28.606 -15.421  -6.150  0.00  0.00    -0.023 NA
ATOM      5  N   UNL d   1      27.375 -15.202  -5.731  0.00  0.00    -0.043 NA
ATOM      6  N   UNL d   1      27.424 -15.110  -4.381  0.00  0.00    -0.223 N 
BRANCH   6   7
ATOM      7  C   UNL d   1      26.172 -14.572  -3.697  0.00  0.00     0.051 C 
ATOM      8  C   UNL d   1      26.334 -13.885  -2.393  0.00  0.00     0.040 C 
ATOM      9  C   UNL d   1      25.524 -15.930  -3.463  0.00  0.00     0.040 C 
BRANCH   7  10
ATOM     10  C   UNL d   1      25.437 -13.357  -4.527  0.00  0.00     0.028 C 
ATOM     11  C   UNL d   1      25.725 -11.845  -5.254  0.00  0.00     0.007 C 
ENDBRANCH   7  10
ENDBRANCH   6   7
ENDBRANCH   1   2
BRANCH   1  12
ATOM     12  C   UNL d   1      29.765 -13.182  -2.429  0.00  0.00     0.049 C 
ATOM     13  C   UNL d   1      28.994 -12.176  -2.911  0.00  0.00     0.029 C 
ATOM     14  C   UNL d   1      29.464 -10.776  -2.801  0.00  0.00    -0.006 C 
ATOM     15  C   UNL d   1      28.893  -9.600  -3.347  0.00  0.00     0.053 C 
ATOM     16  C   UNL d   1      30.694 -10.621  -2.143  0.00  0.00     0.048 C 
ATOM     17  C   UNL d   1      29.571  -8.405  -3.066  0.00  0.00     0.105 C 
ATOM     18  C   UNL d   1      30.340  -8.365  -1.946  0.00  0.00     0.107 C 
ATOM     19  O   UNL d   1      29.951  -7.273  -3.793  0.00  0.00    -0.323 OA
ATOM     20  C   UNL d   1      31.122  -9.421  -1.681  0.00  0.00     0.070 C 
ATOM     21  O   UNL d   1      30.807  -7.143  -1.610  0.00  0.00    -0.323 OA
ATOM     22  C   UNL d   1      31.101  -6.811  -2.955  0.00  0.00     0.352 C 
ATOM     23  N   UNL d   1      31.508 -11.659  -1.789  0.00  0.00    -0.322 N 
ATOM     24  C   UNL d   1      31.020 -12.921  -1.641  0.00  0.00     0.254 C 
ATOM     25  H   UNL d   1      32.363 -11.466  -1.282  0.00  0.00     0.169 HD
ATOM     26  O   UNL d   1      31.628 -13.724  -1.047  0.00  0.00    -0.268 OA
ENDBRANCH   1  12
BRANCH   1  27
ATOM     27  N   UNL d   1      29.427 -15.389  -1.346  0.00  0.00    -0.052 N 
ATOM     28  C   UNL d   1      28.349 -14.703  -0.235  0.00  0.00     0.256 C 
ATOM     29  C   UNL d   1      27.393 -15.648   0.611  0.00  0.00     0.150 C 
ATOM     30  N   UNL d   1      26.978 -16.868  -0.110  0.00  0.00    -0.378 N 
ATOM     31  C   UNL d   1      28.563 -17.607  -0.512  0.00  0.00     0.150 C 
ATOM     32  C   UNL d   1      29.452 -16.851  -1.617  0.00  0.00     0.256 C 
ATOM     33  H   UNL d   1      30.318 -15.282  -0.849  0.00  0.00     0.281 HD
BRANCH  30  34
ATOM     34  C   UNL d   1      25.403 -17.244  -0.065  0.00  0.00     0.030 C 
ATOM     35  C   UNL d   1      24.271 -16.345  -0.401  0.00  0.00     0.032 C 
ATOM     36  C   UNL d   1      22.938 -16.720  -0.875  0.00  0.00     0.039 C 
ATOM     37  C   UNL d   1      22.542 -18.029  -0.910  0.00  0.00     0.068 C 
ATOM     38  C   UNL d   1      23.519 -18.949  -0.564  0.00  0.00     0.039 C 
ATOM     39  C   UNL d   1      24.859 -18.574  -0.080  0.00  0.00     0.032 C 
BRANCH  37  40
ATOM     40  O   UNL d   1      21.242 -18.272  -1.249  0.00  0.00    -0.356 OA
ATOM     41  C   UNL d   1      20.601 -19.278  -0.467  0.00  0.00     0.210 C 
ENDBRANCH  37  40
ENDBRANCH  30  34
ENDBRANCH   1  27
TORSDOF 7
ENDMDL
