MODEL 1
REMARK VINA RESULT:    -7.846      0.000      0.000
REMARK INTER + INTRA:         -10.044
REMARK INTER:                  -8.741
REMARK INTRA:                  -1.303
REMARK CONF_INDEPENDENT:        0.895
REMARK UNBOUND:                -1.303
REMARK  3 active torsions:
REMARK  status: ('A' for Active; 'I' for Inactive)
REMARK       I    between atoms: C_2  and  N_3 
REMARK    1  A    between atoms: C_2  and  C_11 
REMARK    2  A    between atoms: N_3  and  C_4 
REMARK    3  A    between atoms: C_9  and  O_10 
ROOT
ATOM      1  O   UNL d   1      23.008 -20.061  -0.683  0.00  0.00    -0.267 OA
ATOM      2  C   UNL d   1      22.919 -18.998  -0.064  0.00  0.00     0.258 C 
ATOM      3  N   UNL d   1      21.780 -18.533   0.577  0.00  0.00    -0.320 N 
ATOM      4  H   UNL d   1      21.706 -17.554   0.823  0.00  0.00     0.169 HD
ENDROOT
BRANCH   2   5
ATOM      5  C   UNL d   1      24.084 -18.081  -0.150  0.00  0.00     0.054 A 
ATOM      6  C   UNL d   1      25.330 -18.617   0.230  0.00  0.00     0.020 A 
ATOM      7  C   UNL d   1      26.481 -17.826   0.228  0.00  0.00     0.025 A 
ATOM      8  C   UNL d   1      26.389 -16.489  -0.140  0.00  0.00     0.035 A 
ATOM      9 CL   UNL d   1      27.806 -15.511  -0.150  0.00  0.00    -0.084 Cl
ATOM     10  C   UNL d   1      25.160 -15.936  -0.499  0.00  0.00     0.048 A 
ATOM     11  C   UNL d   1      24.004 -16.730  -0.503  0.00  0.00     0.051 A 
ATOM     12 CL   UNL d   1      22.518 -15.950  -0.911  0.00  0.00    -0.083 Cl
ENDBRANCH   2   5
BRANCH   3  13
ATOM     13  C   UNL d   1      20.646 -19.350   0.798  0.00  0.00     0.068 A 
ATOM     14  C   UNL d   1      20.281 -19.691   2.105  0.00  0.00     0.032 A 
ATOM     15  C   UNL d   1      19.125 -20.450   2.334  0.00  0.00     0.002 A 
ATOM     16  C   UNL d   1      18.356 -20.904   1.261  0.00  0.00     0.003 A 
ATOM     17  C   UNL d   1      18.743 -20.611  -0.047  0.00  0.00     0.039 A 
ATOM     18  C   UNL d   1      19.889 -19.849  -0.271  0.00  0.00     0.092 A 
BRANCH  18  19
ATOM     19  O   UNL d   1      20.357 -19.700  -1.551  0.00  0.00    -0.358 OA
ATOM     20  H   UNL d   1      21.325 -19.695  -1.535  0.00  0.00     0.217 HD
ENDBRANCH  18  19
ENDBRANCH   3  13
TORSDOF 3
ENDMDL
MODEL 2
REMARK VINA RESULT:    -7.419      1.646      2.119
REMARK INTER + INTRA:          -8.853
REMARK INTER:                  -8.314
REMARK INTRA:                  -0.539
REMARK CONF_INDEPENDENT:        0.895
REMARK UNBOUND:                -0.539
REMARK  3 active torsions:
REMARK  status: ('A' for Active; 'I' for Inactive)
REMARK       I    between atoms: C_2  and  N_3 
REMARK    1  A    between atoms: C_2  and  C_11 
REMARK    2  A    between atoms: N_3  and  C_4 
REMARK    3  A    between atoms: C_9  and  O_10 
ROOT
ATOM      1  O   UNL d   1      22.335 -16.627  -0.796  0.00  0.00    -0.267 OA
ATOM      2  C   UNL d   1      23.035 -17.589  -0.473  0.00  0.00     0.258 C 
ATOM      3  N   UNL d   1      22.565 -18.795   0.028  0.00  0.00    -0.320 N 
ATOM      4  H   UNL d   1      23.196 -19.418   0.514  0.00  0.00     0.169 HD
ENDROOT
BRANCH   2   5
ATOM      5  C   UNL d   1      24.504 -17.372  -0.479  0.00  0.00     0.054 A 
ATOM      6  C   UNL d   1      25.260 -18.190   0.383  0.00  0.00     0.020 A 
ATOM      7  C   UNL d   1      26.644 -18.037   0.485  0.00  0.00     0.025 A 
ATOM      8  C   UNL d   1      27.279 -17.053  -0.264  0.00  0.00     0.035 A 
ATOM      9 CL   UNL d   1      28.986 -16.863  -0.146  0.00  0.00    -0.084 Cl
ATOM     10  C   UNL d   1      26.543 -16.219  -1.106  0.00  0.00     0.048 A 
ATOM     11  C   UNL d   1      25.153 -16.375  -1.214  0.00  0.00     0.051 A 
ATOM     12 CL   UNL d   1      24.318 -15.267  -2.241  0.00  0.00    -0.083 Cl
ENDBRANCH   2   5
BRANCH   3  13
ATOM     13  C   UNL d   1      21.195 -19.146  -0.001  0.00  0.00     0.068 A 
ATOM     14  C   UNL d   1      20.543 -19.294  -1.231  0.00  0.00     0.032 A 
ATOM     15  C   UNL d   1      19.202 -19.700  -1.268  0.00  0.00     0.002 A 
ATOM     16  C   UNL d   1      18.498 -19.918  -0.082  0.00  0.00     0.003 A 
ATOM     17  C   UNL d   1      19.127 -19.722   1.147  0.00  0.00     0.039 A 
ATOM     18  C   UNL d   1      20.463 -19.326   1.181  0.00  0.00     0.092 A 
BRANCH  18  19
ATOM     19  O   UNL d   1      21.030 -18.977   2.379  0.00  0.00    -0.358 OA
ATOM     20  H   UNL d   1      21.645 -19.673   2.653  0.00  0.00     0.217 HD
ENDBRANCH  18  19
ENDBRANCH   3  13
TORSDOF 3
ENDMDL
MODEL 3
REMARK VINA RESULT:    -7.216      1.964      2.471
REMARK INTER + INTRA:          -8.834
REMARK INTER:                  -8.111
REMARK INTRA:                  -0.723
REMARK CONF_INDEPENDENT:        0.895
REMARK UNBOUND:                -0.723
REMARK  3 active torsions:
REMARK  status: ('A' for Active; 'I' for Inactive)
REMARK       I    between atoms: C_2  and  N_3 
REMARK    1  A    between atoms: C_2  and  C_11 
REMARK    2  A    between atoms: N_3  and  C_4 
REMARK    3  A    between atoms: C_9  and  O_10 
ROOT
ATOM      1  O   UNL d   1      22.420 -16.255   0.116  0.00  0.00    -0.267 OA
ATOM      2  C   UNL d   1      23.030 -17.110  -0.529  0.00  0.00     0.258 C 
ATOM      3  N   UNL d   1      22.697 -18.455  -0.599  0.00  0.00    -0.320 N 
ATOM      4  H   UNL d   1      23.383 -19.127  -0.918  0.00  0.00     0.169 HD
ENDROOT
BRANCH   2   5
ATOM      5  C   UNL d   1      24.309 -16.684  -1.152  0.00  0.00     0.054 A 
ATOM      6  C   UNL d   1      24.221 -15.671  -2.128  0.00  0.00     0.020 A 
ATOM      7  C   UNL d   1      25.359 -15.229  -2.805  0.00  0.00     0.025 A 
ATOM      8  C   UNL d   1      26.590 -15.808  -2.523  0.00  0.00     0.035 A 
ATOM      9 CL   UNL d   1      27.997 -15.263  -3.352  0.00  0.00    -0.084 Cl
ATOM     10  C   UNL d   1      26.692 -16.828  -1.577  0.00  0.00     0.048 A 
ATOM     11  C   UNL d   1      25.551 -17.269  -0.890  0.00  0.00     0.051 A 
ATOM     12 CL   UNL d   1      25.763 -18.569   0.227  0.00  0.00    -0.083 Cl
ENDBRANCH   2   5
BRANCH   3  13
ATOM     13  C   UNL d   1      21.464 -18.958  -0.122  0.00  0.00     0.068 A 
ATOM     14  C   UNL d   1      21.198 -18.950   1.252  0.00  0.00     0.032 A 
ATOM     15  C   UNL d   1      19.955 -19.392   1.727  0.00  0.00     0.002 A 
ATOM     16  C   UNL d   1      18.994 -19.879   0.840  0.00  0.00     0.003 A 
ATOM     17  C   UNL d   1      19.273 -19.938  -0.526  0.00  0.00     0.039 A 
ATOM     18  C   UNL d   1      20.507 -19.491  -0.996  0.00  0.00     0.092 A 
BRANCH  18  19
ATOM     19  O   UNL d   1      20.841 -19.700  -2.309  0.00  0.00    -0.358 OA
ATOM     20  H   UNL d   1      20.033 -19.735  -2.840  0.00  0.00     0.217 HD
ENDBRANCH  18  19
ENDBRANCH   3  13
TORSDOF 3
ENDMDL
MODEL 4
REMARK VINA RESULT:    -6.474      3.921      7.622
REMARK INTER + INTRA:          -8.059
REMARK INTER:                  -7.369
REMARK INTRA:                  -0.690
REMARK CONF_INDEPENDENT:        0.895
REMARK UNBOUND:                -0.690
REMARK  3 active torsions:
REMARK  status: ('A' for Active; 'I' for Inactive)
REMARK       I    between atoms: C_2  and  N_3 
REMARK    1  A    between atoms: C_2  and  C_11 
REMARK    2  A    between atoms: N_3  and  C_4 
REMARK    3  A    between atoms: C_9  and  O_10 
ROOT
ATOM      1  O   UNL d   1      25.906 -15.423  -0.271  0.00  0.00    -0.267 OA
ATOM      2  C   UNL d   1      25.086 -15.719  -1.143  0.00  0.00     0.258 C 
ATOM      3  N   UNL d   1      24.896 -15.035  -2.335  0.00  0.00    -0.320 N 
ATOM      4  H   UNL d   1      24.043 -15.170  -2.862  0.00  0.00     0.169 HD
ENDROOT
BRANCH   2   5
ATOM      5  C   UNL d   1      24.127 -16.803  -0.811  0.00  0.00     0.054 A 
ATOM      6  C   UNL d   1      22.768 -16.534  -1.066  0.00  0.00     0.020 A 
ATOM      7  C   UNL d   1      21.780 -17.469  -0.749  0.00  0.00     0.025 A 
ATOM      8  C   UNL d   1      22.145 -18.673  -0.158  0.00  0.00     0.035 A 
ATOM      9 CL   UNL d   1      20.933 -19.832   0.230  0.00  0.00    -0.084 Cl
ATOM     10  C   UNL d   1      23.484 -18.947   0.122  0.00  0.00     0.048 A 
ATOM     11  C   UNL d   1      24.478 -18.011  -0.201  0.00  0.00     0.051 A 
ATOM     12 CL   UNL d   1      26.102 -18.413   0.228  0.00  0.00    -0.083 Cl
ENDBRANCH   2   5
BRANCH   3  13
ATOM     13  C   UNL d   1      25.799 -14.048  -2.796  0.00  0.00     0.068 A 
ATOM     14  C   UNL d   1      26.680 -13.440  -1.895  0.00  0.00     0.032 A 
ATOM     15  C   UNL d   1      27.617 -12.505  -2.356  0.00  0.00     0.002 A 
ATOM     16  C   UNL d   1      27.651 -12.145  -3.704  0.00  0.00     0.003 A 
ATOM     17  C   UNL d   1      26.741 -12.710  -4.599  0.00  0.00     0.039 A 
ATOM     18  C   UNL d   1      25.815 -13.645  -4.139  0.00  0.00     0.092 A 
BRANCH  18  19
ATOM     19  O   UNL d   1      24.821 -14.075  -4.979  0.00  0.00    -0.358 OA
ATOM     20  H   UNL d   1      24.379 -13.306  -5.366  0.00  0.00     0.217 HD
ENDBRANCH  18  19
ENDBRANCH   3  13
TORSDOF 3
ENDMDL
MODEL 5
REMARK VINA RESULT:    -6.179      4.853      6.581
REMARK INTER + INTRA:          -7.810
REMARK INTER:                  -7.074
REMARK INTRA:                  -0.736
REMARK CONF_INDEPENDENT:        0.895
REMARK UNBOUND:                -0.736
REMARK  3 active torsions:
REMARK  status: ('A' for Active; 'I' for Inactive)
REMARK       I    between atoms: C_2  and  N_3 
REMARK    1  A    between atoms: C_2  and  C_11 
REMARK    2  A    between atoms: N_3  and  C_4 
REMARK    3  A    between atoms: C_9  and  O_10 
ROOT
ATOM      1  O   UNL d   1      24.404 -14.598  -3.327  0.00  0.00    -0.267 OA
ATOM      2  C   UNL d   1      25.565 -15.003  -3.421  0.00  0.00     0.258 C 
ATOM      3  N   UNL d   1      26.175 -15.907  -2.563  0.00  0.00    -0.320 N 
ATOM      4  H   UNL d   1      27.184 -15.980  -2.545  0.00  0.00     0.169 HD
ENDROOT
BRANCH   2   5
ATOM      5  C   UNL d   1      26.414 -14.347  -4.448  0.00  0.00     0.054 A 
ATOM      6  C   UNL d   1      27.226 -15.198  -5.224  0.00  0.00     0.020 A 
ATOM      7  C   UNL d   1      28.093 -14.679  -6.187  0.00  0.00     0.025 A 
ATOM      8  C   UNL d   1      28.167 -13.303  -6.369  0.00  0.00     0.035 A 
ATOM      9 CL   UNL d   1      29.231 -12.658  -7.558  0.00  0.00    -0.084 Cl
ATOM     10  C   UNL d   1      27.387 -12.445  -5.594  0.00  0.00     0.048 A 
ATOM     11  C   UNL d   1      26.510 -12.964  -4.631  0.00  0.00     0.051 A 
ATOM     12 CL   UNL d   1      25.622 -11.826  -3.684  0.00  0.00    -0.083 Cl
ENDBRANCH   2   5
BRANCH   3  13
ATOM     13  C   UNL d   1      25.449 -16.656  -1.609  0.00  0.00     0.068 A 
ATOM     14  C   UNL d   1      24.049 -16.622  -1.619  0.00  0.00     0.032 A 
ATOM     15  C   UNL d   1      23.323 -17.408  -0.715  0.00  0.00     0.002 A 
ATOM     16  C   UNL d   1      23.988 -18.197   0.226  0.00  0.00     0.003 A 
ATOM     17  C   UNL d   1      25.382 -18.196   0.276  0.00  0.00     0.039 A 
ATOM     18  C   UNL d   1      26.102 -17.419  -0.630  0.00  0.00     0.092 A 
BRANCH  18  19
ATOM     19  O   UNL d   1      27.458 -17.291  -0.477  0.00  0.00    -0.358 OA
ATOM     20  H   UNL d   1      27.749 -17.858   0.252  0.00  0.00     0.217 HD
ENDBRANCH  18  19
ENDBRANCH   3  13
TORSDOF 3
ENDMDL
MODEL 6
REMARK VINA RESULT:    -5.613      9.663     12.105
REMARK INTER + INTRA:          -7.811
REMARK INTER:                  -6.508
REMARK INTRA:                  -1.302
REMARK CONF_INDEPENDENT:        0.895
REMARK UNBOUND:                -1.302
REMARK  3 active torsions:
REMARK  status: ('A' for Active; 'I' for Inactive)
REMARK       I    between atoms: C_2  and  N_3 
REMARK    1  A    between atoms: C_2  and  C_11 
REMARK    2  A    between atoms: N_3  and  C_4 
REMARK    3  A    between atoms: C_9  and  O_10 
ROOT
ATOM      1  O   UNL d   1      31.874 -20.100   3.842  0.00  0.00    -0.267 OA
ATOM      2  C   UNL d   1      32.706 -21.011   3.817  0.00  0.00     0.258 C 
ATOM      3  N   UNL d   1      32.963 -21.837   2.733  0.00  0.00    -0.320 N 
ATOM      4  H   UNL d   1      33.451 -22.712   2.872  0.00  0.00     0.169 HD
ENDROOT
BRANCH   2   5
ATOM      5  C   UNL d   1      33.369 -21.337   5.105  0.00  0.00     0.054 A 
ATOM      6  C   UNL d   1      34.773 -21.450   5.074  0.00  0.00     0.020 A 
ATOM      7  C   UNL d   1      35.489 -21.797   6.220  0.00  0.00     0.025 A 
ATOM      8  C   UNL d   1      34.805 -22.049   7.403  0.00  0.00     0.035 A 
ATOM      9 CL   UNL d   1      35.684 -22.472   8.822  0.00  0.00    -0.084 Cl
ATOM     10  C   UNL d   1      33.413 -21.963   7.447  0.00  0.00     0.048 A 
ATOM     11  C   UNL d   1      32.691 -21.609   6.298  0.00  0.00     0.051 A 
ATOM     12 CL   UNL d   1      30.970 -21.577   6.431  0.00  0.00    -0.083 Cl
ENDBRANCH   2   5
BRANCH   3  13
ATOM     13  C   UNL d   1      32.459 -21.570   1.438  0.00  0.00     0.068 A 
ATOM     14  C   UNL d   1      33.345 -21.255   0.401  0.00  0.00     0.032 A 
ATOM     15  C   UNL d   1      32.858 -21.047  -0.897  0.00  0.00     0.002 A 
ATOM     16  C   UNL d   1      31.487 -21.112  -1.154  0.00  0.00     0.003 A 
ATOM     17  C   UNL d   1      30.595 -21.375  -0.115  0.00  0.00     0.039 A 
ATOM     18  C   UNL d   1      31.083 -21.588   1.173  0.00  0.00     0.092 A 
BRANCH  18  19
ATOM     19  O   UNL d   1      30.201 -21.683   2.219  0.00  0.00    -0.358 OA
ATOM     20  H   UNL d   1      30.182 -20.840   2.694  0.00  0.00     0.217 HD
ENDBRANCH  18  19
ENDBRANCH   3  13
TORSDOF 3
ENDMDL
MODEL 7
REMARK VINA RESULT:    -5.553      6.416      8.494
REMARK INTER + INTRA:          -7.783
REMARK INTER:                  -6.448
REMARK INTRA:                  -1.335
REMARK CONF_INDEPENDENT:        0.895
REMARK UNBOUND:                -1.335
REMARK  3 active torsions:
REMARK  status: ('A' for Active; 'I' for Inactive)
REMARK       I    between atoms: C_2  and  N_3 
REMARK    1  A    between atoms: C_2  and  C_11 
REMARK    2  A    between atoms: N_3  and  C_4 
REMARK    3  A    between atoms: C_9  and  O_10 
ROOT
ATOM      1  O   UNL d   1      26.480 -15.576  -5.770  0.00  0.00    -0.267 OA
ATOM      2  C   UNL d   1      27.446 -15.066  -5.198  0.00  0.00     0.258 C 
ATOM      3  N   UNL d   1      27.553 -14.856  -3.830  0.00  0.00    -0.320 N 
ATOM      4  H   UNL d   1      28.238 -14.202  -3.474  0.00  0.00     0.169 HD
ENDROOT
BRANCH   2   5
ATOM      5  C   UNL d   1      28.505 -14.495  -6.067  0.00  0.00     0.054 A 
ATOM      6  C   UNL d   1      28.216 -13.257  -6.675  0.00  0.00     0.020 A 
ATOM      7  C   UNL d   1      29.126 -12.656  -7.546  0.00  0.00     0.025 A 
ATOM      8  C   UNL d   1      30.327 -13.297  -7.827  0.00  0.00     0.035 A 
ATOM      9 CL   UNL d   1      31.455 -12.557  -8.896  0.00  0.00    -0.084 Cl
ATOM     10  C   UNL d   1      30.621 -14.533  -7.252  0.00  0.00     0.048 A 
ATOM     11  C   UNL d   1      29.710 -15.136  -6.372  0.00  0.00     0.051 A 
ATOM     12 CL   UNL d   1      30.135 -16.689  -5.748  0.00  0.00    -0.083 Cl
ENDBRANCH   2   5
BRANCH   3  13
ATOM     13  C   UNL d   1      26.654 -15.430  -2.901  0.00  0.00     0.068 A 
ATOM     14  C   UNL d   1      27.132 -16.319  -1.932  0.00  0.00     0.032 A 
ATOM     15  C   UNL d   1      26.256 -16.845  -0.972  0.00  0.00     0.002 A 
ATOM     16  C   UNL d   1      24.899 -16.519  -1.001  0.00  0.00     0.003 A 
ATOM     17  C   UNL d   1      24.407 -15.673  -1.996  0.00  0.00     0.039 A 
ATOM     18  C   UNL d   1      25.281 -15.146  -2.945  0.00  0.00     0.092 A 
BRANCH  18  19
ATOM     19  O   UNL d   1      24.775 -14.451  -4.013  0.00  0.00    -0.358 OA
ATOM     20  H   UNL d   1      25.046 -14.889  -4.832  0.00  0.00     0.217 HD
ENDBRANCH  18  19
ENDBRANCH   3  13
TORSDOF 3
ENDMDL
MODEL 8
REMARK VINA RESULT:    -5.553      5.879      9.147
REMARK INTER + INTRA:          -7.724
REMARK INTER:                  -6.448
REMARK INTRA:                  -1.276
REMARK CONF_INDEPENDENT:        0.895
REMARK UNBOUND:                -1.276
REMARK  3 active torsions:
REMARK  status: ('A' for Active; 'I' for Inactive)
REMARK       I    between atoms: C_2  and  N_3 
REMARK    1  A    between atoms: C_2  and  C_11 
REMARK    2  A    between atoms: N_3  and  C_4 
REMARK    3  A    between atoms: C_9  and  O_10 
ROOT
ATOM      1  O   UNL d   1      24.761 -14.088  -4.325  0.00  0.00    -0.267 OA
ATOM      2  C   UNL d   1      25.893 -14.253  -3.865  0.00  0.00     0.258 C 
ATOM      3  N   UNL d   1      27.065 -13.744  -4.406  0.00  0.00    -0.320 N 
ATOM      4  H   UNL d   1      27.957 -14.139  -4.136  0.00  0.00     0.169 HD
ENDROOT
BRANCH   2   5
ATOM      5  C   UNL d   1      26.015 -15.202  -2.729  0.00  0.00     0.054 A 
ATOM      6  C   UNL d   1      25.156 -16.318  -2.753  0.00  0.00     0.020 A 
ATOM      7  C   UNL d   1      25.159 -17.247  -1.710  0.00  0.00     0.025 A 
ATOM      8  C   UNL d   1      26.010 -17.056  -0.628  0.00  0.00     0.035 A 
ATOM      9 CL   UNL d   1      26.022 -18.201   0.657  0.00  0.00    -0.084 Cl
ATOM     10  C   UNL d   1      26.852 -15.945  -0.578  0.00  0.00     0.048 A 
ATOM     11  C   UNL d   1      26.855 -15.014  -1.627  0.00  0.00     0.051 A 
ATOM     12 CL   UNL d   1      27.892 -13.643  -1.456  0.00  0.00    -0.083 Cl
ENDBRANCH   2   5
BRANCH   3  13
ATOM     13  C   UNL d   1      27.067 -12.766  -5.428  0.00  0.00     0.068 A 
ATOM     14  C   UNL d   1      27.939 -12.900  -6.515  0.00  0.00     0.032 A 
ATOM     15  C   UNL d   1      27.905 -11.966  -7.560  0.00  0.00     0.002 A 
ATOM     16  C   UNL d   1      27.032 -10.878  -7.504  0.00  0.00     0.003 A 
ATOM     17  C   UNL d   1      26.197 -10.710  -6.399  0.00  0.00     0.039 A 
ATOM     18  C   UNL d   1      26.228 -11.644  -5.365  0.00  0.00     0.092 A 
BRANCH  18  19
ATOM     19  O   UNL d   1      25.531 -11.394  -4.212  0.00  0.00    -0.358 OA
ATOM     20  H   UNL d   1      24.725 -11.930  -4.207  0.00  0.00     0.217 HD
ENDBRANCH  18  19
ENDBRANCH   3  13
TORSDOF 3
ENDMDL
MODEL 9
REMARK VINA RESULT:    -5.487      3.977      7.926
REMARK INTER + INTRA:          -7.709
REMARK INTER:                  -6.382
REMARK INTRA:                  -1.327
REMARK CONF_INDEPENDENT:        0.895
REMARK UNBOUND:                -1.327
REMARK  3 active torsions:
REMARK  status: ('A' for Active; 'I' for Inactive)
REMARK       I    between atoms: C_2  and  N_3 
REMARK    1  A    between atoms: C_2  and  C_11 
REMARK    2  A    between atoms: N_3  and  C_4 
REMARK    3  A    between atoms: C_9  and  O_10 
ROOT
ATOM      1  O   UNL d   1      26.066 -15.194  -0.649  0.00  0.00    -0.267 OA
ATOM      2  C   UNL d   1      25.566 -15.952  -1.483  0.00  0.00     0.258 C 
ATOM      3  N   UNL d   1      25.816 -15.926  -2.847  0.00  0.00    -0.320 N 
ATOM      4  H   UNL d   1      25.179 -16.387  -3.484  0.00  0.00     0.169 HD
ENDROOT
BRANCH   2   5
ATOM      5  C   UNL d   1      24.498 -16.861  -0.995  0.00  0.00     0.054 A 
ATOM      6  C   UNL d   1      23.172 -16.470  -1.270  0.00  0.00     0.020 A 
ATOM      7  C   UNL d   1      22.093 -17.231  -0.817  0.00  0.00     0.025 A 
ATOM      8  C   UNL d   1      22.332 -18.380  -0.073  0.00  0.00     0.035 A 
ATOM      9 CL   UNL d   1      21.005 -19.325   0.483  0.00  0.00    -0.084 Cl
ATOM     10  C   UNL d   1      23.637 -18.770   0.227  0.00  0.00     0.048 A 
ATOM     11  C   UNL d   1      24.723 -18.010  -0.231  0.00  0.00     0.051 A 
ATOM     12 CL   UNL d   1      26.301 -18.540   0.230  0.00  0.00    -0.083 Cl
ENDBRANCH   2   5
BRANCH   3  13
ATOM     13  C   UNL d   1      26.869 -15.168  -3.412  0.00  0.00     0.068 A 
ATOM     14  C   UNL d   1      26.622 -14.364  -4.530  0.00  0.00     0.032 A 
ATOM     15  C   UNL d   1      27.646 -13.566  -5.058  0.00  0.00     0.002 A 
ATOM     16  C   UNL d   1      28.925 -13.599  -4.499  0.00  0.00     0.003 A 
ATOM     17  C   UNL d   1      29.191 -14.438  -3.417  0.00  0.00     0.039 A 
ATOM     18  C   UNL d   1      28.169 -15.225  -2.889  0.00  0.00     0.092 A 
BRANCH  18  19
ATOM     19  O   UNL d   1      28.467 -16.164  -1.937  0.00  0.00    -0.358 OA
ATOM     20  H   UNL d   1      27.918 -16.008  -1.155  0.00  0.00     0.217 HD
ENDBRANCH  18  19
ENDBRANCH   3  13
TORSDOF 3
ENDMDL
