MODEL 1
REMARK VINA RESULT:    -8.201      0.000      0.000
REMARK INTER + INTRA:         -10.719
REMARK INTER:                  -9.692
REMARK INTRA:                  -1.027
REMARK CONF_INDEPENDENT:        1.492
REMARK UNBOUND:                -1.027
REMARK  5 active torsions:
REMARK  status: ('A' for Active; 'I' for Inactive)
REMARK       I    between atoms: C_2  and  N_3 
REMARK    1  A    between atoms: C_2  and  C_17 
REMARK    2  A    between atoms: N_3  and  N_4 
REMARK       I    between atoms: N_4  and  C_5 
REMARK    3  A    between atoms: C_5  and  C_7 
REMARK    4  A    between atoms: C_22  and  O_23 
REMARK    5  A    between atoms: O_23  and  C_24 
ROOT
ATOM      1  O   UNL d   1      28.085 -12.852   3.434  0.00  0.00    -0.264 OA
ATOM      2  C   UNL d   1      28.440 -13.935   2.998  0.00  0.00     0.286 C 
ATOM      3  N   UNL d   1      29.358 -14.716   3.720  0.00  0.00    -0.262 N 
ATOM      4  H   UNL d   1      29.774 -15.575   3.358  0.00  0.00     0.190 HD
ENDROOT
BRANCH   2   5
ATOM      5  C   UNL d   1      27.929 -14.469   1.723  0.00  0.00     0.103 A 
ATOM      6  C   UNL d   1      27.658 -15.774   1.355  0.00  0.00     0.049 A 
ATOM      7  C   UNL d   1      27.014 -15.783   0.084  0.00  0.00    -0.007 A 
ATOM      8  C   UNL d   1      26.489 -16.808  -0.720  0.00  0.00     0.016 A 
ATOM      9  C   UNL d   1      26.911 -14.464  -0.351  0.00  0.00     0.045 A 
ATOM     10  C   UNL d   1      25.868 -16.503  -1.934  0.00  0.00     0.038 A 
ATOM     11  C   UNL d   1      25.765 -15.188  -2.381  0.00  0.00     0.080 A 
ATOM     12  C   UNL d   1      26.300 -14.140  -1.593  0.00  0.00     0.067 A 
ATOM     13  N   UNL d   1      27.474 -13.686   0.657  0.00  0.00    -0.351 N 
ATOM     14  H   UNL d   1      27.523 -12.676   0.634  0.00  0.00     0.166 HD
BRANCH  11  15
ATOM     15  O   UNL d   1      25.155 -14.825  -3.559  0.00  0.00    -0.255 OA
BRANCH  15  16
ATOM     16  C   UNL d   1      25.958 -14.856  -4.741  0.00  0.00     0.530 C 
ATOM     17  F   UNL d   1      27.261 -15.062  -4.443  0.00  0.00    -0.144 F 
ATOM     18  F   UNL d   1      25.540 -15.819  -5.596  0.00  0.00    -0.144 F 
ATOM     19  F   UNL d   1      25.866 -13.669  -5.383  0.00  0.00    -0.144 F 
ENDBRANCH  15  16
ENDBRANCH  11  15
ENDBRANCH   2   5
BRANCH   3  20
ATOM     20  N   UNL d   1      29.879 -14.196   5.003  0.00  0.00    -0.267 N 
ATOM     21  C   UNL d   1      29.024 -14.016   6.065  0.00  0.00     0.244 C 
ATOM     22  O   UNL d   1      27.817 -14.249   5.867  0.00  0.00    -0.271 OA
ATOM     23  H   UNL d   1      30.879 -14.049   5.038  0.00  0.00     0.190 HD
BRANCH  21  24
ATOM     24  C   UNL d   1      29.482 -13.389   7.488  0.00  0.00     0.043 C 
ATOM     25  C   UNL d   1      30.954 -12.950   8.033  0.00  0.00     0.024 C 
ATOM     26  C   UNL d   1      30.846 -12.425   9.521  0.00  0.00    -0.013 C 
ATOM     27  C   UNL d   1      29.944 -11.182   9.457  0.00  0.00     0.009 C 
ATOM     28  C   UNL d   1      30.320 -13.606  10.355  0.00  0.00     0.009 C 
ATOM     29  C   UNL d   1      28.532 -11.590   9.061  0.00  0.00    -0.013 C 
ATOM     30  C   UNL d   1      28.027 -12.669  10.030  0.00  0.00     0.009 C 
ATOM     31  C   UNL d   1      28.567 -12.132   7.626  0.00  0.00     0.024 C 
ATOM     32  C   UNL d   1      28.895 -13.931   9.941  0.00  0.00    -0.013 C 
ATOM     33  C   UNL d   1      28.932 -14.450   8.504  0.00  0.00     0.024 C 
ENDBRANCH  21  24
ENDBRANCH   3  20
TORSDOF 5
ENDMDL
MODEL 2
REMARK VINA RESULT:    -7.967      0.457      1.553
REMARK INTER + INTRA:         -10.460
REMARK INTER:                  -9.459
REMARK INTRA:                  -1.002
REMARK CONF_INDEPENDENT:        1.492
REMARK UNBOUND:                -1.002
REMARK  5 active torsions:
REMARK  status: ('A' for Active; 'I' for Inactive)
REMARK       I    between atoms: C_2  and  N_3 
REMARK    1  A    between atoms: C_2  and  C_17 
REMARK    2  A    between atoms: N_3  and  N_4 
REMARK       I    between atoms: N_4  and  C_5 
REMARK    3  A    between atoms: C_5  and  C_7 
REMARK    4  A    between atoms: C_22  and  O_23 
REMARK    5  A    between atoms: O_23  and  C_24 
ROOT
ATOM      1  O   UNL d   1      27.756 -13.152   3.583  0.00  0.00    -0.264 OA
ATOM      2  C   UNL d   1      28.261 -14.125   3.045  0.00  0.00     0.286 C 
ATOM      3  N   UNL d   1      29.307 -14.815   3.681  0.00  0.00    -0.262 N 
ATOM      4  H   UNL d   1      29.838 -15.565   3.237  0.00  0.00     0.190 HD
ENDROOT
BRANCH   2   5
ATOM      5  C   UNL d   1      27.802 -14.617   1.735  0.00  0.00     0.103 A 
ATOM      6  C   UNL d   1      27.603 -15.914   1.297  0.00  0.00     0.049 A 
ATOM      7  C   UNL d   1      26.986 -15.889   0.013  0.00  0.00    -0.007 A 
ATOM      8  C   UNL d   1      26.527 -16.897  -0.852  0.00  0.00     0.016 A 
ATOM      9  C   UNL d   1      26.827 -14.557  -0.359  0.00  0.00     0.045 A 
ATOM     10  C   UNL d   1      25.916 -16.561  -2.064  0.00  0.00     0.038 A 
ATOM     11  C   UNL d   1      25.758 -15.232  -2.447  0.00  0.00     0.080 A 
ATOM     12  C   UNL d   1      26.225 -14.200  -1.596  0.00  0.00     0.067 A 
ATOM     13  N   UNL d   1      27.331 -13.805   0.698  0.00  0.00    -0.351 N 
ATOM     14  H   UNL d   1      27.331 -12.794   0.727  0.00  0.00     0.166 HD
BRANCH  11  15
ATOM     15  O   UNL d   1      25.155 -14.839  -3.619  0.00  0.00    -0.255 OA
BRANCH  15  16
ATOM     16  C   UNL d   1      25.986 -14.755  -4.779  0.00  0.00     0.530 C 
ATOM     17  F   UNL d   1      25.622 -15.666  -5.710  0.00  0.00    -0.144 F 
ATOM     18  F   UNL d   1      25.945 -13.518  -5.327  0.00  0.00    -0.144 F 
ATOM     19  F   UNL d   1      27.270 -15.009  -4.437  0.00  0.00    -0.144 F 
ENDBRANCH  15  16
ENDBRANCH  11  15
ENDBRANCH   2   5
BRANCH   3  20
ATOM     20  N   UNL d   1      29.777 -14.335   4.998  0.00  0.00    -0.267 N 
ATOM     21  C   UNL d   1      28.916 -14.326   6.070  0.00  0.00     0.244 C 
ATOM     22  O   UNL d   1      27.740 -14.673   5.855  0.00  0.00    -0.271 OA
ATOM     23  H   UNL d   1      30.756 -14.083   5.045  0.00  0.00     0.190 HD
BRANCH  21  24
ATOM     24  C   UNL d   1      29.313 -13.756   7.535  0.00  0.00     0.043 C 
ATOM     25  C   UNL d   1      29.217 -14.450   9.007  0.00  0.00     0.024 C 
ATOM     26  C   UNL d   1      29.706 -13.434  10.117  0.00  0.00    -0.013 C 
ATOM     27  C   UNL d   1      31.181 -13.146   9.793  0.00  0.00     0.009 C 
ATOM     28  C   UNL d   1      28.747 -12.233  10.050  0.00  0.00     0.009 C 
ATOM     29  C   UNL d   1      31.281 -12.394   8.473  0.00  0.00    -0.013 C 
ATOM     30  C   UNL d   1      30.407 -11.133   8.543  0.00  0.00     0.009 C 
ATOM     31  C   UNL d   1      30.800 -13.319   7.348  0.00  0.00     0.024 C 
ATOM     32  C   UNL d   1      28.930 -11.503   8.730  0.00  0.00    -0.013 C 
ATOM     33  C   UNL d   1      28.470 -12.436   7.612  0.00  0.00     0.024 C 
ENDBRANCH  21  24
ENDBRANCH   3  20
TORSDOF 5
ENDMDL
MODEL 3
REMARK VINA RESULT:    -7.377      5.045     11.043
REMARK INTER + INTRA:          -9.859
REMARK INTER:                  -8.869
REMARK INTRA:                  -0.990
REMARK CONF_INDEPENDENT:        1.492
REMARK UNBOUND:                -0.990
REMARK  5 active torsions:
REMARK  status: ('A' for Active; 'I' for Inactive)
REMARK       I    between atoms: C_2  and  N_3 
REMARK    1  A    between atoms: C_2  and  C_17 
REMARK    2  A    between atoms: N_3  and  N_4 
REMARK       I    between atoms: N_4  and  C_5 
REMARK    3  A    between atoms: C_5  and  C_7 
REMARK    4  A    between atoms: C_22  and  O_23 
REMARK    5  A    between atoms: O_23  and  C_24 
ROOT
ATOM      1  O   UNL d   1      26.746 -13.044   1.681  0.00  0.00    -0.264 OA
ATOM      2  C   UNL d   1      27.627 -13.718   2.190  0.00  0.00     0.286 C 
ATOM      3  N   UNL d   1      28.217 -14.767   1.464  0.00  0.00    -0.262 N 
ATOM      4  H   UNL d   1      28.878 -15.430   1.869  0.00  0.00     0.190 HD
ENDROOT
BRANCH   2   5
ATOM      5  C   UNL d   1      28.111 -13.466   3.558  0.00  0.00     0.103 A 
ATOM      6  C   UNL d   1      27.780 -12.456   4.443  0.00  0.00     0.049 A 
ATOM      7  C   UNL d   1      28.370 -12.726   5.711  0.00  0.00    -0.007 A 
ATOM      8  C   UNL d   1      28.321 -12.070   6.953  0.00  0.00     0.016 A 
ATOM      9  C   UNL d   1      29.100 -13.906   5.601  0.00  0.00     0.045 A 
ATOM     10  C   UNL d   1      28.991 -12.603   8.058  0.00  0.00     0.038 A 
ATOM     11  C   UNL d   1      29.728 -13.780   7.956  0.00  0.00     0.080 A 
ATOM     12  C   UNL d   1      29.802 -14.450   6.710  0.00  0.00     0.067 A 
ATOM     13  N   UNL d   1      28.930 -14.336   4.287  0.00  0.00    -0.351 N 
ATOM     14  H   UNL d   1      29.327 -15.187   3.912  0.00  0.00     0.166 HD
BRANCH  11  15
ATOM     15  O   UNL d   1      30.397 -14.358   9.009  0.00  0.00    -0.255 OA
BRANCH  15  16
ATOM     16  C   UNL d   1      29.600 -14.979  10.020  0.00  0.00     0.530 C 
ATOM     17  F   UNL d   1      28.435 -15.441   9.512  0.00  0.00    -0.144 F 
ATOM     18  F   UNL d   1      30.263 -16.000  10.612  0.00  0.00    -0.144 F 
ATOM     19  F   UNL d   1      29.300 -14.074  10.980  0.00  0.00    -0.144 F 
ENDBRANCH  15  16
ENDBRANCH  11  15
ENDBRANCH   2   5
BRANCH   3  20
ATOM     20  N   UNL d   1      27.745 -15.031   0.088  0.00  0.00    -0.267 N 
ATOM     21  C   UNL d   1      28.001 -14.121  -0.910  0.00  0.00     0.244 C 
ATOM     22  O   UNL d   1      28.577 -13.067  -0.582  0.00  0.00    -0.271 OA
ATOM     23  H   UNL d   1      27.291 -15.925  -0.052  0.00  0.00     0.190 HD
BRANCH  21  24
ATOM     24  C   UNL d   1      27.468 -14.284  -2.432  0.00  0.00     0.043 C 
ATOM     25  C   UNL d   1      28.147 -15.010  -3.724  0.00  0.00     0.024 C 
ATOM     26  C   UNL d   1      27.212 -14.847  -4.990  0.00  0.00    -0.013 C 
ATOM     27  C   UNL d   1      25.905 -15.575  -4.635  0.00  0.00     0.009 C 
ATOM     28  C   UNL d   1      27.101 -13.335  -5.248  0.00  0.00     0.009 C 
ATOM     29  C   UNL d   1      25.198 -14.841  -3.504  0.00  0.00    -0.013 C 
ATOM     30  C   UNL d   1      24.997 -13.372  -3.902  0.00  0.00     0.009 C 
ATOM     31  C   UNL d   1      26.065 -14.942  -2.242  0.00  0.00     0.024 C 
ATOM     32  C   UNL d   1      26.348 -12.673  -4.107  0.00  0.00    -0.013 C 
ATOM     33  C   UNL d   1      27.205 -12.795  -2.848  0.00  0.00     0.024 C 
ENDBRANCH  21  24
ENDBRANCH   3  20
TORSDOF 5
ENDMDL
MODEL 4
REMARK VINA RESULT:    -7.212      5.257     11.028
REMARK INTER + INTRA:          -9.719
REMARK INTER:                  -8.704
REMARK INTRA:                  -1.015
REMARK CONF_INDEPENDENT:        1.492
REMARK UNBOUND:                -1.015
REMARK  5 active torsions:
REMARK  status: ('A' for Active; 'I' for Inactive)
REMARK       I    between atoms: C_2  and  N_3 
REMARK    1  A    between atoms: C_2  and  C_17 
REMARK    2  A    between atoms: N_3  and  N_4 
REMARK       I    between atoms: N_4  and  C_5 
REMARK    3  A    between atoms: C_5  and  C_7 
REMARK    4  A    between atoms: C_22  and  O_23 
REMARK    5  A    between atoms: O_23  and  C_24 
ROOT
ATOM      1  O   UNL d   1      26.600 -13.394   1.745  0.00  0.00    -0.264 OA
ATOM      2  C   UNL d   1      27.479 -14.109   2.198  0.00  0.00     0.286 C 
ATOM      3  N   UNL d   1      28.129 -15.036   1.365  0.00  0.00    -0.262 N 
ATOM      4  H   UNL d   1      28.792 -15.732   1.708  0.00  0.00     0.190 HD
ENDROOT
BRANCH   2   5
ATOM      5  C   UNL d   1      27.899 -14.032   3.608  0.00  0.00     0.103 A 
ATOM      6  C   UNL d   1      28.912 -14.704   4.269  0.00  0.00     0.049 A 
ATOM      7  C   UNL d   1      29.053 -14.171   5.583  0.00  0.00    -0.007 A 
ATOM      8  C   UNL d   1      29.939 -14.444   6.639  0.00  0.00     0.016 A 
ATOM      9  C   UNL d   1      28.094 -13.176   5.746  0.00  0.00     0.045 A 
ATOM     10  C   UNL d   1      29.857 -13.717   7.831  0.00  0.00     0.038 A 
ATOM     11  C   UNL d   1      28.898 -12.724   8.005  0.00  0.00     0.080 A 
ATOM     12  C   UNL d   1      27.987 -12.443   6.958  0.00  0.00     0.067 A 
ATOM     13  N   UNL d   1      27.405 -13.110   4.538  0.00  0.00    -0.351 N 
ATOM     14  H   UNL d   1      26.658 -12.458   4.344  0.00  0.00     0.166 HD
BRANCH  11  15
ATOM     15  O   UNL d   1      28.777 -11.968   9.148  0.00  0.00    -0.255 OA
BRANCH  15  16
ATOM     16  C   UNL d   1      28.375 -12.653  10.338  0.00  0.00     0.530 C 
ATOM     17  F   UNL d   1      28.268 -13.984  10.125  0.00  0.00    -0.144 F 
ATOM     18  F   UNL d   1      29.245 -12.433  11.351  0.00  0.00    -0.144 F 
ATOM     19  F   UNL d   1      27.163 -12.201  10.733  0.00  0.00    -0.144 F 
ENDBRANCH  15  16
ENDBRANCH  11  15
ENDBRANCH   2   5
BRANCH   3  20
ATOM     20  N   UNL d   1      27.722 -15.124  -0.053  0.00  0.00    -0.267 N 
ATOM     21  C   UNL d   1      27.887 -14.039  -0.881  0.00  0.00     0.244 C 
ATOM     22  O   UNL d   1      28.326 -12.995  -0.365  0.00  0.00    -0.271 OA
ATOM     23  H   UNL d   1      27.381 -16.029  -0.352  0.00  0.00     0.190 HD
BRANCH  21  24
ATOM     24  C   UNL d   1      27.411 -14.012  -2.431  0.00  0.00     0.043 C 
ATOM     25  C   UNL d   1      28.279 -13.954  -3.809  0.00  0.00     0.024 C 
ATOM     26  C   UNL d   1      27.308 -13.909  -5.058  0.00  0.00    -0.013 C 
ATOM     27  C   UNL d   1      26.520 -15.228  -5.016  0.00  0.00     0.009 C 
ATOM     28  C   UNL d   1      26.485 -12.618  -4.914  0.00  0.00     0.009 C 
ATOM     29  C   UNL d   1      25.614 -15.249  -3.792  0.00  0.00    -0.013 C 
ATOM     30  C   UNL d   1      24.725 -13.998  -3.801  0.00  0.00     0.009 C 
ATOM     31  C   UNL d   1      26.496 -15.272  -2.536  0.00  0.00     0.024 C 
ATOM     32  C   UNL d   1      25.574 -12.723  -3.703  0.00  0.00    -0.013 C 
ATOM     33  C   UNL d   1      26.456 -12.768  -2.456  0.00  0.00     0.024 C 
ENDBRANCH  21  24
ENDBRANCH   3  20
TORSDOF 5
ENDMDL
MODEL 5
REMARK VINA RESULT:    -6.895      7.325     10.467
REMARK INTER + INTRA:         -10.064
REMARK INTER:                  -8.386
REMARK INTRA:                  -1.678
REMARK CONF_INDEPENDENT:        1.492
REMARK UNBOUND:                -1.678
REMARK  5 active torsions:
REMARK  status: ('A' for Active; 'I' for Inactive)
REMARK       I    between atoms: C_2  and  N_3 
REMARK    1  A    between atoms: C_2  and  C_17 
REMARK    2  A    between atoms: N_3  and  N_4 
REMARK       I    between atoms: N_4  and  C_5 
REMARK    3  A    between atoms: C_5  and  C_7 
REMARK    4  A    between atoms: C_22  and  O_23 
REMARK    5  A    between atoms: O_23  and  C_24 
ROOT
ATOM      1  O   UNL d   1      27.126  -9.639  -3.573  0.00  0.00    -0.264 OA
ATOM      2  C   UNL d   1      26.076  -9.930  -4.123  0.00  0.00     0.286 C 
ATOM      3  N   UNL d   1      25.585 -11.244  -4.047  0.00  0.00    -0.262 N 
ATOM      4  H   UNL d   1      24.775 -11.573  -4.573  0.00  0.00     0.190 HD
ENDROOT
BRANCH   2   5
ATOM      5  C   UNL d   1      25.286  -8.938  -4.871  0.00  0.00     0.103 A 
ATOM      6  C   UNL d   1      25.460  -8.451  -6.154  0.00  0.00     0.049 A 
ATOM      7  C   UNL d   1      24.345  -7.638  -6.507  0.00  0.00    -0.007 A 
ATOM      8  C   UNL d   1      23.990  -6.950  -7.680  0.00  0.00     0.016 A 
ATOM      9  C   UNL d   1      23.482  -7.599  -5.415  0.00  0.00     0.045 A 
ATOM     10  C   UNL d   1      22.784  -6.245  -7.745  0.00  0.00     0.038 A 
ATOM     11  C   UNL d   1      21.918  -6.196  -6.657  0.00  0.00     0.080 A 
ATOM     12  C   UNL d   1      22.262  -6.871  -5.460  0.00  0.00     0.067 A 
ATOM     13  N   UNL d   1      24.073  -8.392  -4.435  0.00  0.00    -0.351 N 
ATOM     14  H   UNL d   1      23.664  -8.574  -3.529  0.00  0.00     0.166 HD
BRANCH  11  15
ATOM     15  O   UNL d   1      20.714  -5.530  -6.666  0.00  0.00    -0.255 OA
BRANCH  15  16
ATOM     16  C   UNL d   1      19.637  -6.148  -7.375  0.00  0.00     0.530 C 
ATOM     17  F   UNL d   1      18.776  -5.224  -7.859  0.00  0.00    -0.144 F 
ATOM     18  F   UNL d   1      20.092  -6.910  -8.396  0.00  0.00    -0.144 F 
ATOM     19  F   UNL d   1      18.946  -6.954  -6.537  0.00  0.00    -0.144 F 
ENDBRANCH  15  16
ENDBRANCH  11  15
ENDBRANCH   2   5
BRANCH   3  20
ATOM     20  N   UNL d   1      26.365 -12.252  -3.298  0.00  0.00    -0.267 N 
ATOM     21  C   UNL d   1      25.912 -13.548  -3.220  0.00  0.00     0.244 C 
ATOM     22  O   UNL d   1      24.812 -13.797  -3.746  0.00  0.00    -0.271 OA
ATOM     23  H   UNL d   1      27.245 -11.927  -2.918  0.00  0.00     0.190 HD
BRANCH  21  24
ATOM     24  C   UNL d   1      26.657 -14.709  -2.368  0.00  0.00     0.043 C 
ATOM     25  C   UNL d   1      27.596 -15.950  -2.856  0.00  0.00     0.024 C 
ATOM     26  C   UNL d   1      28.041 -16.814  -1.608  0.00  0.00    -0.013 C 
ATOM     27  C   UNL d   1      28.875 -15.869  -0.727  0.00  0.00     0.009 C 
ATOM     28  C   UNL d   1      26.747 -17.362  -0.983  0.00  0.00     0.009 C 
ATOM     29  C   UNL d   1      27.987 -14.767  -0.168  0.00  0.00    -0.013 C 
ATOM     30  C   UNL d   1      26.795 -15.401   0.564  0.00  0.00     0.009 C 
ATOM     31  C   UNL d   1      27.499 -13.897  -1.334  0.00  0.00     0.024 C 
ATOM     32  C   UNL d   1      25.931 -16.218  -0.406  0.00  0.00    -0.013 C 
ATOM     33  C   UNL d   1      25.466 -15.343  -1.569  0.00  0.00     0.024 C 
ENDBRANCH  21  24
ENDBRANCH   3  20
TORSDOF 5
ENDMDL
MODEL 6
REMARK VINA RESULT:    -6.887      1.878      2.660
REMARK INTER + INTRA:          -9.871
REMARK INTER:                  -8.378
REMARK INTRA:                  -1.492
REMARK CONF_INDEPENDENT:        1.492
REMARK UNBOUND:                -1.492
REMARK  5 active torsions:
REMARK  status: ('A' for Active; 'I' for Inactive)
REMARK       I    between atoms: C_2  and  N_3 
REMARK    1  A    between atoms: C_2  and  C_17 
REMARK    2  A    between atoms: N_3  and  N_4 
REMARK       I    between atoms: N_4  and  C_5 
REMARK    3  A    between atoms: C_5  and  C_7 
REMARK    4  A    between atoms: C_22  and  O_23 
REMARK    5  A    between atoms: O_23  and  C_24 
ROOT
ATOM      1  O   UNL d   1      26.987 -12.812   3.352  0.00  0.00    -0.264 OA
ATOM      2  C   UNL d   1      27.491 -13.889   3.075  0.00  0.00     0.286 C 
ATOM      3  N   UNL d   1      28.099 -14.659   4.082  0.00  0.00    -0.262 N 
ATOM      4  H   UNL d   1      28.628 -15.511   3.896  0.00  0.00     0.190 HD
ENDROOT
BRANCH   2   5
ATOM      5  C   UNL d   1      27.480 -14.426   1.704  0.00  0.00     0.103 A 
ATOM      6  C   UNL d   1      26.662 -14.109   0.634  0.00  0.00     0.049 A 
ATOM      7  C   UNL d   1      27.143 -14.762  -0.538  0.00  0.00    -0.007 A 
ATOM      8  C   UNL d   1      26.729 -14.751  -1.880  0.00  0.00     0.016 A 
ATOM      9  C   UNL d   1      28.257 -15.515  -0.181  0.00  0.00     0.045 A 
ATOM     10  C   UNL d   1      27.435 -15.482  -2.840  0.00  0.00     0.038 A 
ATOM     11  C   UNL d   1      28.548 -16.243  -2.492  0.00  0.00     0.080 A 
ATOM     12  C   UNL d   1      28.973 -16.279  -1.142  0.00  0.00     0.067 A 
ATOM     13  N   UNL d   1      28.442 -15.298   1.182  0.00  0.00    -0.351 N 
ATOM     14  H   UNL d   1      29.196 -15.699   1.724  0.00  0.00     0.166 HD
BRANCH  11  15
ATOM     15  O   UNL d   1      29.289 -16.972  -3.393  0.00  0.00    -0.255 OA
BRANCH  15  16
ATOM     16  C   UNL d   1      29.659 -16.318  -4.609  0.00  0.00     0.530 C 
ATOM     17  F   UNL d   1      28.568 -15.951  -5.319  0.00  0.00    -0.144 F 
ATOM     18  F   UNL d   1      30.421 -15.226  -4.369  0.00  0.00    -0.144 F 
ATOM     19  F   UNL d   1      30.383 -17.164  -5.377  0.00  0.00    -0.144 F 
ENDBRANCH  15  16
ENDBRANCH  11  15
ENDBRANCH   2   5
BRANCH   3  20
ATOM     20  N   UNL d   1      28.115 -14.135   5.464  0.00  0.00    -0.267 N 
ATOM     21  C   UNL d   1      29.168 -14.434   6.296  0.00  0.00     0.244 C 
ATOM     22  O   UNL d   1      30.044 -15.200   5.850  0.00  0.00    -0.271 OA
ATOM     23  H   UNL d   1      27.348 -13.522   5.706  0.00  0.00     0.190 HD
BRANCH  21  24
ATOM     24  C   UNL d   1      29.248 -13.967   7.847  0.00  0.00     0.043 C 
ATOM     25  C   UNL d   1      28.905 -14.775   9.220  0.00  0.00     0.024 C 
ATOM     26  C   UNL d   1      29.121 -13.831  10.472  0.00  0.00    -0.013 C 
ATOM     27  C   UNL d   1      30.615 -13.469  10.462  0.00  0.00     0.009 C 
ATOM     28  C   UNL d   1      28.136 -12.663  10.301  0.00  0.00     0.009 C 
ATOM     29  C   UNL d   1      30.931 -12.614   9.243  0.00  0.00    -0.013 C 
ATOM     30  C   UNL d   1      30.000 -11.393   9.227  0.00  0.00     0.009 C 
ATOM     31  C   UNL d   1      30.720 -13.466   7.984  0.00  0.00     0.024 C 
ATOM     32  C   UNL d   1      28.534 -11.827   9.096  0.00  0.00    -0.013 C 
ATOM     33  C   UNL d   1      28.343 -12.686   7.848  0.00  0.00     0.024 C 
ENDBRANCH  21  24
ENDBRANCH   3  20
TORSDOF 5
ENDMDL
MODEL 7
REMARK VINA RESULT:    -6.710      5.457     11.233
REMARK INTER + INTRA:          -9.989
REMARK INTER:                  -8.201
REMARK INTRA:                  -1.788
REMARK CONF_INDEPENDENT:        1.492
REMARK UNBOUND:                -1.788
REMARK  5 active torsions:
REMARK  status: ('A' for Active; 'I' for Inactive)
REMARK       I    between atoms: C_2  and  N_3 
REMARK    1  A    between atoms: C_2  and  C_17 
REMARK    2  A    between atoms: N_3  and  N_4 
REMARK       I    between atoms: N_4  and  C_5 
REMARK    3  A    between atoms: C_5  and  C_7 
REMARK    4  A    between atoms: C_22  and  O_23 
REMARK    5  A    between atoms: O_23  and  C_24 
ROOT
ATOM      1  O   UNL d   1      26.998 -11.425   2.241  0.00  0.00    -0.264 OA
ATOM      2  C   UNL d   1      27.215 -12.558   2.641  0.00  0.00     0.286 C 
ATOM      3  N   UNL d   1      27.130 -13.644   1.753  0.00  0.00    -0.262 N 
ATOM      4  H   UNL d   1      27.194 -14.618   2.048  0.00  0.00     0.190 HD
ENDROOT
BRANCH   2   5
ATOM      5  C   UNL d   1      27.577 -12.835   4.041  0.00  0.00     0.103 A 
ATOM      6  C   UNL d   1      28.164 -13.957   4.599  0.00  0.00     0.049 A 
ATOM      7  C   UNL d   1      28.481 -13.695   5.963  0.00  0.00    -0.007 A 
ATOM      8  C   UNL d   1      29.117 -14.450   6.963  0.00  0.00     0.016 A 
ATOM      9  C   UNL d   1      28.059 -12.402   6.259  0.00  0.00     0.045 A 
ATOM     10  C   UNL d   1      29.326 -13.903   8.232  0.00  0.00     0.038 A 
ATOM     11  C   UNL d   1      28.902 -12.613   8.540  0.00  0.00     0.080 A 
ATOM     12  C   UNL d   1      28.246 -11.840   7.551  0.00  0.00     0.067 A 
ATOM     13  N   UNL d   1      27.512 -11.901   5.081  0.00  0.00    -0.351 N 
ATOM     14  H   UNL d   1      27.139 -10.967   4.980  0.00  0.00     0.166 HD
BRANCH  11  15
ATOM     15  O   UNL d   1      29.089 -12.018   9.766  0.00  0.00    -0.255 OA
BRANCH  15  16
ATOM     16  C   UNL d   1      28.461 -12.637  10.890  0.00  0.00     0.530 C 
ATOM     17  F   UNL d   1      28.827 -13.934  11.003  0.00  0.00    -0.144 F 
ATOM     18  F   UNL d   1      28.758 -11.989  12.040  0.00  0.00    -0.144 F 
ATOM     19  F   UNL d   1      27.118 -12.602  10.735  0.00  0.00    -0.144 F 
ENDBRANCH  15  16
ENDBRANCH  11  15
ENDBRANCH   2   5
BRANCH   3  20
ATOM     20  N   UNL d   1      26.771 -13.382   0.342  0.00  0.00    -0.267 N 
ATOM     21  C   UNL d   1      26.540 -14.435  -0.511  0.00  0.00     0.244 C 
ATOM     22  O   UNL d   1      26.709 -15.582  -0.056  0.00  0.00    -0.271 OA
ATOM     23  H   UNL d   1      26.661 -12.407   0.096  0.00  0.00     0.190 HD
BRANCH  21  24
ATOM     24  C   UNL d   1      26.207 -14.256  -2.088  0.00  0.00     0.043 C 
ATOM     25  C   UNL d   1      24.786 -14.293  -2.886  0.00  0.00     0.024 C 
ATOM     26  C   UNL d   1      25.031 -14.097  -4.437  0.00  0.00    -0.013 C 
ATOM     27  C   UNL d   1      25.653 -12.698  -4.583  0.00  0.00     0.009 C 
ATOM     28  C   UNL d   1      25.905 -15.280  -4.885  0.00  0.00     0.009 C 
ATOM     29  C   UNL d   1      27.033 -12.678  -3.942  0.00  0.00    -0.013 C 
ATOM     30  C   UNL d   1      27.888 -13.799  -4.549  0.00  0.00     0.009 C 
ATOM     31  C   UNL d   1      26.871 -12.885  -2.430  0.00  0.00     0.024 C 
ATOM     32  C   UNL d   1      27.280 -15.174  -4.246  0.00  0.00    -0.013 C 
ATOM     33  C   UNL d   1      27.110 -15.360  -2.739  0.00  0.00     0.024 C 
ENDBRANCH  21  24
ENDBRANCH   3  20
TORSDOF 5
ENDMDL
MODEL 8
REMARK VINA RESULT:    -6.661      2.172      3.403
REMARK INTER + INTRA:          -9.778
REMARK INTER:                  -8.152
REMARK INTRA:                  -1.626
REMARK CONF_INDEPENDENT:        1.492
REMARK UNBOUND:                -1.626
REMARK  5 active torsions:
REMARK  status: ('A' for Active; 'I' for Inactive)
REMARK       I    between atoms: C_2  and  N_3 
REMARK    1  A    between atoms: C_2  and  C_17 
REMARK    2  A    between atoms: N_3  and  N_4 
REMARK       I    between atoms: N_4  and  C_5 
REMARK    3  A    between atoms: C_5  and  C_7 
REMARK    4  A    between atoms: C_22  and  O_23 
REMARK    5  A    between atoms: O_23  and  C_24 
ROOT
ATOM      1  O   UNL d   1      27.316 -16.766   1.435  0.00  0.00    -0.264 OA
ATOM      2  C   UNL d   1      27.555 -15.782   0.753  0.00  0.00     0.286 C 
ATOM      3  N   UNL d   1      28.106 -14.634   1.347  0.00  0.00    -0.262 N 
ATOM      4  H   UNL d   1      28.227 -13.749   0.854  0.00  0.00     0.190 HD
ENDROOT
BRANCH   2   5
ATOM      5  C   UNL d   1      27.291 -15.753  -0.696  0.00  0.00     0.103 A 
ATOM      6  C   UNL d   1      26.095 -15.603  -1.375  0.00  0.00     0.049 A 
ATOM      7  C   UNL d   1      26.359 -15.461  -2.768  0.00  0.00    -0.007 A 
ATOM      8  C   UNL d   1      25.534 -15.237  -3.884  0.00  0.00     0.016 A 
ATOM      9  C   UNL d   1      27.735 -15.553  -2.955  0.00  0.00     0.045 A 
ATOM     10  C   UNL d   1      26.093 -15.104  -5.158  0.00  0.00     0.038 A 
ATOM     11  C   UNL d   1      27.468 -15.200  -5.355  0.00  0.00     0.080 A 
ATOM     12  C   UNL d   1      28.317 -15.438  -4.247  0.00  0.00     0.067 A 
ATOM     13  N   UNL d   1      28.279 -15.732  -1.686  0.00  0.00    -0.351 N 
ATOM     14  H   UNL d   1      29.270 -15.810  -1.498  0.00  0.00     0.166 HD
BRANCH  11  15
ATOM     15  O   UNL d   1      28.077 -15.064  -6.581  0.00  0.00    -0.255 OA
BRANCH  15  16
ATOM     16  C   UNL d   1      29.000 -13.983  -6.730  0.00  0.00     0.530 C 
ATOM     17  F   UNL d   1      30.248 -14.349  -6.359  0.00  0.00    -0.144 F 
ATOM     18  F   UNL d   1      29.029 -13.532  -8.006  0.00  0.00    -0.144 F 
ATOM     19  F   UNL d   1      28.623 -12.952  -5.939  0.00  0.00    -0.144 F 
ENDBRANCH  15  16
ENDBRANCH  11  15
ENDBRANCH   2   5
BRANCH   3  20
ATOM     20  N   UNL d   1      28.380 -14.647   2.800  0.00  0.00    -0.267 N 
ATOM     21  C   UNL d   1      28.465 -13.462   3.491  0.00  0.00     0.244 C 
ATOM     22  O   UNL d   1      28.365 -12.412   2.829  0.00  0.00    -0.271 OA
ATOM     23  H   UNL d   1      28.438 -15.565   3.223  0.00  0.00     0.190 HD
BRANCH  21  24
ATOM     24  C   UNL d   1      28.828 -13.366   5.068  0.00  0.00     0.043 C 
ATOM     25  C   UNL d   1      28.822 -14.508   6.231  0.00  0.00     0.024 C 
ATOM     26  C   UNL d   1      29.228 -13.867   7.620  0.00  0.00    -0.013 C 
ATOM     27  C   UNL d   1      30.663 -13.348   7.433  0.00  0.00     0.009 C 
ATOM     28  C   UNL d   1      28.156 -12.809   7.932  0.00  0.00     0.009 C 
ATOM     29  C   UNL d   1      30.669 -12.200   6.433  0.00  0.00    -0.013 C 
ATOM     30  C   UNL d   1      29.678 -11.122   6.894  0.00  0.00     0.009 C 
ATOM     31  C   UNL d   1      30.262 -12.750   5.059  0.00  0.00     0.024 C 
ATOM     32  C   UNL d   1      28.247 -11.674   6.926  0.00  0.00    -0.013 C 
ATOM     33  C   UNL d   1      27.862 -12.231   5.557  0.00  0.00     0.024 C 
ENDBRANCH  21  24
ENDBRANCH   3  20
TORSDOF 5
ENDMDL
MODEL 9
REMARK VINA RESULT:    -6.562      8.046     11.613
REMARK INTER + INTRA:          -9.720
REMARK INTER:                  -8.053
REMARK INTRA:                  -1.666
REMARK CONF_INDEPENDENT:        1.492
REMARK UNBOUND:                -1.666
REMARK  5 active torsions:
REMARK  status: ('A' for Active; 'I' for Inactive)
REMARK       I    between atoms: C_2  and  N_3 
REMARK    1  A    between atoms: C_2  and  C_17 
REMARK    2  A    between atoms: N_3  and  N_4 
REMARK       I    between atoms: N_4  and  C_5 
REMARK    3  A    between atoms: C_5  and  C_7 
REMARK    4  A    between atoms: C_22  and  O_23 
REMARK    5  A    between atoms: O_23  and  C_24 
ROOT
ATOM      1  O   UNL d   1      25.869 -13.140  -3.128  0.00  0.00    -0.264 OA
ATOM      2  C   UNL d   1      26.072 -14.319  -3.370  0.00  0.00     0.286 C 
ATOM      3  N   UNL d   1      26.887 -14.682  -4.456  0.00  0.00    -0.262 N 
ATOM      4  H   UNL d   1      27.007 -15.645  -4.772  0.00  0.00     0.190 HD
ENDROOT
BRANCH   2   5
ATOM      5  C   UNL d   1      25.493 -15.396  -2.548  0.00  0.00     0.103 A 
ATOM      6  C   UNL d   1      26.120 -16.334  -1.748  0.00  0.00     0.049 A 
ATOM      7  C   UNL d   1      25.138 -17.057  -1.011  0.00  0.00    -0.007 A 
ATOM      8  C   UNL d   1      25.220 -18.067  -0.037  0.00  0.00     0.016 A 
ATOM      9  C   UNL d   1      23.886 -16.578  -1.382  0.00  0.00     0.045 A 
ATOM     10  C   UNL d   1      24.057 -18.575   0.550  0.00  0.00     0.038 A 
ATOM     11  C   UNL d   1      22.799 -18.106   0.180  0.00  0.00     0.080 A 
ATOM     12  C   UNL d   1      22.694 -17.097  -0.809  0.00  0.00     0.067 A 
ATOM     13  N   UNL d   1      24.125 -15.573  -2.316  0.00  0.00    -0.351 N 
ATOM     14  H   UNL d   1      23.400 -15.020  -2.754  0.00  0.00     0.166 HD
BRANCH  11  15
ATOM     15  O   UNL d   1      21.622 -18.556   0.730  0.00  0.00    -0.255 OA
BRANCH  15  16
ATOM     16  C   UNL d   1      20.757 -19.314  -0.120  0.00  0.00     0.530 C 
ATOM     17  F   UNL d   1      20.664 -20.597   0.295  0.00  0.00    -0.144 F 
ATOM     18  F   UNL d   1      19.519 -18.772  -0.172  0.00  0.00    -0.144 F 
ATOM     19  F   UNL d   1      21.254 -19.324  -1.378  0.00  0.00    -0.144 F 
ENDBRANCH  15  16
ENDBRANCH  11  15
ENDBRANCH   2   5
BRANCH   3  20
ATOM     20  N   UNL d   1      27.479 -13.613  -5.289  0.00  0.00    -0.267 N 
ATOM     21  C   UNL d   1      28.050 -13.927  -6.499  0.00  0.00     0.244 C 
ATOM     22  O   UNL d   1      28.095 -15.132  -6.810  0.00  0.00    -0.271 OA
ATOM     23  H   UNL d   1      27.376 -12.674  -4.927  0.00  0.00     0.190 HD
BRANCH  21  24
ATOM     24  C   UNL d   1      28.784 -12.841  -7.453  0.00  0.00     0.043 C 
ATOM     25  C   UNL d   1      28.656 -12.576  -9.057  0.00  0.00     0.024 C 
ATOM     26  C   UNL d   1      29.630 -11.406  -9.491  0.00  0.00    -0.013 C 
ATOM     27  C   UNL d   1      29.140 -10.160  -8.736  0.00  0.00     0.009 C 
ATOM     28  C   UNL d   1      31.052 -11.889  -9.160  0.00  0.00     0.009 C 
ATOM     29  C   UNL d   1      29.360 -10.344  -7.241  0.00  0.00    -0.013 C 
ATOM     30  C   UNL d   1      30.836 -10.681  -6.984  0.00  0.00     0.009 C 
ATOM     31  C   UNL d   1      28.456 -11.484  -6.754  0.00  0.00     0.024 C 
ATOM     32  C   UNL d   1      31.217 -12.007  -7.654  0.00  0.00    -0.013 C 
ATOM     33  C   UNL d   1      30.299 -13.130  -7.171  0.00  0.00     0.024 C 
ENDBRANCH  21  24
ENDBRANCH   3  20
TORSDOF 5
ENDMDL
