MODEL 1
REMARK VINA RESULT:    -9.601      0.000      0.000
REMARK INTER + INTRA:         -13.711
REMARK INTER:                 -11.988
REMARK INTRA:                  -1.723
REMARK CONF_INDEPENDENT:        2.386
REMARK UNBOUND:                -1.723
REMARK  8 active torsions:
REMARK  status: ('A' for Active; 'I' for Inactive)
REMARK    1  A    between atoms: C_2  and  N_3 
REMARK    2  A    between atoms: N_6  and  C_7 
REMARK    3  A    between atoms: C_10  and  C_11 
REMARK    4  A    between atoms: C_11  and  O_13 
REMARK    5  A    between atoms: C_16  and  N_17 
REMARK    6  A    between atoms: N_17  and  C_18 
REMARK    7  A    between atoms: C_18  and  N_20 
REMARK       I    between atoms: N_20  and  C_21 
REMARK    8  A    between atoms: C_21  and  C_23 
ROOT
ATOM      1  C   UNL d   1      27.842 -11.988   2.059  0.00  0.00     0.052 C 
ATOM      2  C   UNL d   1      27.462 -11.180   3.158  0.00  0.00     0.032 C 
ATOM      3  C   UNL d   1      26.804  -9.937   3.017  0.00  0.00     0.020 C 
ATOM      4  C   UNL d   1      26.514  -9.415   1.755  0.00  0.00     0.041 C 
ATOM      5  C   UNL d   1      26.920 -10.155   0.636  0.00  0.00     0.043 C 
ATOM      6  C   UNL d   1      27.680 -11.375   0.757  0.00  0.00     0.042 C 
ENDROOT
BRANCH   6   7
ATOM      7  N   UNL d   1      28.130 -11.965  -0.555  0.00  0.00    -0.234 NA
ATOM      8  H   UNL d   1      28.736 -11.245  -0.961  0.00  0.00     0.136 HD
BRANCH   7   9
ATOM      9  C   UNL d   1      27.190 -12.190  -1.544  0.00  0.00     0.157 C 
ATOM     10  S   UNL d   1      27.617 -11.424  -2.984  0.00  0.00    -0.046 SA
BRANCH   9  11
ATOM     11  N   UNL d   1      26.204 -13.358  -1.277  0.00  0.00    -0.304 N 
ATOM     12  C   UNL d   1      25.705 -14.644  -1.993  0.00  0.00     0.259 C 
ATOM     13  O   UNL d   1      25.228 -14.793  -3.119  0.00  0.00    -0.267 OA
ATOM     14  H   UNL d   1      26.406 -13.644  -0.330  0.00  0.00     0.171 HD
BRANCH  12  15
ATOM     15  C   UNL d   1      25.647 -15.986  -1.428  0.00  0.00     0.055 A 
ATOM     16  C   UNL d   1      24.362 -16.631  -1.300  0.00  0.00     0.042 A 
ATOM     17  C   UNL d   1      24.185 -17.705  -0.449  0.00  0.00     0.035 A 
ATOM     18 CL   UNL d   1      22.615 -18.356  -0.170  0.00  0.00    -0.084 Cl
ATOM     19  C   UNL d   1      25.291 -18.183   0.226  0.00  0.00     0.025 A 
ATOM     20  C   UNL d   1      26.531 -17.522   0.132  0.00  0.00     0.026 A 
ATOM     21  C   UNL d   1      26.709 -16.406  -0.671  0.00  0.00     0.049 A 
ATOM     22 CL   UNL d   1      28.193 -15.537  -0.624  0.00  0.00    -0.083 Cl
ENDBRANCH  12  15
ENDBRANCH   9  11
ENDBRANCH   7   9
ENDBRANCH   6   7
BRANCH   1  23
ATOM     23  N   UNL d   1      28.277 -13.288   2.341  0.00  0.00    -0.376 N 
ATOM     24  C   UNL d   1      27.405 -14.272   2.917  0.00  0.00     0.150 C 
ATOM     25  C   UNL d   1      28.010 -14.780   4.219  0.00  0.00     0.254 C 
ATOM     26  N   UNL d   1      29.500 -14.949   4.559  0.00  0.00    -0.068 N 
ATOM     27  C   UNL d   1      30.364 -14.106   3.629  0.00  0.00     0.254 C 
ATOM     28  H   UNL d   1      29.646 -15.949   4.374  0.00  0.00     0.280 HD
ATOM     29  C   UNL d   1      29.681 -13.800   2.245  0.00  0.00     0.150 C 
BRANCH  26  30
ATOM     30  C   UNL d   1      30.030 -14.825   6.098  0.00  0.00     0.230 C 
ATOM     31  C   UNL d   1      29.272 -14.074   7.217  0.00  0.00     0.034 C 
ENDBRANCH  26  30
ENDBRANCH   1  23
BRANCH   4  32
ATOM     32  C   UNL d   1      25.904  -8.029   1.687  0.00  0.00     0.293 C 
ATOM     33  O   UNL d   1      25.134  -7.700   0.832  0.00  0.00    -0.259 OA
BRANCH  32  34
ATOM     34  O   UNL d   1      26.285  -7.253   2.753  0.00  0.00    -0.323 OA
ATOM     35  C   UNL d   1      27.055  -6.094   2.377  0.00  0.00     0.213 C 
ENDBRANCH  32  34
ENDBRANCH   4  32
TORSDOF 8
ENDMDL
MODEL 2
REMARK VINA RESULT:    -9.144      5.163      7.827
REMARK INTER + INTRA:         -13.567
REMARK INTER:                 -11.531
REMARK INTRA:                  -2.036
REMARK CONF_INDEPENDENT:        2.386
REMARK UNBOUND:                -2.036
REMARK  8 active torsions:
REMARK  status: ('A' for Active; 'I' for Inactive)
REMARK    1  A    between atoms: C_2  and  N_3 
REMARK    2  A    between atoms: N_6  and  C_7 
REMARK    3  A    between atoms: C_10  and  C_11 
REMARK    4  A    between atoms: C_11  and  O_13 
REMARK    5  A    between atoms: C_16  and  N_17 
REMARK    6  A    between atoms: N_17  and  C_18 
REMARK    7  A    between atoms: C_18  and  N_20 
REMARK       I    between atoms: N_20  and  C_21 
REMARK    8  A    between atoms: C_21  and  C_23 
ROOT
ATOM      1  C   UNL d   1      25.894 -17.082  -0.028  0.00  0.00     0.052 C 
ATOM      2  C   UNL d   1      25.205 -18.152   0.591  0.00  0.00     0.032 C 
ATOM      3  C   UNL d   1      23.885 -18.526   0.251  0.00  0.00     0.020 C 
ATOM      4  C   UNL d   1      23.165 -17.823  -0.717  0.00  0.00     0.041 C 
ATOM      5  C   UNL d   1      23.788 -16.721  -1.319  0.00  0.00     0.043 C 
ATOM      6  C   UNL d   1      25.094 -16.263  -0.915  0.00  0.00     0.042 C 
ENDROOT
BRANCH   6   7
ATOM      7  N   UNL d   1      25.549 -14.994  -1.589  0.00  0.00    -0.234 NA
ATOM      8  H   UNL d   1      24.865 -14.291  -1.292  0.00  0.00     0.136 HD
BRANCH   7   9
ATOM      9  C   UNL d   1      25.509 -14.920  -2.970  0.00  0.00     0.157 C 
ATOM     10  S   UNL d   1      24.165 -14.049  -3.499  0.00  0.00    -0.046 SA
BRANCH   9  11
ATOM     11  N   UNL d   1      26.832 -15.273  -3.698  0.00  0.00    -0.304 N 
ATOM     12  C   UNL d   1      27.435 -15.174  -5.127  0.00  0.00     0.259 C 
ATOM     13  O   UNL d   1      26.994 -15.575  -6.205  0.00  0.00    -0.267 OA
ATOM     14  H   UNL d   1      27.556 -14.932  -3.082  0.00  0.00     0.171 HD
BRANCH  12  15
ATOM     15  C   UNL d   1      28.729 -14.609  -5.488  0.00  0.00     0.055 A 
ATOM     16  C   UNL d   1      28.767 -13.447  -6.342  0.00  0.00     0.042 A 
ATOM     17  C   UNL d   1      29.918 -13.098  -7.022  0.00  0.00     0.035 A 
ATOM     18 CL   UNL d   1      29.905 -11.816  -8.172  0.00  0.00    -0.084 Cl
ATOM     19  C   UNL d   1      31.049 -13.860  -6.808  0.00  0.00     0.025 A 
ATOM     20  C   UNL d   1      30.995 -15.018  -6.009  0.00  0.00     0.026 A 
ATOM     21  C   UNL d   1      29.830 -15.415  -5.369  0.00  0.00     0.049 A 
ATOM     22 CL   UNL d   1      29.771 -16.923  -4.543  0.00  0.00    -0.083 Cl
ENDBRANCH  12  15
ENDBRANCH   9  11
ENDBRANCH   7   9
ENDBRANCH   6   7
BRANCH   1  23
ATOM     23  N   UNL d   1      27.263 -16.963   0.240  0.00  0.00    -0.376 N 
ATOM     24  C   UNL d   1      27.766 -16.059   1.234  0.00  0.00     0.150 C 
ATOM     25  C   UNL d   1      28.752 -15.096   0.586  0.00  0.00     0.254 C 
ATOM     26  N   UNL d   1      29.710 -15.378  -0.584  0.00  0.00    -0.068 N 
ATOM     27  C   UNL d   1      29.252 -16.599  -1.372  0.00  0.00     0.254 C 
ATOM     28  H   UNL d   1      30.589 -15.579  -0.092  0.00  0.00     0.280 HD
ATOM     29  C   UNL d   1      28.381 -17.601  -0.526  0.00  0.00     0.150 C 
BRANCH  26  30
ATOM     30  C   UNL d   1      30.172 -14.186  -1.597  0.00  0.00     0.230 C 
ATOM     31  C   UNL d   1      29.192 -13.336  -2.439  0.00  0.00     0.034 C 
ENDBRANCH  26  30
ENDBRANCH   1  23
BRANCH   4  32
ATOM     32  C   UNL d   1      21.720 -18.219  -0.948  0.00  0.00     0.293 C 
ATOM     33  O   UNL d   1      20.866 -17.427  -1.225  0.00  0.00    -0.259 OA
BRANCH  32  34
ATOM     34  O   UNL d   1      21.547 -19.578  -0.874  0.00  0.00    -0.323 OA
ATOM     35  C   UNL d   1      20.230 -19.969  -0.439  0.00  0.00     0.213 C 
ENDBRANCH  32  34
ENDBRANCH   4  32
TORSDOF 8
ENDMDL
MODEL 3
REMARK VINA RESULT:    -8.775      5.573      8.004
REMARK INTER + INTRA:         -12.758
REMARK INTER:                 -11.161
REMARK INTRA:                  -1.596
REMARK CONF_INDEPENDENT:        2.386
REMARK UNBOUND:                -1.596
REMARK  8 active torsions:
REMARK  status: ('A' for Active; 'I' for Inactive)
REMARK    1  A    between atoms: C_2  and  N_3 
REMARK    2  A    between atoms: N_6  and  C_7 
REMARK    3  A    between atoms: C_10  and  C_11 
REMARK    4  A    between atoms: C_11  and  O_13 
REMARK    5  A    between atoms: C_16  and  N_17 
REMARK    6  A    between atoms: N_17  and  C_18 
REMARK    7  A    between atoms: C_18  and  N_20 
REMARK       I    between atoms: N_20  and  C_21 
REMARK    8  A    between atoms: C_21  and  C_23 
ROOT
ATOM      1  C   UNL d   1      26.628 -16.451  -1.321  0.00  0.00     0.052 C 
ATOM      2  C   UNL d   1      26.350 -17.134  -0.113  0.00  0.00     0.032 C 
ATOM      3  C   UNL d   1      25.139 -17.823   0.128  0.00  0.00     0.020 C 
ATOM      4  C   UNL d   1      24.119 -17.841  -0.824  0.00  0.00     0.041 C 
ATOM      5  C   UNL d   1      24.329 -17.132  -2.015  0.00  0.00     0.043 C 
ATOM      6  C   UNL d   1      25.514 -16.342  -2.240  0.00  0.00     0.042 C 
ENDROOT
BRANCH   6   7
ATOM      7  N   UNL d   1      25.509 -15.554  -3.525  0.00  0.00    -0.234 NA
ATOM      8  H   UNL d   1      26.059 -16.127  -4.174  0.00  0.00     0.136 HD
BRANCH   7   9
ATOM      9  C   UNL d   1      26.147 -14.328  -3.559  0.00  0.00     0.157 C 
ATOM     10  S   UNL d   1      25.533 -13.283  -2.387  0.00  0.00    -0.046 SA
BRANCH   9  11
ATOM     11  N   UNL d   1      27.487 -14.292  -4.341  0.00  0.00    -0.304 N 
ATOM     12  C   UNL d   1      28.001 -14.575  -5.779  0.00  0.00     0.259 C 
ATOM     13  O   UNL d   1      27.872 -15.575  -6.487  0.00  0.00    -0.267 OA
ATOM     14  H   UNL d   1      27.905 -13.411  -4.080  0.00  0.00     0.171 HD
BRANCH  12  15
ATOM     15  C   UNL d   1      28.825 -13.695  -6.597  0.00  0.00     0.055 A 
ATOM     16  C   UNL d   1      28.182 -12.840  -7.566  0.00  0.00     0.042 A 
ATOM     17  C   UNL d   1      28.894 -12.283  -8.611  0.00  0.00     0.035 A 
ATOM     18 CL   UNL d   1      28.087 -11.410  -9.858  0.00  0.00    -0.084 Cl
ATOM     19  C   UNL d   1      30.253 -12.517  -8.662  0.00  0.00     0.025 A 
ATOM     20  C   UNL d   1      30.868 -13.388  -7.741  0.00  0.00     0.026 A 
ATOM     21  C   UNL d   1      30.154 -14.003  -6.723  0.00  0.00     0.049 A 
ATOM     22 CL   UNL d   1      30.914 -15.184  -5.729  0.00  0.00    -0.083 Cl
ENDBRANCH  12  15
ENDBRANCH   9  11
ENDBRANCH   7   9
ENDBRANCH   6   7
BRANCH   1  23
ATOM     23  N   UNL d   1      27.942 -16.008  -1.517  0.00  0.00    -0.376 N 
ATOM     24  C   UNL d   1      28.839 -16.669  -2.421  0.00  0.00     0.150 C 
ATOM     25  C   UNL d   1      30.084 -17.110  -1.662  0.00  0.00     0.254 C 
ATOM     26  N   UNL d   1      30.758 -16.404  -0.473  0.00  0.00    -0.068 N 
ATOM     27  C   UNL d   1      29.787 -15.444   0.204  0.00  0.00     0.254 C 
ATOM     28  H   UNL d   1      31.510 -15.882  -0.938  0.00  0.00     0.280 HD
ATOM     29  C   UNL d   1      28.645 -14.931  -0.750  0.00  0.00     0.150 C 
BRANCH  26  30
ATOM     30  C   UNL d   1      31.594 -17.251   0.643  0.00  0.00     0.230 C 
ATOM     31  C   UNL d   1      32.561 -16.614   1.667  0.00  0.00     0.034 C 
ENDBRANCH  26  30
ENDBRANCH   1  23
BRANCH   4  32
ATOM     32  C   UNL d   1      22.812 -18.509  -0.447  0.00  0.00     0.293 C 
ATOM     33  O   UNL d   1      22.417 -18.572   0.681  0.00  0.00    -0.259 OA
BRANCH  32  34
ATOM     34  O   UNL d   1      22.129 -18.951  -1.552  0.00  0.00    -0.323 OA
ATOM     35  C   UNL d   1      20.764 -19.322  -1.277  0.00  0.00     0.213 C 
ENDBRANCH  32  34
ENDBRANCH   4  32
TORSDOF 8
ENDMDL
MODEL 4
REMARK VINA RESULT:    -8.748      4.886      7.097
REMARK INTER + INTRA:         -13.594
REMARK INTER:                 -11.134
REMARK INTRA:                  -2.460
REMARK CONF_INDEPENDENT:        2.386
REMARK UNBOUND:                -2.460
REMARK  8 active torsions:
REMARK  status: ('A' for Active; 'I' for Inactive)
REMARK    1  A    between atoms: C_2  and  N_3 
REMARK    2  A    between atoms: N_6  and  C_7 
REMARK    3  A    between atoms: C_10  and  C_11 
REMARK    4  A    between atoms: C_11  and  O_13 
REMARK    5  A    between atoms: C_16  and  N_17 
REMARK    6  A    between atoms: N_17  and  C_18 
REMARK    7  A    between atoms: C_18  and  N_20 
REMARK       I    between atoms: N_20  and  C_21 
REMARK    8  A    between atoms: C_21  and  C_23 
ROOT
ATOM      1  C   UNL d   1      26.440 -16.637  -0.928  0.00  0.00     0.052 C 
ATOM      2  C   UNL d   1      26.224 -17.805  -0.159  0.00  0.00     0.032 C 
ATOM      3  C   UNL d   1      24.957 -18.415  -0.012  0.00  0.00     0.020 C 
ATOM      4  C   UNL d   1      23.821 -17.866  -0.608  0.00  0.00     0.041 C 
ATOM      5  C   UNL d   1      23.977 -16.678  -1.335  0.00  0.00     0.043 C 
ATOM      6  C   UNL d   1      25.240 -15.987  -1.414  0.00  0.00     0.042 C 
ENDROOT
BRANCH   6   7
ATOM      7  N   UNL d   1      25.188 -14.665  -2.137  0.00  0.00    -0.234 NA
ATOM      8  H   UNL d   1      24.204 -14.382  -2.075  0.00  0.00     0.136 HD
BRANCH   7   9
ATOM      9  C   UNL d   1      25.445 -14.637  -3.496  0.00  0.00     0.157 C 
ATOM     10  S   UNL d   1      24.686 -13.327  -4.238  0.00  0.00    -0.046 SA
BRANCH   9  11
ATOM     11  N   UNL d   1      26.631 -15.517  -3.971  0.00  0.00    -0.304 N 
ATOM     12  C   UNL d   1      27.799 -15.440  -4.993  0.00  0.00     0.259 C 
ATOM     13  O   UNL d   1      27.783 -15.200  -6.202  0.00  0.00    -0.267 OA
ATOM     14  H   UNL d   1      27.050 -15.855  -3.117  0.00  0.00     0.171 HD
BRANCH  12  15
ATOM     15  C   UNL d   1      29.207 -15.704  -4.726  0.00  0.00     0.055 A 
ATOM     16  C   UNL d   1      29.655 -17.074  -4.651  0.00  0.00     0.042 A 
ATOM     17  C   UNL d   1      30.851 -17.400  -4.039  0.00  0.00     0.035 A 
ATOM     18 CL   UNL d   1      31.293 -19.048  -3.799  0.00  0.00    -0.084 Cl
ATOM     19  C   UNL d   1      31.633 -16.369  -3.559  0.00  0.00     0.025 A 
ATOM     20  C   UNL d   1      31.169 -15.040  -3.595  0.00  0.00     0.026 A 
ATOM     21  C   UNL d   1      29.944 -14.703  -4.151  0.00  0.00     0.049 A 
ATOM     22 CL   UNL d   1      29.351 -13.093  -4.021  0.00  0.00    -0.083 Cl
ENDBRANCH  12  15
ENDBRANCH   9  11
ENDBRANCH   7   9
ENDBRANCH   6   7
BRANCH   1  23
ATOM     23  N   UNL d   1      27.768 -16.270  -1.176  0.00  0.00    -0.376 N 
ATOM     24  C   UNL d   1      28.834 -17.230  -1.170  0.00  0.00     0.150 C 
ATOM     25  C   UNL d   1      29.882 -16.813  -0.146  0.00  0.00     0.254 C 
ATOM     26  N   UNL d   1      30.288 -15.385   0.253  0.00  0.00    -0.068 N 
ATOM     27  C   UNL d   1      29.201 -14.388  -0.131  0.00  0.00     0.254 C 
ATOM     28  H   UNL d   1      31.128 -15.237  -0.320  0.00  0.00     0.280 HD
ATOM     29  C   UNL d   1      28.297 -14.877  -1.323  0.00  0.00     0.150 C 
BRANCH  26  30
ATOM     30  C   UNL d   1      30.856 -15.060   1.748  0.00  0.00     0.230 C 
ATOM     31  C   UNL d   1      30.196 -14.061   2.727  0.00  0.00     0.034 C 
ENDBRANCH  26  30
ENDBRANCH   1  23
BRANCH   4  32
ATOM     32  C   UNL d   1      22.485 -18.519  -0.315  0.00  0.00     0.293 C 
ATOM     33  O   UNL d   1      22.016 -18.573   0.786  0.00  0.00    -0.259 OA
BRANCH  32  34
ATOM     34  O   UNL d   1      21.869 -18.956  -1.460  0.00  0.00    -0.323 OA
ATOM     35  C   UNL d   1      20.489 -19.324  -1.270  0.00  0.00     0.213 C 
ENDBRANCH  32  34
ENDBRANCH   4  32
TORSDOF 8
ENDMDL
MODEL 5
REMARK VINA RESULT:    -8.596      4.978      7.447
REMARK INTER + INTRA:         -13.302
REMARK INTER:                 -10.982
REMARK INTRA:                  -2.320
REMARK CONF_INDEPENDENT:        2.386
REMARK UNBOUND:                -2.320
REMARK  8 active torsions:
REMARK  status: ('A' for Active; 'I' for Inactive)
REMARK    1  A    between atoms: C_2  and  N_3 
REMARK    2  A    between atoms: N_6  and  C_7 
REMARK    3  A    between atoms: C_10  and  C_11 
REMARK    4  A    between atoms: C_11  and  O_13 
REMARK    5  A    between atoms: C_16  and  N_17 
REMARK    6  A    between atoms: N_17  and  C_18 
REMARK    7  A    between atoms: C_18  and  N_20 
REMARK       I    between atoms: N_20  and  C_21 
REMARK    8  A    between atoms: C_21  and  C_23 
ROOT
ATOM      1  C   UNL d   1      26.000 -16.844  -0.324  0.00  0.00     0.052 C 
ATOM      2  C   UNL d   1      25.369 -17.901   0.374  0.00  0.00     0.032 C 
ATOM      3  C   UNL d   1      24.042 -18.317   0.120  0.00  0.00     0.020 C 
ATOM      4  C   UNL d   1      23.256 -17.671  -0.836  0.00  0.00     0.041 C 
ATOM      5  C   UNL d   1      23.820 -16.583  -1.515  0.00  0.00     0.043 C 
ATOM      6  C   UNL d   1      25.135 -16.080  -1.201  0.00  0.00     0.042 C 
ENDROOT
BRANCH   6   7
ATOM      7  N   UNL d   1      25.525 -14.831  -1.950  0.00  0.00    -0.234 NA
ATOM      8  H   UNL d   1      24.814 -14.143  -1.680  0.00  0.00     0.136 HD
BRANCH   7   9
ATOM      9  C   UNL d   1      25.462 -14.834  -3.331  0.00  0.00     0.157 C 
ATOM     10  S   UNL d   1      24.352 -13.699  -3.899  0.00  0.00    -0.046 SA
BRANCH   9  11
ATOM     11  N   UNL d   1      26.639 -15.542  -4.053  0.00  0.00    -0.304 N 
ATOM     12  C   UNL d   1      27.627 -15.258  -5.219  0.00  0.00     0.259 C 
ATOM     13  O   UNL d   1      27.406 -14.923  -6.384  0.00  0.00    -0.267 OA
ATOM     14  H   UNL d   1      27.212 -15.902  -3.304  0.00  0.00     0.171 HD
BRANCH  12  15
ATOM     15  C   UNL d   1      29.077 -15.392  -5.182  0.00  0.00     0.055 A 
ATOM     16  C   UNL d   1      29.649 -16.692  -4.925  0.00  0.00     0.042 A 
ATOM     17  C   UNL d   1      30.958 -16.825  -4.504  0.00  0.00     0.035 A 
ATOM     18 CL   UNL d   1      31.578 -18.362  -4.033  0.00  0.00    -0.084 Cl
ATOM     19  C   UNL d   1      31.721 -15.680  -4.397  0.00  0.00     0.025 A 
ATOM     20  C   UNL d   1      31.146 -14.412  -4.604  0.00  0.00     0.026 A 
ATOM     21  C   UNL d   1      29.816 -14.259  -4.969  0.00  0.00     0.049 A 
ATOM     22 CL   UNL d   1      29.119 -12.688  -5.047  0.00  0.00    -0.083 Cl
ENDBRANCH  12  15
ENDBRANCH   9  11
ENDBRANCH   7   9
ENDBRANCH   6   7
BRANCH   1  23
ATOM     23  N   UNL d   1      27.378 -16.684  -0.136  0.00  0.00    -0.376 N 
ATOM     24  C   UNL d   1      27.912 -15.958   0.981  0.00  0.00     0.150 C 
ATOM     25  C   UNL d   1      28.787 -14.821   0.469  0.00  0.00     0.254 C 
ATOM     26  N   UNL d   1      29.659 -14.805  -0.797  0.00  0.00    -0.068 N 
ATOM     27  C   UNL d   1      29.204 -15.879  -1.778  0.00  0.00     0.254 C 
ATOM     28  H   UNL d   1      30.585 -15.036  -0.418  0.00  0.00     0.280 HD
ATOM     29  C   UNL d   1      28.461 -17.083  -1.089  0.00  0.00     0.150 C 
BRANCH  26  30
ATOM     30  C   UNL d   1      29.971 -13.410  -1.584  0.00  0.00     0.230 C 
ATOM     31  C   UNL d   1      29.018 -12.192  -1.599  0.00  0.00     0.034 C 
ENDBRANCH  26  30
ENDBRANCH   1  23
BRANCH   4  32
ATOM     32  C   UNL d   1      21.811 -18.107  -0.973  0.00  0.00     0.293 C 
ATOM     33  O   UNL d   1      20.927 -17.348  -1.253  0.00  0.00    -0.259 OA
BRANCH  32  34
ATOM     34  O   UNL d   1      21.671 -19.462  -0.812  0.00  0.00    -0.323 OA
ATOM     35  C   UNL d   1      20.651 -19.828   0.138  0.00  0.00     0.213 C 
ENDBRANCH  32  34
ENDBRANCH   4  32
TORSDOF 8
ENDMDL
MODEL 6
REMARK VINA RESULT:    -8.280      5.448      8.819
REMARK INTER + INTRA:         -12.758
REMARK INTER:                 -10.667
REMARK INTRA:                  -2.091
REMARK CONF_INDEPENDENT:        2.386
REMARK UNBOUND:                -2.091
REMARK  8 active torsions:
REMARK  status: ('A' for Active; 'I' for Inactive)
REMARK    1  A    between atoms: C_2  and  N_3 
REMARK    2  A    between atoms: N_6  and  C_7 
REMARK    3  A    between atoms: C_10  and  C_11 
REMARK    4  A    between atoms: C_11  and  O_13 
REMARK    5  A    between atoms: C_16  and  N_17 
REMARK    6  A    between atoms: N_17  and  C_18 
REMARK    7  A    between atoms: C_18  and  N_20 
REMARK       I    between atoms: N_20  and  C_21 
REMARK    8  A    between atoms: C_21  and  C_23 
ROOT
ATOM      1  C   UNL d   1      26.340 -16.110  -1.305  0.00  0.00     0.052 C 
ATOM      2  C   UNL d   1      26.300 -17.290  -0.525  0.00  0.00     0.032 C 
ATOM      3  C   UNL d   1      25.113 -18.018  -0.278  0.00  0.00     0.020 C 
ATOM      4  C   UNL d   1      23.885 -17.582  -0.779  0.00  0.00     0.041 C 
ATOM      5  C   UNL d   1      23.867 -16.388  -1.512  0.00  0.00     0.043 C 
ATOM      6  C   UNL d   1      25.048 -15.580  -1.690  0.00  0.00     0.042 C 
ENDROOT
BRANCH   6   7
ATOM      7  N   UNL d   1      24.812 -14.272  -2.402  0.00  0.00    -0.234 NA
ATOM      8  H   UNL d   1      23.799 -14.248  -2.556  0.00  0.00     0.136 HD
BRANCH   7   9
ATOM      9  C   UNL d   1      25.335 -14.099  -3.671  0.00  0.00     0.157 C 
ATOM     10  S   UNL d   1      25.535 -15.575  -4.460  0.00  0.00    -0.046 SA
BRANCH   9  11
ATOM     11  N   UNL d   1      25.256 -12.656  -4.236  0.00  0.00    -0.304 N 
ATOM     12  C   UNL d   1      26.227 -11.547  -4.728  0.00  0.00     0.259 C 
ATOM     13  O   UNL d   1      27.200 -11.037  -4.170  0.00  0.00    -0.267 OA
ATOM     14  H   UNL d   1      24.530 -12.700  -4.935  0.00  0.00     0.171 HD
BRANCH  12  15
ATOM     15  C   UNL d   1      26.143 -10.812  -5.983  0.00  0.00     0.055 A 
ATOM     16  C   UNL d   1      26.818 -11.340  -7.144  0.00  0.00     0.042 A 
ATOM     17  C   UNL d   1      27.102 -10.535  -8.232  0.00  0.00     0.035 A 
ATOM     18 CL   UNL d   1      28.061 -11.127  -9.535  0.00  0.00    -0.084 Cl
ATOM     19  C   UNL d   1      26.662  -9.227  -8.199  0.00  0.00     0.025 A 
ATOM     20  C   UNL d   1      26.044  -8.706  -7.046  0.00  0.00     0.026 A 
ATOM     21  C   UNL d   1      25.807  -9.485  -5.924  0.00  0.00     0.049 A 
ATOM     22 CL   UNL d   1      25.203  -8.762  -4.484  0.00  0.00    -0.083 Cl
ENDBRANCH  12  15
ENDBRANCH   9  11
ENDBRANCH   7   9
ENDBRANCH   6   7
BRANCH   1  23
ATOM     23  N   UNL d   1      27.603 -15.619  -1.658  0.00  0.00    -0.376 N 
ATOM     24  C   UNL d   1      27.997 -14.267  -1.377  0.00  0.00     0.150 C 
ATOM     25  C   UNL d   1      28.388 -13.578  -2.678  0.00  0.00     0.254 C 
ATOM     26  N   UNL d   1      29.053 -14.209  -3.913  0.00  0.00    -0.068 N 
ATOM     27  C   UNL d   1      28.862 -15.721  -3.913  0.00  0.00     0.254 C 
ATOM     28  H   UNL d   1      30.041 -13.973  -3.763  0.00  0.00     0.280 HD
ATOM     29  C   UNL d   1      28.638 -16.325  -2.477  0.00  0.00     0.150 C 
BRANCH  26  30
ATOM     30  C   UNL d   1      28.799 -13.602  -5.406  0.00  0.00     0.230 C 
ATOM     31  C   UNL d   1      28.600 -14.469  -6.670  0.00  0.00     0.034 C 
ENDBRANCH  26  30
ENDBRANCH   1  23
BRANCH   4  32
ATOM     32  C   UNL d   1      22.645 -18.358  -0.380  0.00  0.00     0.293 C 
ATOM     33  O   UNL d   1      22.211 -18.360   0.736  0.00  0.00    -0.259 OA
BRANCH  32  34
ATOM     34  O   UNL d   1      22.063 -18.975  -1.458  0.00  0.00    -0.323 OA
ATOM     35  C   UNL d   1      20.664 -19.268  -1.270  0.00  0.00     0.213 C 
ENDBRANCH  32  34
ENDBRANCH   4  32
TORSDOF 8
ENDMDL
MODEL 7
REMARK VINA RESULT:    -8.244      3.328      5.322
REMARK INTER + INTRA:         -12.884
REMARK INTER:                 -10.631
REMARK INTRA:                  -2.253
REMARK CONF_INDEPENDENT:        2.386
REMARK UNBOUND:                -2.253
REMARK  8 active torsions:
REMARK  status: ('A' for Active; 'I' for Inactive)
REMARK    1  A    between atoms: C_2  and  N_3 
REMARK    2  A    between atoms: N_6  and  C_7 
REMARK    3  A    between atoms: C_10  and  C_11 
REMARK    4  A    between atoms: C_11  and  O_13 
REMARK    5  A    between atoms: C_16  and  N_17 
REMARK    6  A    between atoms: N_17  and  C_18 
REMARK    7  A    between atoms: C_18  and  N_20 
REMARK       I    between atoms: N_20  and  C_21 
REMARK    8  A    between atoms: C_21  and  C_23 
ROOT
ATOM      1  C   UNL d   1      30.251 -14.667  -0.525  0.00  0.00     0.052 C 
ATOM      2  C   UNL d   1      30.699 -15.780  -1.275  0.00  0.00     0.032 C 
ATOM      3  C   UNL d   1      30.195 -16.109  -2.555  0.00  0.00     0.020 C 
ATOM      4  C   UNL d   1      29.183 -15.351  -3.145  0.00  0.00     0.041 C 
ATOM      5  C   UNL d   1      28.669 -14.271  -2.416  0.00  0.00     0.043 C 
ATOM      6  C   UNL d   1      29.099 -13.979  -1.071  0.00  0.00     0.042 C 
ENDROOT
BRANCH   6   7
ATOM      7  N   UNL d   1      28.349 -12.855  -0.402  0.00  0.00    -0.234 NA
ATOM      8  H   UNL d   1      29.074 -12.334   0.103  0.00  0.00     0.136 HD
BRANCH   7   9
ATOM      9  C   UNL d   1      27.426 -13.160   0.582  0.00  0.00     0.157 C 
ATOM     10  S   UNL d   1      27.556 -12.109   1.894  0.00  0.00    -0.046 SA
BRANCH   9  11
ATOM     11  N   UNL d   1      26.261 -14.086   0.143  0.00  0.00    -0.304 N 
ATOM     12  C   UNL d   1      25.905 -15.020  -1.046  0.00  0.00     0.259 C 
ATOM     13  O   UNL d   1      25.886 -14.794  -2.257  0.00  0.00    -0.267 OA
ATOM     14  H   UNL d   1      26.038 -14.617   0.972  0.00  0.00     0.171 HD
BRANCH  12  15
ATOM     15  C   UNL d   1      25.445 -16.400  -0.960  0.00  0.00     0.055 A 
ATOM     16  C   UNL d   1      24.049 -16.684  -1.195  0.00  0.00     0.042 A 
ATOM     17  C   UNL d   1      23.480 -17.868  -0.766  0.00  0.00     0.035 A 
ATOM     18 CL   UNL d   1      21.781 -18.123  -0.894  0.00  0.00    -0.084 Cl
ATOM     19  C   UNL d   1      24.302 -18.798  -0.163  0.00  0.00     0.025 A 
ATOM     20  C   UNL d   1      25.652 -18.497   0.104  0.00  0.00     0.026 A 
ATOM     21  C   UNL d   1      26.223 -17.289  -0.266  0.00  0.00     0.049 A 
ATOM     22 CL   UNL d   1      27.825 -16.903   0.230  0.00  0.00    -0.083 Cl
ENDBRANCH  12  15
ENDBRANCH   9  11
ENDBRANCH   7   9
ENDBRANCH   6   7
BRANCH   1  23
ATOM     23  N   UNL d   1      30.987 -14.326   0.616  0.00  0.00    -0.376 N 
ATOM     24  C   UNL d   1      31.981 -15.202   1.168  0.00  0.00     0.150 C 
ATOM     25  C   UNL d   1      31.630 -15.511   2.617  0.00  0.00     0.254 C 
ATOM     26  N   UNL d   1      30.938 -14.587   3.633  0.00  0.00    -0.068 N 
ATOM     27  C   UNL d   1      30.189 -13.467   2.920  0.00  0.00     0.254 C 
ATOM     28  H   UNL d   1      31.739 -14.207   4.152  0.00  0.00     0.280 HD
ATOM     29  C   UNL d   1      30.769 -13.134   1.495  0.00  0.00     0.150 C 
BRANCH  26  30
ATOM     30  C   UNL d   1      30.030 -15.199   4.843  0.00  0.00     0.230 C 
ATOM     31  C   UNL d   1      28.973 -14.389   5.628  0.00  0.00     0.034 C 
ENDBRANCH  26  30
ENDBRANCH   1  23
BRANCH   4  32
ATOM     32  C   UNL d   1      28.622 -15.832  -4.469  0.00  0.00     0.293 C 
ATOM     33  O   UNL d   1      27.512 -15.575  -4.836  0.00  0.00    -0.259 OA
BRANCH  32  34
ATOM     34  O   UNL d   1      29.561 -16.515  -5.201  0.00  0.00    -0.323 OA
ATOM     35  C   UNL d   1      30.390 -15.663  -6.015  0.00  0.00     0.213 C 
ENDBRANCH  32  34
ENDBRANCH   4  32
TORSDOF 8
ENDMDL
MODEL 8
REMARK VINA RESULT:    -8.113      3.701      7.431
REMARK INTER + INTRA:         -12.790
REMARK INTER:                 -10.499
REMARK INTRA:                  -2.291
REMARK CONF_INDEPENDENT:        2.386
REMARK UNBOUND:                -2.291
REMARK  8 active torsions:
REMARK  status: ('A' for Active; 'I' for Inactive)
REMARK    1  A    between atoms: C_2  and  N_3 
REMARK    2  A    between atoms: N_6  and  C_7 
REMARK    3  A    between atoms: C_10  and  C_11 
REMARK    4  A    between atoms: C_11  and  O_13 
REMARK    5  A    between atoms: C_16  and  N_17 
REMARK    6  A    between atoms: N_17  and  C_18 
REMARK    7  A    between atoms: C_18  and  N_20 
REMARK       I    between atoms: N_20  and  C_21 
REMARK    8  A    between atoms: C_21  and  C_23 
ROOT
ATOM      1  C   UNL d   1      27.027 -16.885  -1.033  0.00  0.00     0.052 C 
ATOM      2  C   UNL d   1      26.635 -17.639   0.098  0.00  0.00     0.032 C 
ATOM      3  C   UNL d   1      25.328 -18.148   0.277  0.00  0.00     0.020 C 
ATOM      4  C   UNL d   1      24.325 -17.900  -0.661  0.00  0.00     0.041 C 
ATOM      5  C   UNL d   1      24.653 -17.111  -1.772  0.00  0.00     0.043 C 
ATOM      6  C   UNL d   1      25.951 -16.502  -1.923  0.00  0.00     0.042 C 
ENDROOT
BRANCH   6   7
ATOM      7  N   UNL d   1      26.081 -15.591  -3.118  0.00  0.00    -0.234 NA
ATOM      8  H   UNL d   1      27.013 -15.797  -3.492  0.00  0.00     0.136 HD
BRANCH   7   9
ATOM      9  C   UNL d   1      26.110 -14.223  -2.915  0.00  0.00     0.157 C 
ATOM     10  S   UNL d   1      24.779 -13.468  -3.622  0.00  0.00    -0.046 SA
BRANCH   9  11
ATOM     11  N   UNL d   1      27.076 -13.732  -1.805  0.00  0.00    -0.304 N 
ATOM     12  C   UNL d   1      27.043 -13.451  -0.277  0.00  0.00     0.259 C 
ATOM     13  O   UNL d   1      26.280 -12.746   0.385  0.00  0.00    -0.267 OA
ATOM     14  H   UNL d   1      27.922 -14.262  -1.957  0.00  0.00     0.171 HD
BRANCH  12  15
ATOM     15  C   UNL d   1      27.987 -13.943   0.719  0.00  0.00     0.055 A 
ATOM     16  C   UNL d   1      27.507 -14.232   2.048  0.00  0.00     0.042 A 
ATOM     17  C   UNL d   1      28.378 -14.327   3.117  0.00  0.00     0.035 A 
ATOM     18 CL   UNL d   1      27.782 -14.498   4.724  0.00  0.00    -0.084 Cl
ATOM     19  C   UNL d   1      29.728 -14.199   2.861  0.00  0.00     0.025 A 
ATOM     20  C   UNL d   1      30.187 -13.871   1.571  0.00  0.00     0.026 A 
ATOM     21  C   UNL d   1      29.320 -13.713   0.501  0.00  0.00     0.049 A 
ATOM     22 CL   UNL d   1      29.912 -13.151  -1.014  0.00  0.00    -0.083 Cl
ENDBRANCH  12  15
ENDBRANCH   9  11
ENDBRANCH   7   9
ENDBRANCH   6   7
BRANCH   1  23
ATOM     23  N   UNL d   1      28.396 -16.640  -1.195  0.00  0.00    -0.376 N 
ATOM     24  C   UNL d   1      28.948 -16.213  -2.450  0.00  0.00     0.150 C 
ATOM     25  C   UNL d   1      30.016 -17.204  -2.891  0.00  0.00     0.254 C 
ATOM     26  N   UNL d   1      30.972 -18.014  -2.000  0.00  0.00    -0.068 N 
ATOM     27  C   UNL d   1      30.437 -18.100  -0.576  0.00  0.00     0.254 C 
ATOM     28  H   UNL d   1      31.824 -17.441  -2.029  0.00  0.00     0.280 HD
ATOM     29  C   UNL d   1      29.476 -16.913  -0.195  0.00  0.00     0.150 C 
BRANCH  26  30
ATOM     30  C   UNL d   1      31.544 -19.465  -2.482  0.00  0.00     0.230 C 
ATOM     31  C   UNL d   1      31.112 -20.176  -3.786  0.00  0.00     0.034 C 
ENDBRANCH  26  30
ENDBRANCH   1  23
BRANCH   4  32
ATOM     32  C   UNL d   1      22.925 -18.388  -0.344  0.00  0.00     0.293 C 
ATOM     33  O   UNL d   1      22.408 -18.228   0.725  0.00  0.00    -0.259 OA
BRANCH  32  34
ATOM     34  O   UNL d   1      22.321 -18.951  -1.440  0.00  0.00    -0.323 OA
ATOM     35  C   UNL d   1      20.907 -19.171  -1.271  0.00  0.00     0.213 C 
ENDBRANCH  32  34
ENDBRANCH   4  32
TORSDOF 8
ENDMDL
MODEL 9
REMARK VINA RESULT:    -7.961      4.745      7.358
REMARK INTER + INTRA:         -12.928
REMARK INTER:                 -10.348
REMARK INTRA:                  -2.580
REMARK CONF_INDEPENDENT:        2.386
REMARK UNBOUND:                -2.580
REMARK  8 active torsions:
REMARK  status: ('A' for Active; 'I' for Inactive)
REMARK    1  A    between atoms: C_2  and  N_3 
REMARK    2  A    between atoms: N_6  and  C_7 
REMARK    3  A    between atoms: C_10  and  C_11 
REMARK    4  A    between atoms: C_11  and  O_13 
REMARK    5  A    between atoms: C_16  and  N_17 
REMARK    6  A    between atoms: N_17  and  C_18 
REMARK    7  A    between atoms: C_18  and  N_20 
REMARK       I    between atoms: N_20  and  C_21 
REMARK    8  A    between atoms: C_21  and  C_23 
ROOT
ATOM      1  C   UNL d   1      26.866 -16.940  -0.131  0.00  0.00     0.052 C 
ATOM      2  C   UNL d   1      26.267 -18.221  -0.199  0.00  0.00     0.032 C 
ATOM      3  C   UNL d   1      24.889 -18.422  -0.445  0.00  0.00     0.020 C 
ATOM      4  C   UNL d   1      24.022 -17.341  -0.607  0.00  0.00     0.041 C 
ATOM      5  C   UNL d   1      24.560 -16.052  -0.493  0.00  0.00     0.043 C 
ATOM      6  C   UNL d   1      25.941 -15.825  -0.145  0.00  0.00     0.042 C 
ENDROOT
BRANCH   6   7
ATOM      7  N   UNL d   1      26.309 -14.376   0.049  0.00  0.00    -0.234 NA
ATOM      8  H   UNL d   1      25.426 -13.924   0.307  0.00  0.00     0.136 HD
BRANCH   7   9
ATOM      9  C   UNL d   1      26.739 -13.644  -1.043  0.00  0.00     0.157 C 
ATOM     10  S   UNL d   1      27.240 -12.100  -0.589  0.00  0.00    -0.046 SA
BRANCH   9  11
ATOM     11  N   UNL d   1      27.042 -14.467  -2.322  0.00  0.00    -0.304 N 
ATOM     12  C   UNL d   1      26.493 -14.610  -3.769  0.00  0.00     0.259 C 
ATOM     13  O   UNL d   1      25.348 -14.832  -4.166  0.00  0.00    -0.267 OA
ATOM     14  H   UNL d   1      28.045 -14.409  -2.425  0.00  0.00     0.171 HD
BRANCH  12  15
ATOM     15  C   UNL d   1      27.269 -14.564  -5.002  0.00  0.00     0.055 A 
ATOM     16  C   UNL d   1      28.270 -15.578  -5.232  0.00  0.00     0.042 A 
ATOM     17  C   UNL d   1      29.277 -15.388  -6.159  0.00  0.00     0.035 A 
ATOM     18 CL   UNL d   1      30.565 -16.524  -6.301  0.00  0.00    -0.084 Cl
ATOM     19  C   UNL d   1      29.258 -14.226  -6.904  0.00  0.00     0.025 A 
ATOM     20  C   UNL d   1      28.306 -13.222  -6.644  0.00  0.00     0.026 A 
ATOM     21  C   UNL d   1      27.326 -13.372  -5.674  0.00  0.00     0.049 A 
ATOM     22 CL   UNL d   1      26.293 -12.054  -5.281  0.00  0.00    -0.083 Cl
ENDBRANCH  12  15
ENDBRANCH   9  11
ENDBRANCH   7   9
ENDBRANCH   6   7
BRANCH   1  23
ATOM     23  N   UNL d   1      28.265 -16.888  -0.110  0.00  0.00    -0.376 N 
ATOM     24  C   UNL d   1      28.975 -15.843   0.571  0.00  0.00     0.150 C 
ATOM     25  C   UNL d   1      29.886 -15.128  -0.418  0.00  0.00     0.254 C 
ATOM     26  N   UNL d   1      30.617 -15.731  -1.628  0.00  0.00    -0.068 N 
ATOM     27  C   UNL d   1      29.969 -17.046  -2.047  0.00  0.00     0.254 C 
ATOM     28  H   UNL d   1      31.554 -15.901  -1.244  0.00  0.00     0.280 HD
ATOM     29  C   UNL d   1      29.203 -17.768  -0.877  0.00  0.00     0.150 C 
BRANCH  26  30
ATOM     30  C   UNL d   1      30.963 -14.824  -2.939  0.00  0.00     0.230 C 
ATOM     31  C   UNL d   1      30.645 -13.315  -3.056  0.00  0.00     0.034 C 
ENDBRANCH  26  30
ENDBRANCH   1  23
BRANCH   4  32
ATOM     32  C   UNL d   1      22.543 -17.639  -0.759  0.00  0.00     0.293 C 
ATOM     33  O   UNL d   1      21.719 -16.781  -0.896  0.00  0.00    -0.259 OA
BRANCH  32  34
ATOM     34  O   UNL d   1      22.297 -18.988  -0.794  0.00  0.00    -0.323 OA
ATOM     35  C   UNL d   1      20.900 -19.323  -0.676  0.00  0.00     0.213 C 
ENDBRANCH  32  34
ENDBRANCH   4  32
TORSDOF 8
ENDMDL
