MODEL 1
REMARK VINA RESULT:    -8.376      0.000      0.000
REMARK INTER + INTRA:         -12.065
REMARK INTER:                 -10.464
REMARK INTRA:                  -1.601
REMARK CONF_INDEPENDENT:        2.088
REMARK UNBOUND:                -1.601
REMARK  7 active torsions:
REMARK  status: ('A' for Active; 'I' for Inactive)
REMARK    1  A    between atoms: O_2  and  C_3 
REMARK    2  A    between atoms: C_8  and  N_9 
REMARK       I    between atoms: N_9  and  C_10 
REMARK       I    between atoms: C_10  and  N_12 
REMARK    3  A    between atoms: N_12  and  C_13 
REMARK    4  A    between atoms: C_15  and  C_16 
REMARK    5  A    between atoms: C_16  and  C_17 
REMARK       I    between atoms: C_17  and  N_19 
REMARK    6  A    between atoms: N_19  and  C_20 
REMARK    7  A    between atoms: C_24  and  S_25 
ROOT
ATOM      1  C   UNL d   1      28.508 -14.643  -6.184  0.00  0.00     0.174 A 
ATOM      2  N   UNL d   1      27.257 -14.826  -5.872  0.00  0.00    -0.228 NA
ATOM      3  C   UNL d   1      26.682 -13.772  -5.170  0.00  0.00     0.052 A 
ATOM      4  C   UNL d   1      27.537 -12.691  -5.055  0.00  0.00     0.081 A 
ATOM      5  S   UNL d   1      29.097 -13.100  -5.716  0.00  0.00    -0.062 SA
ENDROOT
BRANCH   1   6
ATOM      6  N   UNL d   1      29.363 -15.490  -6.890  0.00  0.00    -0.287 N 
ATOM      7  C   UNL d   1      30.240 -16.354  -6.216  0.00  0.00     0.326 C 
ATOM      8  N   UNL d   1      30.563 -17.517  -6.960  0.00  0.00    -0.306 N 
ATOM      9  O   UNL d   1      30.572 -16.224  -5.036  0.00  0.00    -0.247 OA
ATOM     10  H   UNL d   1      30.825 -17.401  -7.927  0.00  0.00     0.171 HD
ATOM     11  H   UNL d   1      29.286 -15.499  -7.892  0.00  0.00     0.172 HD
BRANCH   8  12
ATOM     12  C   UNL d   1      30.832 -18.817  -6.369  0.00  0.00     0.069 C 
ATOM     13  C   UNL d   1      30.605 -19.016  -4.988  0.00  0.00     0.032 C 
ATOM     14  C   UNL d   1      30.776 -20.281  -4.377  0.00  0.00     0.002 C 
ATOM     15  C   UNL d   1      31.165 -21.380  -5.133  0.00  0.00     0.003 C 
ATOM     16  C   UNL d   1      31.494 -21.181  -6.469  0.00  0.00     0.039 C 
ATOM     17  C   UNL d   1      31.376 -19.910  -7.074  0.00  0.00     0.095 C 
BRANCH  17  18
ATOM     18  O   UNL d   1      31.847 -19.894  -8.359  0.00  0.00    -0.354 OA
ATOM     19  C   UNL d   1      30.872 -19.954  -9.391  0.00  0.00     0.210 C 
ENDBRANCH  17  18
ENDBRANCH   8  12
ENDBRANCH   1   6
BRANCH   3  20
ATOM     20  C   UNL d   1      25.253 -13.891  -4.645  0.00  0.00     0.163 C 
BRANCH  20  21
ATOM     21  C   UNL d   1      25.152 -14.716  -3.354  0.00  0.00     0.227 C 
ATOM     22  O   UNL d   1      24.249 -14.567  -2.541  0.00  0.00    -0.273 OA
ATOM     23  N   UNL d   1      26.157 -15.654  -3.113  0.00  0.00    -0.327 N 
ATOM     24  H   UNL d   1      27.026 -15.632  -3.628  0.00  0.00     0.169 HD
BRANCH  23  25
ATOM     25  C   UNL d   1      26.079 -16.481  -1.956  0.00  0.00     0.035 A 
ATOM     26  C   UNL d   1      27.175 -16.651  -1.114  0.00  0.00     0.029 A 
ATOM     27  C   UNL d   1      27.069 -17.505  -0.010  0.00  0.00     0.004 A 
ATOM     28  C   UNL d   1      25.863 -18.164   0.271  0.00  0.00     0.018 A 
ATOM     29  C   UNL d   1      24.757 -18.009  -0.566  0.00  0.00     0.002 A 
ATOM     30  C   UNL d   1      24.885 -17.164  -1.666  0.00  0.00     0.048 A 
BRANCH  29  31
ATOM     31  S   UNL d   1      23.274 -18.947  -0.206  0.00  0.00    -0.134 SA
ATOM     32  C   UNL d   1      21.940 -17.905  -0.882  0.00  0.00     0.095 C 
ENDBRANCH  29  31
ENDBRANCH  23  25
ENDBRANCH  20  21
ENDBRANCH   3  20
TORSDOF 7
ENDMDL
MODEL 2
REMARK VINA RESULT:    -8.175      4.478      9.393
REMARK INTER + INTRA:         -11.727
REMARK INTER:                 -10.263
REMARK INTRA:                  -1.464
REMARK CONF_INDEPENDENT:        2.088
REMARK UNBOUND:                -1.464
REMARK  7 active torsions:
REMARK  status: ('A' for Active; 'I' for Inactive)
REMARK    1  A    between atoms: O_2  and  C_3 
REMARK    2  A    between atoms: C_8  and  N_9 
REMARK       I    between atoms: N_9  and  C_10 
REMARK       I    between atoms: C_10  and  N_12 
REMARK    3  A    between atoms: N_12  and  C_13 
REMARK    4  A    between atoms: C_15  and  C_16 
REMARK    5  A    between atoms: C_16  and  C_17 
REMARK       I    between atoms: C_17  and  N_19 
REMARK    6  A    between atoms: N_19  and  C_20 
REMARK    7  A    between atoms: C_24  and  S_25 
ROOT
ATOM      1  C   UNL d   1      27.079 -16.109   0.162  0.00  0.00     0.174 A 
ATOM      2  N   UNL d   1      26.532 -15.386  -0.774  0.00  0.00    -0.228 NA
ATOM      3  C   UNL d   1      25.452 -15.991  -1.408  0.00  0.00     0.052 A 
ATOM      4  C   UNL d   1      25.109 -17.197  -0.822  0.00  0.00     0.081 A 
ATOM      5  S   UNL d   1      26.260 -17.595   0.424  0.00  0.00    -0.062 SA
ENDROOT
BRANCH   1   6
ATOM      6  N   UNL d   1      28.157 -15.793   0.989  0.00  0.00    -0.287 N 
ATOM      7  C   UNL d   1      28.141 -14.636   1.782  0.00  0.00     0.326 C 
ATOM      8  N   UNL d   1      28.934 -14.748   2.953  0.00  0.00    -0.306 N 
ATOM      9  O   UNL d   1      27.392 -13.674   1.594  0.00  0.00    -0.247 OA
ATOM     10  H   UNL d   1      29.866 -15.122   2.858  0.00  0.00     0.171 HD
ATOM     11  H   UNL d   1      28.915 -16.451   1.036  0.00  0.00     0.172 HD
BRANCH   8  12
ATOM     12  C   UNL d   1      28.623 -14.100   4.215  0.00  0.00     0.069 C 
ATOM     13  C   UNL d   1      28.745 -14.827   5.422  0.00  0.00     0.032 C 
ATOM     14  C   UNL d   1      28.530 -14.223   6.684  0.00  0.00     0.002 C 
ATOM     15  C   UNL d   1      28.202 -12.876   6.772  0.00  0.00     0.003 C 
ATOM     16  C   UNL d   1      27.975 -12.172   5.595  0.00  0.00     0.039 C 
ATOM     17  C   UNL d   1      28.136 -12.781   4.331  0.00  0.00     0.095 C 
BRANCH  17  18
ATOM     18  O   UNL d   1      27.764 -11.961   3.300  0.00  0.00    -0.354 OA
ATOM     19  C   UNL d   1      27.894 -10.564   3.524  0.00  0.00     0.210 C 
ENDBRANCH  17  18
ENDBRANCH   8  12
ENDBRANCH   1   6
BRANCH   3  20
ATOM     20  C   UNL d   1      24.781 -15.307  -2.596  0.00  0.00     0.163 C 
BRANCH  20  21
ATOM     21  C   UNL d   1      25.685 -15.224  -3.834  0.00  0.00     0.227 C 
ATOM     22  O   UNL d   1      25.245 -15.201  -4.976  0.00  0.00    -0.273 OA
ATOM     23  N   UNL d   1      27.064 -15.193  -3.619  0.00  0.00    -0.327 N 
ATOM     24  H   UNL d   1      27.458 -15.452  -2.726  0.00  0.00     0.169 HD
BRANCH  23  25
ATOM     25  C   UNL d   1      27.943 -15.062  -4.732  0.00  0.00     0.035 A 
ATOM     26  C   UNL d   1      27.741 -14.083  -5.701  0.00  0.00     0.029 A 
ATOM     27  C   UNL d   1      28.604 -14.015  -6.801  0.00  0.00     0.004 A 
ATOM     28  C   UNL d   1      29.686 -14.900  -6.916  0.00  0.00     0.018 A 
ATOM     29  C   UNL d   1      29.900 -15.890  -5.957  0.00  0.00     0.002 A 
ATOM     30  C   UNL d   1      29.023 -15.950  -4.876  0.00  0.00     0.048 A 
BRANCH  29  31
ATOM     31  S   UNL d   1      31.243 -17.048  -6.206  0.00  0.00    -0.134 SA
ATOM     32  C   UNL d   1      30.406 -18.667  -6.240  0.00  0.00     0.095 C 
ENDBRANCH  29  31
ENDBRANCH  23  25
ENDBRANCH  20  21
ENDBRANCH   3  20
TORSDOF 7
ENDMDL
MODEL 3
REMARK VINA RESULT:    -7.922      5.314      8.697
REMARK INTER + INTRA:         -11.973
REMARK INTER:                 -10.010
REMARK INTRA:                  -1.963
REMARK CONF_INDEPENDENT:        2.088
REMARK UNBOUND:                -1.963
REMARK  7 active torsions:
REMARK  status: ('A' for Active; 'I' for Inactive)
REMARK    1  A    between atoms: O_2  and  C_3 
REMARK    2  A    between atoms: C_8  and  N_9 
REMARK       I    between atoms: N_9  and  C_10 
REMARK       I    between atoms: C_10  and  N_12 
REMARK    3  A    between atoms: N_12  and  C_13 
REMARK    4  A    between atoms: C_15  and  C_16 
REMARK    5  A    between atoms: C_16  and  C_17 
REMARK       I    between atoms: C_17  and  N_19 
REMARK    6  A    between atoms: N_19  and  C_20 
REMARK    7  A    between atoms: C_24  and  S_25 
ROOT
ATOM      1  C   UNL d   1      27.509 -11.761  -0.385  0.00  0.00     0.174 A 
ATOM      2  N   UNL d   1      26.657 -12.398  -1.138  0.00  0.00    -0.228 NA
ATOM      3  C   UNL d   1      27.124 -12.684  -2.416  0.00  0.00     0.052 A 
ATOM      4  C   UNL d   1      28.453 -12.333  -2.579  0.00  0.00     0.081 A 
ATOM      5  S   UNL d   1      29.026 -11.518  -1.149  0.00  0.00    -0.062 SA
ENDROOT
BRANCH   1   6
ATOM      6  N   UNL d   1      27.359 -11.343   0.937  0.00  0.00    -0.287 N 
ATOM      7  C   UNL d   1      26.961 -12.244   1.937  0.00  0.00     0.326 C 
ATOM      8  N   UNL d   1      27.427 -11.889   3.228  0.00  0.00    -0.306 N 
ATOM      9  O   UNL d   1      26.412 -13.326   1.719  0.00  0.00    -0.247 OA
ATOM     10  H   UNL d   1      27.315 -10.931   3.524  0.00  0.00     0.171 HD
ATOM     11  H   UNL d   1      27.601 -10.392   1.154  0.00  0.00     0.172 HD
BRANCH   8  12
ATOM     12  C   UNL d   1      27.778 -12.847   4.262  0.00  0.00     0.069 C 
ATOM     13  C   UNL d   1      27.780 -14.229   3.962  0.00  0.00     0.032 C 
ATOM     14  C   UNL d   1      28.188 -15.200   4.907  0.00  0.00     0.002 C 
ATOM     15  C   UNL d   1      28.618 -14.813   6.171  0.00  0.00     0.003 C 
ATOM     16  C   UNL d   1      28.525 -13.470   6.519  0.00  0.00     0.039 C 
ATOM     17  C   UNL d   1      28.068 -12.501   5.599  0.00  0.00     0.095 C 
BRANCH  17  18
ATOM     18  O   UNL d   1      27.945 -11.259   6.159  0.00  0.00    -0.354 OA
ATOM     19  C   UNL d   1      28.839 -10.260   5.687  0.00  0.00     0.210 C 
ENDBRANCH  17  18
ENDBRANCH   8  12
ENDBRANCH   1   6
BRANCH   3  20
ATOM     20  C   UNL d   1      26.199 -13.331  -3.444  0.00  0.00     0.163 C 
BRANCH  20  21
ATOM     21  C   UNL d   1      25.607 -14.665  -2.967  0.00  0.00     0.227 C 
ATOM     22  O   UNL d   1      25.189 -15.518  -3.740  0.00  0.00    -0.273 OA
ATOM     23  N   UNL d   1      25.538 -14.880  -1.590  0.00  0.00    -0.327 N 
ATOM     24  H   UNL d   1      25.644 -14.116  -0.937  0.00  0.00     0.169 HD
BRANCH  23  25
ATOM     25  C   UNL d   1      25.047 -16.123  -1.100  0.00  0.00     0.035 A 
ATOM     26  C   UNL d   1      25.906 -17.078  -0.562  0.00  0.00     0.029 A 
ATOM     27  C   UNL d   1      25.388 -18.305  -0.129  0.00  0.00     0.004 A 
ATOM     28  C   UNL d   1      24.012 -18.565  -0.203  0.00  0.00     0.018 A 
ATOM     29  C   UNL d   1      23.137 -17.621  -0.744  0.00  0.00     0.002 A 
ATOM     30  C   UNL d   1      23.674 -16.412  -1.180  0.00  0.00     0.048 A 
BRANCH  29  31
ATOM     31  S   UNL d   1      21.404 -18.047  -0.895  0.00  0.00    -0.134 SA
ATOM     32  C   UNL d   1      21.222 -19.479   0.218  0.00  0.00     0.095 C 
ENDBRANCH  29  31
ENDBRANCH  23  25
ENDBRANCH  20  21
ENDBRANCH   3  20
TORSDOF 7
ENDMDL
MODEL 4
REMARK VINA RESULT:    -7.599      2.793      7.121
REMARK INTER + INTRA:         -12.008
REMARK INTER:                  -9.687
REMARK INTRA:                  -2.321
REMARK CONF_INDEPENDENT:        2.088
REMARK UNBOUND:                -2.321
REMARK  7 active torsions:
REMARK  status: ('A' for Active; 'I' for Inactive)
REMARK    1  A    between atoms: O_2  and  C_3 
REMARK    2  A    between atoms: C_8  and  N_9 
REMARK       I    between atoms: N_9  and  C_10 
REMARK       I    between atoms: C_10  and  N_12 
REMARK    3  A    between atoms: N_12  and  C_13 
REMARK    4  A    between atoms: C_15  and  C_16 
REMARK    5  A    between atoms: C_16  and  C_17 
REMARK       I    between atoms: C_17  and  N_19 
REMARK    6  A    between atoms: N_19  and  C_20 
REMARK    7  A    between atoms: C_24  and  S_25 
ROOT
ATOM      1  C   UNL d   1      26.028 -12.529  -5.204  0.00  0.00     0.174 A 
ATOM      2  N   UNL d   1      27.017 -13.112  -5.822  0.00  0.00    -0.228 NA
ATOM      3  C   UNL d   1      27.765 -12.265  -6.632  0.00  0.00     0.052 A 
ATOM      4  C   UNL d   1      27.368 -10.944  -6.517  0.00  0.00     0.081 A 
ATOM      5  S   UNL d   1      25.963 -10.838  -5.492  0.00  0.00    -0.062 SA
ENDROOT
BRANCH   1   6
ATOM      6  N   UNL d   1      25.107 -13.085  -4.317  0.00  0.00    -0.287 N 
ATOM      7  C   UNL d   1      25.155 -14.449  -3.990  0.00  0.00     0.326 C 
ATOM      8  N   UNL d   1      24.626 -14.736  -2.706  0.00  0.00    -0.306 N 
ATOM      9  O   UNL d   1      25.745 -15.303  -4.655  0.00  0.00    -0.247 OA
ATOM     10  H   UNL d   1      23.739 -14.325  -2.458  0.00  0.00     0.171 HD
ATOM     11  H   UNL d   1      24.448 -12.465  -3.881  0.00  0.00     0.172 HD
BRANCH   8  12
ATOM     12  C   UNL d   1      25.109 -15.800  -1.842  0.00  0.00     0.069 C 
ATOM     13  C   UNL d   1      26.489 -16.102  -1.812  0.00  0.00     0.032 C 
ATOM     14  C   UNL d   1      27.023 -17.075  -0.933  0.00  0.00     0.002 C 
ATOM     15  C   UNL d   1      26.193 -17.760  -0.055  0.00  0.00     0.003 C 
ATOM     16  C   UNL d   1      24.821 -17.552  -0.143  0.00  0.00     0.039 C 
ATOM     17  C   UNL d   1      24.275 -16.621  -1.054  0.00  0.00     0.095 C 
BRANCH  17  18
ATOM     18  O   UNL d   1      22.907 -16.638  -1.068  0.00  0.00    -0.354 OA
ATOM     19  C   UNL d   1      22.284 -17.840  -0.635  0.00  0.00     0.210 C 
ENDBRANCH  17  18
ENDBRANCH   8  12
ENDBRANCH   1   6
BRANCH   3  20
ATOM     20  C   UNL d   1      28.887 -12.828  -7.500  0.00  0.00     0.163 C 
BRANCH  20  21
ATOM     21  C   UNL d   1      29.560 -14.065  -6.887  0.00  0.00     0.227 C 
ATOM     22  O   UNL d   1      30.707 -14.399  -7.159  0.00  0.00    -0.273 OA
ATOM     23  N   UNL d   1      28.804 -14.833  -6.001  0.00  0.00    -0.327 N 
ATOM     24  H   UNL d   1      27.801 -14.728  -5.945  0.00  0.00     0.169 HD
BRANCH  23  25
ATOM     25  C   UNL d   1      29.401 -15.959  -5.365  0.00  0.00     0.035 A 
ATOM     26  C   UNL d   1      29.397 -16.092  -3.979  0.00  0.00     0.029 A 
ATOM     27  C   UNL d   1      30.031 -17.194  -3.392  0.00  0.00     0.004 A 
ATOM     28  C   UNL d   1      30.639 -18.175  -4.187  0.00  0.00     0.018 A 
ATOM     29  C   UNL d   1      30.656 -18.055  -5.578  0.00  0.00     0.002 A 
ATOM     30  C   UNL d   1      30.030 -16.946  -6.142  0.00  0.00     0.048 A 
BRANCH  29  31
ATOM     31  S   UNL d   1      31.526 -19.294  -6.534  0.00  0.00    -0.134 SA
ATOM     32  C   UNL d   1      31.154 -18.836  -8.259  0.00  0.00     0.095 C 
ENDBRANCH  29  31
ENDBRANCH  23  25
ENDBRANCH  20  21
ENDBRANCH   3  20
TORSDOF 7
ENDMDL
MODEL 5
REMARK VINA RESULT:    -7.491      2.788      7.513
REMARK INTER + INTRA:         -11.937
REMARK INTER:                  -9.580
REMARK INTRA:                  -2.358
REMARK CONF_INDEPENDENT:        2.088
REMARK UNBOUND:                -2.358
REMARK  7 active torsions:
REMARK  status: ('A' for Active; 'I' for Inactive)
REMARK    1  A    between atoms: O_2  and  C_3 
REMARK    2  A    between atoms: C_8  and  N_9 
REMARK       I    between atoms: N_9  and  C_10 
REMARK       I    between atoms: C_10  and  N_12 
REMARK    3  A    between atoms: N_12  and  C_13 
REMARK    4  A    between atoms: C_15  and  C_16 
REMARK    5  A    between atoms: C_16  and  C_17 
REMARK       I    between atoms: C_17  and  N_19 
REMARK    6  A    between atoms: N_19  and  C_20 
REMARK    7  A    between atoms: C_24  and  S_25 
ROOT
ATOM      1  C   UNL d   1      30.660 -18.230  -1.545  0.00  0.00     0.174 A 
ATOM      2  N   UNL d   1      30.447 -18.246  -2.830  0.00  0.00    -0.228 NA
ATOM      3  C   UNL d   1      31.519 -18.715  -3.582  0.00  0.00     0.052 A 
ATOM      4  C   UNL d   1      32.552 -19.181  -2.789  0.00  0.00     0.081 A 
ATOM      5  S   UNL d   1      32.190 -18.877  -1.112  0.00  0.00    -0.062 SA
ENDROOT
BRANCH   1   6
ATOM      6  N   UNL d   1      29.796 -17.836  -0.523  0.00  0.00    -0.287 N 
ATOM      7  C   UNL d   1      28.612 -17.139  -0.811  0.00  0.00     0.326 C 
ATOM      8  N   UNL d   1      27.594 -17.343   0.155  0.00  0.00    -0.306 N 
ATOM      9  O   UNL d   1      28.394 -16.546  -1.870  0.00  0.00    -0.247 OA
ATOM     10  H   UNL d   1      27.844 -17.265   1.129  0.00  0.00     0.171 HD
ATOM     11  H   UNL d   1      30.023 -18.118   0.413  0.00  0.00     0.172 HD
BRANCH   8  12
ATOM     12  C   UNL d   1      26.172 -17.360  -0.147  0.00  0.00     0.069 C 
ATOM     13  C   UNL d   1      25.420 -18.531   0.101  0.00  0.00     0.032 C 
ATOM     14  C   UNL d   1      24.020 -18.577  -0.102  0.00  0.00     0.002 C 
ATOM     15  C   UNL d   1      23.336 -17.452  -0.544  0.00  0.00     0.003 C 
ATOM     16  C   UNL d   1      24.072 -16.325  -0.893  0.00  0.00     0.039 C 
ATOM     17  C   UNL d   1      25.476 -16.288  -0.744  0.00  0.00     0.095 C 
BRANCH  17  18
ATOM     18  O   UNL d   1      26.028 -15.138  -1.240  0.00  0.00    -0.354 OA
ATOM     19  C   UNL d   1      26.663 -14.283  -0.298  0.00  0.00     0.210 C 
ENDBRANCH  17  18
ENDBRANCH   8  12
ENDBRANCH   1   6
BRANCH   3  20
ATOM     20  C   UNL d   1      31.453 -18.689  -5.107  0.00  0.00     0.163 C 
BRANCH  20  21
ATOM     21  C   UNL d   1      30.582 -17.550  -5.655  0.00  0.00     0.227 C 
ATOM     22  O   UNL d   1      30.406 -17.367  -6.853  0.00  0.00    -0.273 OA
ATOM     23  N   UNL d   1      29.995 -16.689  -4.726  0.00  0.00    -0.327 N 
ATOM     24  H   UNL d   1      30.310 -16.664  -3.767  0.00  0.00     0.169 HD
BRANCH  23  25
ATOM     25  C   UNL d   1      29.135 -15.649  -5.181  0.00  0.00     0.035 A 
ATOM     26  C   UNL d   1      29.558 -14.728  -6.136  0.00  0.00     0.029 A 
ATOM     27  C   UNL d   1      28.696 -13.696  -6.526  0.00  0.00     0.004 A 
ATOM     28  C   UNL d   1      27.405 -13.603  -5.988  0.00  0.00     0.018 A 
ATOM     29  C   UNL d   1      26.967 -14.514  -5.026  0.00  0.00     0.002 A 
ATOM     30  C   UNL d   1      27.843 -15.527  -4.643  0.00  0.00     0.048 A 
BRANCH  29  31
ATOM     31  S   UNL d   1      25.341 -14.288  -4.310  0.00  0.00    -0.134 SA
ATOM     32  C   UNL d   1      25.528 -12.781  -3.301  0.00  0.00     0.095 C 
ENDBRANCH  29  31
ENDBRANCH  23  25
ENDBRANCH  20  21
ENDBRANCH   3  20
TORSDOF 7
ENDMDL
MODEL 6
REMARK VINA RESULT:    -7.277      4.927      7.701
REMARK INTER + INTRA:         -11.633
REMARK INTER:                  -9.365
REMARK INTRA:                  -2.268
REMARK CONF_INDEPENDENT:        2.088
REMARK UNBOUND:                -2.268
REMARK  7 active torsions:
REMARK  status: ('A' for Active; 'I' for Inactive)
REMARK    1  A    between atoms: O_2  and  C_3 
REMARK    2  A    between atoms: C_8  and  N_9 
REMARK       I    between atoms: N_9  and  C_10 
REMARK       I    between atoms: C_10  and  N_12 
REMARK    3  A    between atoms: N_12  and  C_13 
REMARK    4  A    between atoms: C_15  and  C_16 
REMARK    5  A    between atoms: C_16  and  C_17 
REMARK       I    between atoms: C_17  and  N_19 
REMARK    6  A    between atoms: N_19  and  C_20 
REMARK    7  A    between atoms: C_24  and  S_25 
ROOT
ATOM      1  C   UNL d   1      27.354 -11.397  -1.215  0.00  0.00     0.174 A 
ATOM      2  N   UNL d   1      27.527 -12.576  -1.742  0.00  0.00    -0.228 NA
ATOM      3  C   UNL d   1      27.124 -12.675  -3.069  0.00  0.00     0.052 A 
ATOM      4  C   UNL d   1      26.728 -11.455  -3.589  0.00  0.00     0.081 A 
ATOM      5  S   UNL d   1      26.745 -10.246  -2.333  0.00  0.00    -0.062 SA
ENDROOT
BRANCH   1   6
ATOM      6  N   UNL d   1      27.663 -10.966   0.075  0.00  0.00    -0.287 N 
ATOM      7  C   UNL d   1      27.125 -11.612   1.199  0.00  0.00     0.326 C 
ATOM      8  N   UNL d   1      27.944 -11.505   2.352  0.00  0.00    -0.306 N 
ATOM      9  O   UNL d   1      26.134 -12.345   1.171  0.00  0.00    -0.247 OA
ATOM     10  H   UNL d   1      28.313 -10.597   2.586  0.00  0.00     0.171 HD
ATOM     11  H   UNL d   1      28.326 -10.217   0.169  0.00  0.00     0.172 HD
BRANCH   8  12
ATOM     12  C   UNL d   1      28.048 -12.530   3.377  0.00  0.00     0.069 C 
ATOM     13  C   UNL d   1      28.424 -12.166   4.691  0.00  0.00     0.032 C 
ATOM     14  C   UNL d   1      28.467 -13.110   5.745  0.00  0.00     0.002 C 
ATOM     15  C   UNL d   1      28.121 -14.436   5.515  0.00  0.00     0.003 C 
ATOM     16  C   UNL d   1      27.850 -14.833   4.211  0.00  0.00     0.039 C 
ATOM     17  C   UNL d   1      27.858 -13.907   3.144  0.00  0.00     0.095 C 
BRANCH  17  18
ATOM     18  O   UNL d   1      27.675 -14.506   1.927  0.00  0.00    -0.354 OA
ATOM     19  C   UNL d   1      28.846 -14.754   1.160  0.00  0.00     0.210 C 
ENDBRANCH  17  18
ENDBRANCH   8  12
ENDBRANCH   1   6
BRANCH   3  20
ATOM     20  C   UNL d   1      27.168 -14.022  -3.785  0.00  0.00     0.163 C 
BRANCH  20  21
ATOM     21  C   UNL d   1      26.317 -15.099  -3.096  0.00  0.00     0.227 C 
ATOM     22  O   UNL d   1      25.531 -15.813  -3.706  0.00  0.00    -0.273 OA
ATOM     23  N   UNL d   1      26.452 -15.235  -1.714  0.00  0.00    -0.327 N 
ATOM     24  H   UNL d   1      26.897 -14.517  -1.160  0.00  0.00     0.169 HD
BRANCH  23  25
ATOM     25  C   UNL d   1      25.724 -16.255  -1.037  0.00  0.00     0.035 A 
ATOM     26  C   UNL d   1      26.366 -17.173  -0.209  0.00  0.00     0.029 A 
ATOM     27  C   UNL d   1      25.619 -18.185   0.405  0.00  0.00     0.004 A 
ATOM     28  C   UNL d   1      24.232 -18.262   0.220  0.00  0.00     0.018 A 
ATOM     29  C   UNL d   1      23.573 -17.354  -0.611  0.00  0.00     0.002 A 
ATOM     30  C   UNL d   1      24.335 -16.361  -1.222  0.00  0.00     0.048 A 
BRANCH  29  31
ATOM     31  S   UNL d   1      21.815 -17.560  -0.880  0.00  0.00    -0.134 SA
ATOM     32  C   UNL d   1      21.513 -19.293  -0.403  0.00  0.00     0.095 C 
ENDBRANCH  29  31
ENDBRANCH  23  25
ENDBRANCH  20  21
ENDBRANCH   3  20
TORSDOF 7
ENDMDL
MODEL 7
REMARK VINA RESULT:    -7.254      2.617      6.847
REMARK INTER + INTRA:         -11.856
REMARK INTER:                  -9.342
REMARK INTRA:                  -2.514
REMARK CONF_INDEPENDENT:        2.088
REMARK UNBOUND:                -2.514
REMARK  7 active torsions:
REMARK  status: ('A' for Active; 'I' for Inactive)
REMARK    1  A    between atoms: O_2  and  C_3 
REMARK    2  A    between atoms: C_8  and  N_9 
REMARK       I    between atoms: N_9  and  C_10 
REMARK       I    between atoms: C_10  and  N_12 
REMARK    3  A    between atoms: N_12  and  C_13 
REMARK    4  A    between atoms: C_15  and  C_16 
REMARK    5  A    between atoms: C_16  and  C_17 
REMARK       I    between atoms: C_17  and  N_19 
REMARK    6  A    between atoms: N_19  and  C_20 
REMARK    7  A    between atoms: C_24  and  S_25 
ROOT
ATOM      1  C   UNL d   1      25.996 -12.507  -5.042  0.00  0.00     0.174 A 
ATOM      2  N   UNL d   1      26.916 -13.098  -5.750  0.00  0.00    -0.228 NA
ATOM      3  C   UNL d   1      27.704 -12.234  -6.501  0.00  0.00     0.052 A 
ATOM      4  C   UNL d   1      27.418 -10.905  -6.243  0.00  0.00     0.081 A 
ATOM      5  S   UNL d   1      26.057 -10.795  -5.161  0.00  0.00    -0.062 SA
ENDROOT
BRANCH   1   6
ATOM      6  N   UNL d   1      25.060 -13.076  -4.179  0.00  0.00    -0.287 N 
ATOM      7  C   UNL d   1      25.091 -14.449  -3.889  0.00  0.00     0.326 C 
ATOM      8  N   UNL d   1      24.546 -14.765  -2.618  0.00  0.00    -0.306 N 
ATOM      9  O   UNL d   1      25.678 -15.291  -4.571  0.00  0.00    -0.247 OA
ATOM     10  H   UNL d   1      23.661 -14.352  -2.368  0.00  0.00     0.171 HD
ATOM     11  H   UNL d   1      24.403 -12.461  -3.733  0.00  0.00     0.172 HD
BRANCH   8  12
ATOM     12  C   UNL d   1      25.009 -15.857  -1.779  0.00  0.00     0.069 C 
ATOM     13  C   UNL d   1      26.388 -16.166  -1.733  0.00  0.00     0.032 C 
ATOM     14  C   UNL d   1      26.902 -17.167  -0.875  0.00  0.00     0.002 C 
ATOM     15  C   UNL d   1      26.053 -17.875  -0.033  0.00  0.00     0.003 C 
ATOM     16  C   UNL d   1      24.683 -17.659  -0.139  0.00  0.00     0.039 C 
ATOM     17  C   UNL d   1      24.158 -16.699  -1.032  0.00  0.00     0.095 C 
BRANCH  17  18
ATOM     18  O   UNL d   1      22.790 -16.709  -1.071  0.00  0.00    -0.354 OA
ATOM     19  C   UNL d   1      22.151 -17.878  -0.573  0.00  0.00     0.210 C 
ENDBRANCH  17  18
ENDBRANCH   8  12
ENDBRANCH   1   6
BRANCH   3  20
ATOM     20  C   UNL d   1      28.752 -12.792  -7.461  0.00  0.00     0.163 C 
BRANCH  20  21
ATOM     21  C   UNL d   1      29.480 -14.026  -6.909  0.00  0.00     0.227 C 
ATOM     22  O   UNL d   1      30.614 -14.335  -7.251  0.00  0.00    -0.273 OA
ATOM     23  N   UNL d   1      28.788 -14.822  -5.995  0.00  0.00    -0.327 N 
ATOM     24  H   UNL d   1      27.788 -14.736  -5.880  0.00  0.00     0.169 HD
BRANCH  23  25
ATOM     25  C   UNL d   1      29.439 -15.947  -5.413  0.00  0.00     0.035 A 
ATOM     26  C   UNL d   1      30.031 -16.928  -6.204  0.00  0.00     0.029 A 
ATOM     27  C   UNL d   1      30.624 -18.039  -5.593  0.00  0.00     0.004 A 
ATOM     28  C   UNL d   1      30.656 -18.155  -4.196  0.00  0.00     0.018 A 
ATOM     29  C   UNL d   1      30.063 -17.183  -3.388  0.00  0.00     0.002 A 
ATOM     30  C   UNL d   1      29.467 -16.091  -4.015  0.00  0.00     0.048 A 
BRANCH  29  31
ATOM     31  S   UNL d   1      30.056 -17.432  -1.615  0.00  0.00    -0.134 SA
ATOM     32  C   UNL d   1      30.043 -15.735  -0.950  0.00  0.00     0.095 C 
ENDBRANCH  29  31
ENDBRANCH  23  25
ENDBRANCH  20  21
ENDBRANCH   3  20
TORSDOF 7
ENDMDL
MODEL 8
REMARK VINA RESULT:    -7.251      2.684      6.849
REMARK INTER + INTRA:         -11.731
REMARK INTER:                  -9.339
REMARK INTRA:                  -2.392
REMARK CONF_INDEPENDENT:        2.088
REMARK UNBOUND:                -2.392
REMARK  7 active torsions:
REMARK  status: ('A' for Active; 'I' for Inactive)
REMARK    1  A    between atoms: O_2  and  C_3 
REMARK    2  A    between atoms: C_8  and  N_9 
REMARK       I    between atoms: N_9  and  C_10 
REMARK       I    between atoms: C_10  and  N_12 
REMARK    3  A    between atoms: N_12  and  C_13 
REMARK    4  A    between atoms: C_15  and  C_16 
REMARK    5  A    between atoms: C_16  and  C_17 
REMARK       I    between atoms: C_17  and  N_19 
REMARK    6  A    between atoms: N_19  and  C_20 
REMARK    7  A    between atoms: C_24  and  S_25 
ROOT
ATOM      1  C   UNL d   1      26.235 -12.639  -5.127  0.00  0.00     0.174 A 
ATOM      2  N   UNL d   1      27.112 -13.358  -5.769  0.00  0.00    -0.228 NA
ATOM      3  C   UNL d   1      28.033 -12.619  -6.502  0.00  0.00     0.052 A 
ATOM      4  C   UNL d   1      27.894 -11.257  -6.297  0.00  0.00     0.081 A 
ATOM      5  S   UNL d   1      26.505 -10.952  -5.291  0.00  0.00    -0.062 SA
ENDROOT
BRANCH   1   6
ATOM      6  N   UNL d   1      25.197 -13.065  -4.299  0.00  0.00    -0.287 N 
ATOM      7  C   UNL d   1      25.044 -14.423  -3.978  0.00  0.00     0.326 C 
ATOM      8  N   UNL d   1      24.406 -14.634  -2.729  0.00  0.00    -0.306 N 
ATOM      9  O   UNL d   1      25.553 -15.349  -4.612  0.00  0.00    -0.247 OA
ATOM     10  H   UNL d   1      23.568 -14.108  -2.531  0.00  0.00     0.171 HD
ATOM     11  H   UNL d   1      24.602 -12.362  -3.899  0.00  0.00     0.172 HD
BRANCH   8  12
ATOM     12  C   UNL d   1      24.690 -15.751  -1.844  0.00  0.00     0.069 C 
ATOM     13  C   UNL d   1      23.621 -16.469  -1.260  0.00  0.00     0.032 C 
ATOM     14  C   UNL d   1      23.840 -17.612  -0.454  0.00  0.00     0.002 C 
ATOM     15  C   UNL d   1      25.130 -18.073  -0.224  0.00  0.00     0.003 C 
ATOM     16  C   UNL d   1      26.197 -17.322  -0.703  0.00  0.00     0.039 C 
ATOM     17  C   UNL d   1      25.989 -16.150  -1.463  0.00  0.00     0.095 C 
BRANCH  17  18
ATOM     18  O   UNL d   1      27.155 -15.494  -1.750  0.00  0.00    -0.354 OA
ATOM     19  C   UNL d   1      28.171 -15.546  -0.757  0.00  0.00     0.210 C 
ENDBRANCH  17  18
ENDBRANCH   8  12
ENDBRANCH   1   6
BRANCH   3  20
ATOM     20  C   UNL d   1      29.053 -13.329  -7.389  0.00  0.00     0.163 C 
BRANCH  20  21
ATOM     21  C   UNL d   1      29.722 -14.526  -6.699  0.00  0.00     0.227 C 
ATOM     22  O   UNL d   1      30.869 -14.877  -6.946  0.00  0.00    -0.273 OA
ATOM     23  N   UNL d   1      28.962 -15.238  -5.771  0.00  0.00    -0.327 N 
ATOM     24  H   UNL d   1      27.958 -15.129  -5.726  0.00  0.00     0.169 HD
BRANCH  23  25
ATOM     25  C   UNL d   1      29.555 -16.324  -5.066  0.00  0.00     0.035 A 
ATOM     26  C   UNL d   1      29.688 -16.299  -3.680  0.00  0.00     0.029 A 
ATOM     27  C   UNL d   1      30.314 -17.369  -3.029  0.00  0.00     0.004 A 
ATOM     28  C   UNL d   1      30.777 -18.475  -3.757  0.00  0.00     0.018 A 
ATOM     29  C   UNL d   1      30.657 -18.514  -5.147  0.00  0.00     0.002 A 
ATOM     30  C   UNL d   1      30.041 -17.435  -5.777  0.00  0.00     0.048 A 
BRANCH  29  31
ATOM     31  S   UNL d   1      31.349 -19.911  -6.027  0.00  0.00    -0.134 SA
ATOM     32  C   UNL d   1      30.778 -19.657  -7.740  0.00  0.00     0.095 C 
ENDBRANCH  29  31
ENDBRANCH  23  25
ENDBRANCH  20  21
ENDBRANCH   3  20
TORSDOF 7
ENDMDL
MODEL 9
REMARK VINA RESULT:    -6.858      2.680      6.616
REMARK INTER + INTRA:         -11.672
REMARK INTER:                  -8.946
REMARK INTRA:                  -2.726
REMARK CONF_INDEPENDENT:        2.088
REMARK UNBOUND:                -2.726
REMARK  7 active torsions:
REMARK  status: ('A' for Active; 'I' for Inactive)
REMARK    1  A    between atoms: O_2  and  C_3 
REMARK    2  A    between atoms: C_8  and  N_9 
REMARK       I    between atoms: N_9  and  C_10 
REMARK       I    between atoms: C_10  and  N_12 
REMARK    3  A    between atoms: N_12  and  C_13 
REMARK    4  A    between atoms: C_15  and  C_16 
REMARK    5  A    between atoms: C_16  and  C_17 
REMARK       I    between atoms: C_17  and  N_19 
REMARK    6  A    between atoms: N_19  and  C_20 
REMARK    7  A    between atoms: C_24  and  S_25 
ROOT
ATOM      1  C   UNL d   1      26.018 -12.399  -5.149  0.00  0.00     0.174 A 
ATOM      2  N   UNL d   1      26.961 -13.043  -5.776  0.00  0.00    -0.228 NA
ATOM      3  C   UNL d   1      27.806 -12.234  -6.527  0.00  0.00     0.052 A 
ATOM      4  C   UNL d   1      27.535 -10.888  -6.352  0.00  0.00     0.081 A 
ATOM      5  S   UNL d   1      26.122 -10.697  -5.351  0.00  0.00    -0.062 SA
ENDROOT
BRANCH   1   6
ATOM      6  N   UNL d   1      25.026 -12.906  -4.310  0.00  0.00    -0.287 N 
ATOM      7  C   UNL d   1      24.970 -14.275  -4.007  0.00  0.00     0.326 C 
ATOM      8  N   UNL d   1      24.370 -14.547  -2.751  0.00  0.00    -0.306 N 
ATOM      9  O   UNL d   1      25.529 -15.156  -4.664  0.00  0.00    -0.247 OA
ATOM     10  H   UNL d   1      23.503 -14.081  -2.531  0.00  0.00     0.171 HD
ATOM     11  H   UNL d   1      24.392 -12.250  -3.889  0.00  0.00     0.172 HD
BRANCH   8  12
ATOM     12  C   UNL d   1      24.745 -15.655  -1.889  0.00  0.00     0.069 C 
ATOM     13  C   UNL d   1      23.738 -16.419  -1.257  0.00  0.00     0.032 C 
ATOM     14  C   UNL d   1      24.044 -17.555  -0.470  0.00  0.00     0.002 C 
ATOM     15  C   UNL d   1      25.362 -17.962  -0.306  0.00  0.00     0.003 C 
ATOM     16  C   UNL d   1      26.372 -17.164  -0.833  0.00  0.00     0.039 C 
ATOM     17  C   UNL d   1      26.076 -15.999  -1.575  0.00  0.00     0.095 C 
BRANCH  17  18
ATOM     18  O   UNL d   1      27.198 -15.293  -1.915  0.00  0.00    -0.354 OA
ATOM     19  C   UNL d   1      27.333 -14.001  -1.337  0.00  0.00     0.210 C 
ENDBRANCH  17  18
ENDBRANCH   8  12
ENDBRANCH   1   6
BRANCH   3  20
ATOM     20  C   UNL d   1      28.891 -12.860  -7.400  0.00  0.00     0.163 C 
BRANCH  20  21
ATOM     21  C   UNL d   1      29.575 -14.066  -6.740  0.00  0.00     0.227 C 
ATOM     22  O   UNL d   1      30.742 -14.367  -6.957  0.00  0.00    -0.273 OA
ATOM     23  N   UNL d   1      28.805 -14.846  -5.876  0.00  0.00    -0.327 N 
ATOM     24  H   UNL d   1      27.797 -14.773  -5.866  0.00  0.00     0.169 HD
BRANCH  23  25
ATOM     25  C   UNL d   1      29.408 -15.943  -5.198  0.00  0.00     0.035 A 
ATOM     26  C   UNL d   1      30.033 -16.971  -5.899  0.00  0.00     0.029 A 
ATOM     27  C   UNL d   1      30.578 -18.052  -5.196  0.00  0.00     0.004 A 
ATOM     28  C   UNL d   1      30.527 -18.092  -3.796  0.00  0.00     0.018 A 
ATOM     29  C   UNL d   1      29.899 -17.074  -3.077  0.00  0.00     0.002 A 
ATOM     30  C   UNL d   1      29.353 -16.012  -3.795  0.00  0.00     0.048 A 
BRANCH  29  31
ATOM     31  S   UNL d   1      29.786 -17.226  -1.297  0.00  0.00    -0.134 SA
ATOM     32  C   UNL d   1      31.113 -18.408  -0.888  0.00  0.00     0.095 C 
ENDBRANCH  29  31
ENDBRANCH  23  25
ENDBRANCH  20  21
ENDBRANCH   3  20
TORSDOF 7
ENDMDL
