MODEL 1
REMARK VINA RESULT:    -8.441      0.000      0.000
REMARK INTER + INTRA:         -14.605
REMARK INTER:                 -11.722
REMARK INTRA:                  -2.883
REMARK CONF_INDEPENDENT:        3.281
REMARK UNBOUND:                -2.883
REMARK  11 active torsions:
REMARK  status: ('A' for Active; 'I' for Inactive)
REMARK    1  A    between atoms: C_2  and  O_3 
REMARK    2  A    between atoms: O_3  and  C_4 
REMARK    3  A    between atoms: C_10  and  C_11 
REMARK       I    between atoms: C_11  and  N_13 
REMARK    4  A    between atoms: N_13  and  C_14 
REMARK    5  A    between atoms: C_14  and  C_15 
REMARK    6  A    between atoms: C_15  and  C_16 
REMARK    7  A    between atoms: C_19  and  O_20 
REMARK    8  A    between atoms: C_22  and  O_23 
REMARK    9  A    between atoms: C_26  and  N_27 
REMARK   10  A    between atoms: N_27  and  N_28 
REMARK       I    between atoms: N_28  and  C_29 
REMARK   11  A    between atoms: C_29  and  C_31 
ROOT
ATOM      1  C   UNL d   1      31.018 -19.393  -7.572  0.00  0.00     0.103 C 
ATOM      2  C   UNL d   1      31.207 -20.708  -7.166  0.00  0.00     0.040 C 
ATOM      3  C   UNL d   1      31.187 -21.029  -5.806  0.00  0.00     0.004 C 
ATOM      4  C   UNL d   1      31.116 -20.022  -4.843  0.00  0.00     0.014 C 
ATOM      5  C   UNL d   1      30.806 -18.722  -5.233  0.00  0.00     0.002 A 
ATOM      6  C   UNL d   1      30.471 -17.685  -4.263  0.00  0.00     0.035 A 
ATOM      7  C   UNL d   1      30.034 -16.473  -4.659  0.00  0.00     0.085 A 
ATOM      8  C   UNL d   1      29.962 -16.246  -6.111  0.00  0.00     0.178 A 
ATOM      9  O   UNL d   1      30.348 -17.165  -7.041  0.00  0.00    -0.288 OA
ATOM     10  C   UNL d   1      30.747 -18.434  -6.595  0.00  0.00     0.121 A 
ENDROOT
BRANCH   7  11
ATOM     11  C   UNL d   1      29.652 -15.494  -3.565  0.00  0.00     0.256 C 
ATOM     12  O   UNL d   1      29.801 -14.288  -3.742  0.00  0.00    -0.268 OA
ATOM     13  N   UNL d   1      29.140 -15.962  -2.373  0.00  0.00    -0.356 N 
ATOM     14  H   UNL d   1      28.896 -16.857  -2.036  0.00  0.00     0.162 HD
BRANCH  13  15
ATOM     15  C   UNL d   1      28.729 -15.084  -1.296  0.00  0.00     0.127 C 
BRANCH  15  16
ATOM     16  C   UNL d   1      27.340 -14.539  -1.649  0.00  0.00     0.058 C 
BRANCH  16  17
ATOM     17  C   UNL d   1      26.266 -15.534  -1.400  0.00  0.00    -0.054 C 
ATOM     18  C   UNL d   1      24.986 -15.341  -1.906  0.00  0.00     0.010 C 
ATOM     19  C   UNL d   1      23.977 -16.234  -1.569  0.00  0.00     0.040 C 
ATOM     20  C   UNL d   1      24.211 -17.244  -0.626  0.00  0.00     0.101 C 
ATOM     21  C   UNL d   1      25.517 -17.460  -0.148  0.00  0.00     0.102 C 
ATOM     22  C   UNL d   1      26.550 -16.653  -0.616  0.00  0.00     0.046 C 
BRANCH  20  23
ATOM     23  O   UNL d   1      23.224 -18.046  -0.112  0.00  0.00    -0.353 OA
ATOM     24  C   UNL d   1      23.064 -19.327  -0.711  0.00  0.00     0.210 C 
ENDBRANCH  20  23
BRANCH  21  25
ATOM     25  O   UNL d   1      25.702 -18.448   0.787  0.00  0.00    -0.353 OA
ATOM     26  C   UNL d   1      27.027 -18.947   0.942  0.00  0.00     0.210 C 
ENDBRANCH  21  25
ENDBRANCH  16  17
ENDBRANCH  15  16
ENDBRANCH  13  15
ENDBRANCH   7  11
BRANCH   8  27
ATOM     27  N   UNL d   1      29.543 -15.173  -6.639  0.00  0.00    -0.276 N 
ATOM     28  H   UNL d   1      29.680 -15.075  -7.625  0.00  0.00     0.189 HD
BRANCH  27  29
ATOM     29  N   UNL d   1      28.907 -14.081  -6.100  0.00  0.00    -0.263 N 
ATOM     30  C   UNL d   1      27.550 -14.258  -5.851  0.00  0.00     0.277 C 
ATOM     31  O   UNL d   1      27.024 -15.347  -6.127  0.00  0.00    -0.265 OA
ATOM     32  H   UNL d   1      29.440 -13.258  -5.840  0.00  0.00     0.190 HD
BRANCH  30  33
ATOM     33  C   UNL d   1      26.912 -13.112  -5.271  0.00  0.00     0.074 A 
ATOM     34  C   UNL d   1      27.311 -11.795  -5.361  0.00  0.00     0.025 A 
ATOM     35  C   UNL d   1      26.523 -10.943  -4.541  0.00  0.00     0.009 A 
ATOM     36  C   UNL d   1      25.529 -11.634  -3.883  0.00  0.00     0.050 A 
ATOM     37  S   UNL d   1      25.528 -13.297  -4.291  0.00  0.00    -0.097 SA
ENDBRANCH  30  33
ENDBRANCH  27  29
ENDBRANCH   8  27
BRANCH   1  38
ATOM     38  O   UNL d   1      31.125 -18.944  -8.858  0.00  0.00    -0.349 OA
BRANCH  38  39
ATOM     39  C   UNL d   1      32.451 -18.646  -9.296  0.00  0.00     0.171 C 
ATOM     40  C   UNL d   1      32.751 -17.206  -8.926  0.00  0.00     0.034 C 
ENDBRANCH  38  39
ENDBRANCH   1  38
TORSDOF 11
ENDMDL
MODEL 2
REMARK VINA RESULT:    -8.182      5.340      9.049
REMARK INTER + INTRA:         -14.976
REMARK INTER:                 -11.463
REMARK INTRA:                  -3.513
REMARK CONF_INDEPENDENT:        3.281
REMARK UNBOUND:                -3.513
REMARK  11 active torsions:
REMARK  status: ('A' for Active; 'I' for Inactive)
REMARK    1  A    between atoms: C_2  and  O_3 
REMARK    2  A    between atoms: O_3  and  C_4 
REMARK    3  A    between atoms: C_10  and  C_11 
REMARK       I    between atoms: C_11  and  N_13 
REMARK    4  A    between atoms: N_13  and  C_14 
REMARK    5  A    between atoms: C_14  and  C_15 
REMARK    6  A    between atoms: C_15  and  C_16 
REMARK    7  A    between atoms: C_19  and  O_20 
REMARK    8  A    between atoms: C_22  and  O_23 
REMARK    9  A    between atoms: C_26  and  N_27 
REMARK   10  A    between atoms: N_27  and  N_28 
REMARK       I    between atoms: N_28  and  C_29 
REMARK   11  A    between atoms: C_29  and  C_31 
ROOT
ATOM      1  C   UNL d   1      28.454 -11.934   6.334  0.00  0.00     0.103 C 
ATOM      2  C   UNL d   1      28.955 -12.694   7.383  0.00  0.00     0.040 C 
ATOM      3  C   UNL d   1      29.110 -14.076   7.234  0.00  0.00     0.004 C 
ATOM      4  C   UNL d   1      28.639 -14.720   6.090  0.00  0.00     0.014 C 
ATOM      5  C   UNL d   1      28.250 -13.963   4.989  0.00  0.00     0.002 A 
ATOM      6  C   UNL d   1      27.991 -14.570   3.687  0.00  0.00     0.035 A 
ATOM      7  C   UNL d   1      27.756 -13.814   2.597  0.00  0.00     0.085 A 
ATOM      8  C   UNL d   1      27.731 -12.357   2.805  0.00  0.00     0.178 A 
ATOM      9  O   UNL d   1      27.884 -11.764   4.022  0.00  0.00    -0.288 OA
ATOM     10  C   UNL d   1      28.180 -12.578   5.126  0.00  0.00     0.121 A 
ENDROOT
BRANCH   7  11
ATOM     11  C   UNL d   1      27.565 -14.549   1.284  0.00  0.00     0.256 C 
ATOM     12  O   UNL d   1      26.645 -14.234   0.533  0.00  0.00    -0.268 OA
ATOM     13  N   UNL d   1      28.424 -15.571   0.938  0.00  0.00    -0.356 N 
ATOM     14  H   UNL d   1      29.236 -15.953   1.348  0.00  0.00     0.162 HD
BRANCH  13  15
ATOM     15  C   UNL d   1      28.317 -16.297  -0.312  0.00  0.00     0.127 C 
BRANCH  15  16
ATOM     16  C   UNL d   1      27.595 -17.618  -0.018  0.00  0.00     0.058 C 
BRANCH  16  17
ATOM     17  C   UNL d   1      26.119 -17.482  -0.096  0.00  0.00    -0.054 C 
ATOM     18  C   UNL d   1      25.286 -18.409   0.518  0.00  0.00     0.010 C 
ATOM     19  C   UNL d   1      23.912 -18.314   0.341  0.00  0.00     0.040 C 
ATOM     20  C   UNL d   1      23.375 -17.376  -0.552  0.00  0.00     0.101 C 
ATOM     21  C   UNL d   1      24.219 -16.415  -1.139  0.00  0.00     0.102 C 
ATOM     22  C   UNL d   1      25.576 -16.426  -0.828  0.00  0.00     0.046 C 
BRANCH  20  23
ATOM     23  O   UNL d   1      22.053 -17.341  -0.913  0.00  0.00    -0.353 OA
ATOM     24  C   UNL d   1      21.346 -18.575  -0.871  0.00  0.00     0.210 C 
ENDBRANCH  20  23
BRANCH  21  25
ATOM     25  O   UNL d   1      23.659 -15.524  -2.021  0.00  0.00    -0.353 OA
ATOM     26  C   UNL d   1      24.557 -14.709  -2.769  0.00  0.00     0.210 C 
ENDBRANCH  21  25
ENDBRANCH  16  17
ENDBRANCH  15  16
ENDBRANCH  13  15
ENDBRANCH   7  11
BRANCH   8  27
ATOM     27  N   UNL d   1      27.553 -11.514   1.876  0.00  0.00    -0.276 N 
ATOM     28  H   UNL d   1      27.776 -10.561   2.087  0.00  0.00     0.189 HD
BRANCH  27  29
ATOM     29  N   UNL d   1      27.105 -11.660   0.586  0.00  0.00    -0.263 N 
ATOM     30  C   UNL d   1      27.500 -10.654  -0.289  0.00  0.00     0.277 C 
ATOM     31  O   UNL d   1      28.200  -9.724   0.139  0.00  0.00    -0.265 OA
ATOM     32  H   UNL d   1      26.599 -12.496   0.315  0.00  0.00     0.190 HD
BRANCH  30  33
ATOM     33  C   UNL d   1      27.037 -10.839  -1.634  0.00  0.00     0.074 A 
ATOM     34  C   UNL d   1      26.620  -9.865  -2.517  0.00  0.00     0.025 A 
ATOM     35  C   UNL d   1      26.091 -10.423  -3.712  0.00  0.00     0.009 A 
ATOM     36  C   UNL d   1      26.155 -11.799  -3.713  0.00  0.00     0.050 A 
ATOM     37  S   UNL d   1      26.891 -12.406  -2.291  0.00  0.00    -0.097 SA
ENDBRANCH  30  33
ENDBRANCH  27  29
ENDBRANCH   8  27
BRANCH   1  38
ATOM     38  O   UNL d   1      28.158 -10.602   6.399  0.00  0.00    -0.349 OA
BRANCH  38  39
ATOM     39  C   UNL d   1      29.267  -9.738   6.646  0.00  0.00     0.171 C 
ATOM     40  C   UNL d   1      30.181  -9.796   5.437  0.00  0.00     0.034 C 
ENDBRANCH  38  39
ENDBRANCH   1  38
TORSDOF 11
ENDMDL
MODEL 3
REMARK VINA RESULT:    -8.054      2.150      6.925
REMARK INTER + INTRA:         -14.632
REMARK INTER:                 -11.336
REMARK INTRA:                  -3.297
REMARK CONF_INDEPENDENT:        3.281
REMARK UNBOUND:                -3.297
REMARK  11 active torsions:
REMARK  status: ('A' for Active; 'I' for Inactive)
REMARK    1  A    between atoms: C_2  and  O_3 
REMARK    2  A    between atoms: O_3  and  C_4 
REMARK    3  A    between atoms: C_10  and  C_11 
REMARK       I    between atoms: C_11  and  N_13 
REMARK    4  A    between atoms: N_13  and  C_14 
REMARK    5  A    between atoms: C_14  and  C_15 
REMARK    6  A    between atoms: C_15  and  C_16 
REMARK    7  A    between atoms: C_19  and  O_20 
REMARK    8  A    between atoms: C_22  and  O_23 
REMARK    9  A    between atoms: C_26  and  N_27 
REMARK   10  A    between atoms: N_27  and  N_28 
REMARK       I    between atoms: N_28  and  C_29 
REMARK   11  A    between atoms: C_29  and  C_31 
ROOT
ATOM      1  C   UNL d   1      24.479 -17.074  -0.319  0.00  0.00     0.103 C 
ATOM      2  C   UNL d   1      25.204 -17.816   0.605  0.00  0.00     0.040 C 
ATOM      3  C   UNL d   1      26.571 -18.035   0.408  0.00  0.00     0.004 C 
ATOM      4  C   UNL d   1      27.187 -17.631  -0.777  0.00  0.00     0.014 C 
ATOM      5  C   UNL d   1      26.507 -16.787  -1.650  0.00  0.00     0.002 A 
ATOM      6  C   UNL d   1      27.178 -16.131  -2.769  0.00  0.00     0.035 A 
ATOM      7  C   UNL d   1      26.545 -15.207  -3.518  0.00  0.00     0.085 A 
ATOM      8  C   UNL d   1      25.140 -14.936  -3.174  0.00  0.00     0.178 A 
ATOM      9  O   UNL d   1      24.462 -15.592  -2.190  0.00  0.00    -0.288 OA
ATOM     10  C   UNL d   1      25.165 -16.509  -1.396  0.00  0.00     0.121 A 
ENDROOT
BRANCH   7  11
ATOM     11  C   UNL d   1      27.358 -14.543  -4.612  0.00  0.00     0.256 C 
ATOM     12  O   UNL d   1      27.406 -15.046  -5.732  0.00  0.00    -0.268 OA
ATOM     13  N   UNL d   1      28.043 -13.376  -4.347  0.00  0.00    -0.356 N 
ATOM     14  H   UNL d   1      28.109 -12.783  -3.561  0.00  0.00     0.162 HD
BRANCH  13  15
ATOM     15  C   UNL d   1      28.817 -12.673  -5.351  0.00  0.00     0.127 C 
BRANCH  15  16
ATOM     16  C   UNL d   1      30.266 -13.162  -5.243  0.00  0.00     0.058 C 
BRANCH  16  17
ATOM     17  C   UNL d   1      30.371 -14.639  -5.353  0.00  0.00    -0.054 C 
ATOM     18  C   UNL d   1      30.412 -15.258  -6.597  0.00  0.00     0.010 C 
ATOM     19  C   UNL d   1      30.405 -16.645  -6.670  0.00  0.00     0.040 C 
ATOM     20  C   UNL d   1      30.226 -17.414  -5.511  0.00  0.00     0.101 C 
ATOM     21  C   UNL d   1      30.226 -16.784  -4.253  0.00  0.00     0.102 C 
ATOM     22  C   UNL d   1      30.391 -15.404  -4.187  0.00  0.00     0.046 C 
BRANCH  20  23
ATOM     23  O   UNL d   1      30.030 -18.772  -5.524  0.00  0.00    -0.353 OA
ATOM     24  C   UNL d   1      31.113 -19.570  -5.987  0.00  0.00     0.210 C 
ENDBRANCH  20  23
BRANCH  21  25
ATOM     25  O   UNL d   1      30.030 -17.570  -3.144  0.00  0.00    -0.353 OA
ATOM     26  C   UNL d   1      31.196 -18.097  -2.516  0.00  0.00     0.210 C 
ENDBRANCH  21  25
ENDBRANCH  16  17
ENDBRANCH  15  16
ENDBRANCH  13  15
ENDBRANCH   7  11
BRANCH   8  27
ATOM     27  N   UNL d   1      24.421 -14.075  -3.763  0.00  0.00    -0.276 N 
ATOM     28  H   UNL d   1      23.430 -14.202  -3.706  0.00  0.00     0.189 HD
BRANCH  27  29
ATOM     29  N   UNL d   1      24.752 -12.954  -4.485  0.00  0.00    -0.263 N 
ATOM     30  C   UNL d   1      25.623 -12.080  -3.844  0.00  0.00     0.277 C 
ATOM     31  O   UNL d   1      26.025 -12.359  -2.704  0.00  0.00    -0.265 OA
ATOM     32  H   UNL d   1      24.430 -12.851  -5.441  0.00  0.00     0.190 HD
BRANCH  30  33
ATOM     33  C   UNL d   1      25.969 -10.927  -4.624  0.00  0.00     0.074 A 
ATOM     34  C   UNL d   1      26.230  -9.653  -4.166  0.00  0.00     0.025 A 
ATOM     35  C   UNL d   1      26.395  -8.728  -5.232  0.00  0.00     0.009 A 
ATOM     36  C   UNL d   1      26.289  -9.335  -6.464  0.00  0.00     0.050 A 
ATOM     37  S   UNL d   1      26.032 -11.023  -6.326  0.00  0.00    -0.097 SA
ENDBRANCH  30  33
ENDBRANCH  27  29
ENDBRANCH   8  27
BRANCH   1  38
ATOM     38  O   UNL d   1      23.126 -16.888  -0.290  0.00  0.00    -0.349 OA
BRANCH  38  39
ATOM     39  C   UNL d   1      22.351 -17.923  -0.895  0.00  0.00     0.171 C 
ATOM     40  C   UNL d   1      21.876 -18.852   0.206  0.00  0.00     0.034 C 
ENDBRANCH  38  39
ENDBRANCH   1  38
TORSDOF 11
ENDMDL
MODEL 4
REMARK VINA RESULT:    -8.002      5.416      9.151
REMARK INTER + INTRA:         -14.931
REMARK INTER:                 -11.283
REMARK INTRA:                  -3.648
REMARK CONF_INDEPENDENT:        3.281
REMARK UNBOUND:                -3.648
REMARK  11 active torsions:
REMARK  status: ('A' for Active; 'I' for Inactive)
REMARK    1  A    between atoms: C_2  and  O_3 
REMARK    2  A    between atoms: O_3  and  C_4 
REMARK    3  A    between atoms: C_10  and  C_11 
REMARK       I    between atoms: C_11  and  N_13 
REMARK    4  A    between atoms: N_13  and  C_14 
REMARK    5  A    between atoms: C_14  and  C_15 
REMARK    6  A    between atoms: C_15  and  C_16 
REMARK    7  A    between atoms: C_19  and  O_20 
REMARK    8  A    between atoms: C_22  and  O_23 
REMARK    9  A    between atoms: C_26  and  N_27 
REMARK   10  A    between atoms: N_27  and  N_28 
REMARK       I    between atoms: N_28  and  C_29 
REMARK   11  A    between atoms: C_29  and  C_31 
ROOT
ATOM      1  C   UNL d   1      28.191 -12.066   5.922  0.00  0.00     0.103 C 
ATOM      2  C   UNL d   1      28.659 -12.821   6.990  0.00  0.00     0.040 C 
ATOM      3  C   UNL d   1      28.942 -14.179   6.815  0.00  0.00     0.004 C 
ATOM      4  C   UNL d   1      28.629 -14.816   5.614  0.00  0.00     0.014 C 
ATOM      5  C   UNL d   1      28.277 -14.053   4.505  0.00  0.00     0.002 A 
ATOM      6  C   UNL d   1      28.185 -14.632   3.168  0.00  0.00     0.035 A 
ATOM      7  C   UNL d   1      27.984 -13.857   2.084  0.00  0.00     0.085 A 
ATOM      8  C   UNL d   1      27.818 -12.416   2.332  0.00  0.00     0.178 A 
ATOM      9  O   UNL d   1      27.813 -11.857   3.575  0.00  0.00    -0.288 OA
ATOM     10  C   UNL d   1      28.078 -12.685   4.676  0.00  0.00     0.121 A 
ENDROOT
BRANCH   7  11
ATOM     11  C   UNL d   1      27.971 -14.556   0.738  0.00  0.00     0.256 C 
ATOM     12  O   UNL d   1      27.485 -13.995  -0.240  0.00  0.00    -0.268 OA
ATOM     13  N   UNL d   1      28.504 -15.822   0.617  0.00  0.00    -0.356 N 
ATOM     14  H   UNL d   1      28.977 -16.429   1.235  0.00  0.00     0.162 HD
BRANCH  13  15
ATOM     15  C   UNL d   1      28.551 -16.538  -0.642  0.00  0.00     0.127 C 
BRANCH  15  16
ATOM     16  C   UNL d   1      27.735 -17.825  -0.472  0.00  0.00     0.058 C 
BRANCH  16  17
ATOM     17  C   UNL d   1      26.275 -17.562  -0.418  0.00  0.00    -0.054 C 
ATOM     18  C   UNL d   1      25.420 -18.431   0.250  0.00  0.00     0.010 C 
ATOM     19  C   UNL d   1      24.049 -18.216   0.196  0.00  0.00     0.040 C 
ATOM     20  C   UNL d   1      23.522 -17.213  -0.629  0.00  0.00     0.101 C 
ATOM     21  C   UNL d   1      24.392 -16.312  -1.271  0.00  0.00     0.102 C 
ATOM     22  C   UNL d   1      25.764 -16.446  -1.080  0.00  0.00     0.046 C 
BRANCH  20  23
ATOM     23  O   UNL d   1      22.180 -17.057  -0.873  0.00  0.00    -0.353 OA
ATOM     24  C   UNL d   1      21.393 -18.242  -0.895  0.00  0.00     0.210 C 
ENDBRANCH  20  23
BRANCH  21  25
ATOM     25  O   UNL d   1      23.837 -15.355  -2.084  0.00  0.00    -0.353 OA
ATOM     26  C   UNL d   1      24.740 -14.492  -2.771  0.00  0.00     0.210 C 
ENDBRANCH  21  25
ENDBRANCH  16  17
ENDBRANCH  15  16
ENDBRANCH  13  15
ENDBRANCH   7  11
BRANCH   8  27
ATOM     27  N   UNL d   1      27.652 -11.556   1.416  0.00  0.00    -0.276 N 
ATOM     28  H   UNL d   1      27.862 -11.848   0.482  0.00  0.00     0.189 HD
BRANCH  27  29
ATOM     29  N   UNL d   1      27.217 -10.253   1.458  0.00  0.00    -0.263 N 
ATOM     30  C   UNL d   1      27.030  -9.658   0.216  0.00  0.00     0.277 C 
ATOM     31  O   UNL d   1      27.264 -10.317  -0.809  0.00  0.00    -0.265 OA
ATOM     32  H   UNL d   1      26.982  -9.824   2.346  0.00  0.00     0.190 HD
BRANCH  30  33
ATOM     33  C   UNL d   1      26.557  -8.306   0.284  0.00  0.00     0.074 A 
ATOM     34  C   UNL d   1      26.600  -7.352  -0.711  0.00  0.00     0.025 A 
ATOM     35  C   UNL d   1      26.175  -6.079  -0.246  0.00  0.00     0.009 A 
ATOM     36  C   UNL d   1      25.791  -6.113   1.076  0.00  0.00     0.050 A 
ATOM     37  S   UNL d   1      25.905  -7.690   1.735  0.00  0.00    -0.097 SA
ENDBRANCH  30  33
ENDBRANCH  27  29
ENDBRANCH   8  27
BRANCH   1  38
ATOM     38  O   UNL d   1      27.778 -10.765   6.000  0.00  0.00    -0.349 OA
BRANCH  38  39
ATOM     39  C   UNL d   1      28.678  -9.803   5.451  0.00  0.00     0.171 C 
ATOM     40  C   UNL d   1      27.870  -8.841   4.601  0.00  0.00     0.034 C 
ENDBRANCH  38  39
ENDBRANCH   1  38
TORSDOF 11
ENDMDL
MODEL 5
REMARK VINA RESULT:    -7.617      1.389      2.051
REMARK INTER + INTRA:         -14.817
REMARK INTER:                 -10.898
REMARK INTRA:                  -3.918
REMARK CONF_INDEPENDENT:        3.281
REMARK UNBOUND:                -3.918
REMARK  11 active torsions:
REMARK  status: ('A' for Active; 'I' for Inactive)
REMARK    1  A    between atoms: C_2  and  O_3 
REMARK    2  A    between atoms: O_3  and  C_4 
REMARK    3  A    between atoms: C_10  and  C_11 
REMARK       I    between atoms: C_11  and  N_13 
REMARK    4  A    between atoms: N_13  and  C_14 
REMARK    5  A    between atoms: C_14  and  C_15 
REMARK    6  A    between atoms: C_15  and  C_16 
REMARK    7  A    between atoms: C_19  and  O_20 
REMARK    8  A    between atoms: C_22  and  O_23 
REMARK    9  A    between atoms: C_26  and  N_27 
REMARK   10  A    between atoms: N_27  and  N_28 
REMARK       I    between atoms: N_28  and  C_29 
REMARK   11  A    between atoms: C_29  and  C_31 
ROOT
ATOM      1  C   UNL d   1      31.061 -20.184  -7.152  0.00  0.00     0.103 C 
ATOM      2  C   UNL d   1      31.530 -21.477  -6.962  0.00  0.00     0.040 C 
ATOM      3  C   UNL d   1      31.920 -21.899  -5.687  0.00  0.00     0.004 C 
ATOM      4  C   UNL d   1      31.973 -20.992  -4.629  0.00  0.00     0.014 C 
ATOM      5  C   UNL d   1      31.394 -19.735  -4.774  0.00  0.00     0.002 A 
ATOM      6  C   UNL d   1      31.193 -18.841  -3.638  0.00  0.00     0.035 A 
ATOM      7  C   UNL d   1      30.504 -17.690  -3.767  0.00  0.00     0.085 A 
ATOM      8  C   UNL d   1      30.014 -17.370  -5.117  0.00  0.00     0.178 A 
ATOM      9  O   UNL d   1      30.259 -18.141  -6.214  0.00  0.00    -0.288 OA
ATOM     10  C   UNL d   1      30.933 -19.358  -6.034  0.00  0.00     0.121 A 
ENDROOT
BRANCH   7  11
ATOM     11  C   UNL d   1      30.298 -16.872  -2.506  0.00  0.00     0.256 C 
ATOM     12  O   UNL d   1      30.440 -15.653  -2.537  0.00  0.00    -0.268 OA
ATOM     13  N   UNL d   1      29.956 -17.501  -1.328  0.00  0.00    -0.356 N 
ATOM     14  H   UNL d   1      29.747 -18.434  -1.084  0.00  0.00     0.162 HD
BRANCH  13  15
ATOM     15  C   UNL d   1      29.717 -16.780  -0.093  0.00  0.00     0.127 C 
BRANCH  15  16
ATOM     16  C   UNL d   1      28.561 -15.805  -0.344  0.00  0.00     0.058 C 
BRANCH  16  17
ATOM     17  C   UNL d   1      27.240 -16.485  -0.334  0.00  0.00    -0.054 C 
ATOM     18  C   UNL d   1      27.118 -17.794   0.117  0.00  0.00     0.010 C 
ATOM     19  C   UNL d   1      25.892 -18.438   0.017  0.00  0.00     0.040 C 
ATOM     20  C   UNL d   1      24.821 -17.825  -0.649  0.00  0.00     0.101 C 
ATOM     21  C   UNL d   1      24.939 -16.486  -1.066  0.00  0.00     0.102 C 
ATOM     22  C   UNL d   1      26.125 -15.802  -0.819  0.00  0.00     0.046 C 
BRANCH  20  23
ATOM     23  O   UNL d   1      23.644 -18.464  -0.942  0.00  0.00    -0.353 OA
ATOM     24  C   UNL d   1      22.540 -18.195  -0.086  0.00  0.00     0.210 C 
ENDBRANCH  20  23
BRANCH  21  25
ATOM     25  O   UNL d   1      23.875 -15.926  -1.731  0.00  0.00    -0.353 OA
ATOM     26  C   UNL d   1      24.160 -14.825  -2.588  0.00  0.00     0.210 C 
ENDBRANCH  21  25
ENDBRANCH  16  17
ENDBRANCH  15  16
ENDBRANCH  13  15
ENDBRANCH   7  11
BRANCH   8  27
ATOM     27  N   UNL d   1      29.326 -16.343  -5.394  0.00  0.00    -0.276 N 
ATOM     28  H   UNL d   1      29.107 -16.195  -6.360  0.00  0.00     0.189 HD
BRANCH  27  29
ATOM     29  N   UNL d   1      28.796 -15.359  -4.594  0.00  0.00    -0.263 N 
ATOM     30  C   UNL d   1      27.616 -14.794  -5.066  0.00  0.00     0.277 C 
ATOM     31  O   UNL d   1      27.141 -15.198  -6.139  0.00  0.00    -0.265 OA
ATOM     32  H   UNL d   1      29.218 -15.150  -3.696  0.00  0.00     0.190 HD
BRANCH  30  33
ATOM     33  C   UNL d   1      27.071 -13.784  -4.206  0.00  0.00     0.074 A 
ATOM     34  C   UNL d   1      26.062 -12.890  -4.497  0.00  0.00     0.025 A 
ATOM     35  C   UNL d   1      25.879 -11.938  -3.460  0.00  0.00     0.009 A 
ATOM     36  C   UNL d   1      26.729 -12.159  -2.399  0.00  0.00     0.050 A 
ATOM     37  S   UNL d   1      27.713 -13.540  -2.644  0.00  0.00    -0.097 SA
ENDBRANCH  30  33
ENDBRANCH  27  29
ENDBRANCH   8  27
BRANCH   1  38
ATOM     38  O   UNL d   1      30.756 -19.628  -8.363  0.00  0.00    -0.349 OA
BRANCH  38  39
ATOM     39  C   UNL d   1      31.873 -19.187  -9.134  0.00  0.00     0.171 C 
ATOM     40  C   UNL d   1      32.276 -17.814  -8.629  0.00  0.00     0.034 C 
ENDBRANCH  38  39
ENDBRANCH   1  38
TORSDOF 11
ENDMDL
MODEL 6
REMARK VINA RESULT:    -7.449      3.692      8.766
REMARK INTER + INTRA:         -14.663
REMARK INTER:                 -10.731
REMARK INTRA:                  -3.933
REMARK CONF_INDEPENDENT:        3.281
REMARK UNBOUND:                -3.933
REMARK  11 active torsions:
REMARK  status: ('A' for Active; 'I' for Inactive)
REMARK    1  A    between atoms: C_2  and  O_3 
REMARK    2  A    between atoms: O_3  and  C_4 
REMARK    3  A    between atoms: C_10  and  C_11 
REMARK       I    between atoms: C_11  and  N_13 
REMARK    4  A    between atoms: N_13  and  C_14 
REMARK    5  A    between atoms: C_14  and  C_15 
REMARK    6  A    between atoms: C_15  and  C_16 
REMARK    7  A    between atoms: C_19  and  O_20 
REMARK    8  A    between atoms: C_22  and  O_23 
REMARK    9  A    between atoms: C_26  and  N_27 
REMARK   10  A    between atoms: N_27  and  N_28 
REMARK       I    between atoms: N_28  and  C_29 
REMARK   11  A    between atoms: C_29  and  C_31 
ROOT
ATOM      1  C   UNL d   1      27.630 -13.147   3.766  0.00  0.00     0.103 C 
ATOM      2  C   UNL d   1      27.781 -11.970   4.489  0.00  0.00     0.040 C 
ATOM      3  C   UNL d   1      27.839 -10.743   3.822  0.00  0.00     0.004 C 
ATOM      4  C   UNL d   1      27.884 -10.698   2.428  0.00  0.00     0.014 C 
ATOM      5  C   UNL d   1      27.613 -11.850   1.696  0.00  0.00     0.002 A 
ATOM      6  C   UNL d   1      27.397 -11.815   0.253  0.00  0.00     0.035 A 
ATOM      7  C   UNL d   1      26.994 -12.911  -0.420  0.00  0.00     0.085 A 
ATOM      8  C   UNL d   1      26.833 -14.142   0.370  0.00  0.00     0.178 A 
ATOM      9  O   UNL d   1      27.109 -14.227   1.703  0.00  0.00    -0.288 OA
ATOM     10  C   UNL d   1      27.474 -13.056   2.382  0.00  0.00     0.121 A 
ENDROOT
BRANCH   7  11
ATOM     11  C   UNL d   1      26.737 -12.743  -1.905  0.00  0.00     0.256 C 
ATOM     12  O   UNL d   1      27.536 -12.119  -2.599  0.00  0.00    -0.268 OA
ATOM     13  N   UNL d   1      25.605 -13.290  -2.472  0.00  0.00    -0.356 N 
ATOM     14  H   UNL d   1      24.872 -13.855  -2.131  0.00  0.00     0.162 HD
BRANCH  13  15
ATOM     15  C   UNL d   1      25.310 -13.192  -3.888  0.00  0.00     0.127 C 
BRANCH  15  16
ATOM     16  C   UNL d   1      25.529 -14.580  -4.502  0.00  0.00     0.058 C 
BRANCH  16  17
ATOM     17  C   UNL d   1      26.897 -15.099  -4.245  0.00  0.00    -0.054 C 
ATOM     18  C   UNL d   1      27.842 -15.147  -5.262  0.00  0.00     0.010 C 
ATOM     19  C   UNL d   1      29.077 -15.733  -5.019  0.00  0.00     0.040 C 
ATOM     20  C   UNL d   1      29.324 -16.387  -3.804  0.00  0.00     0.101 C 
ATOM     21  C   UNL d   1      28.379 -16.301  -2.764  0.00  0.00     0.102 C 
ATOM     22  C   UNL d   1      27.210 -15.575  -2.972  0.00  0.00     0.046 C 
BRANCH  20  23
ATOM     23  O   UNL d   1      30.445 -17.138  -3.560  0.00  0.00    -0.353 OA
ATOM     24  C   UNL d   1      30.772 -18.131  -4.525  0.00  0.00     0.210 C 
ENDBRANCH  20  23
BRANCH  21  25
ATOM     25  O   UNL d   1      28.649 -16.969  -1.596  0.00  0.00    -0.353 OA
ATOM     26  C   UNL d   1      29.732 -16.478  -0.810  0.00  0.00     0.210 C 
ENDBRANCH  21  25
ENDBRANCH  16  17
ENDBRANCH  15  16
ENDBRANCH  13  15
ENDBRANCH   7  11
BRANCH   8  27
ATOM     27  N   UNL d   1      26.433 -15.243  -0.111  0.00  0.00    -0.276 N 
ATOM     28  H   UNL d   1      27.125 -15.822  -0.545  0.00  0.00     0.189 HD
BRANCH  27  29
ATOM     29  N   UNL d   1      25.187 -15.822  -0.146  0.00  0.00    -0.263 N 
ATOM     30  C   UNL d   1      25.175 -17.160  -0.525  0.00  0.00     0.277 C 
ATOM     31  O   UNL d   1      26.248 -17.719  -0.799  0.00  0.00    -0.265 OA
ATOM     32  H   UNL d   1      24.375 -15.303   0.169  0.00  0.00     0.190 HD
BRANCH  30  33
ATOM     33  C   UNL d   1      23.867 -17.749  -0.535  0.00  0.00     0.074 A 
ATOM     34  C   UNL d   1      23.543 -19.073  -0.327  0.00  0.00     0.025 A 
ATOM     35  C   UNL d   1      22.163 -19.325  -0.555  0.00  0.00     0.009 A 
ATOM     36  C   UNL d   1      21.477 -18.179  -0.893  0.00  0.00     0.050 A 
ATOM     37  S   UNL d   1      22.494 -16.801  -0.893  0.00  0.00    -0.097 SA
ENDBRANCH  30  33
ENDBRANCH  27  29
ENDBRANCH   8  27
BRANCH   1  38
ATOM     38  O   UNL d   1      27.670 -14.406   4.296  0.00  0.00    -0.349 OA
BRANCH  38  39
ATOM     39  C   UNL d   1      28.947 -14.831   4.773  0.00  0.00     0.171 C 
ATOM     40  C   UNL d   1      29.048 -14.448   6.237  0.00  0.00     0.034 C 
ENDBRANCH  38  39
ENDBRANCH   1  38
TORSDOF 11
ENDMDL
MODEL 7
REMARK VINA RESULT:    -6.514      2.113      5.063
REMARK INTER + INTRA:         -14.756
REMARK INTER:                  -9.795
REMARK INTRA:                  -4.961
REMARK CONF_INDEPENDENT:        3.281
REMARK UNBOUND:                -4.961
REMARK  11 active torsions:
REMARK  status: ('A' for Active; 'I' for Inactive)
REMARK    1  A    between atoms: C_2  and  O_3 
REMARK    2  A    between atoms: O_3  and  C_4 
REMARK    3  A    between atoms: C_10  and  C_11 
REMARK       I    between atoms: C_11  and  N_13 
REMARK    4  A    between atoms: N_13  and  C_14 
REMARK    5  A    between atoms: C_14  and  C_15 
REMARK    6  A    between atoms: C_15  and  C_16 
REMARK    7  A    between atoms: C_19  and  O_20 
REMARK    8  A    between atoms: C_22  and  O_23 
REMARK    9  A    between atoms: C_26  and  N_27 
REMARK   10  A    between atoms: N_27  and  N_28 
REMARK       I    between atoms: N_28  and  C_29 
REMARK   11  A    between atoms: C_29  and  C_31 
ROOT
ATOM      1  C   UNL d   1      30.651 -18.573  -5.775  0.00  0.00     0.103 C 
ATOM      2  C   UNL d   1      31.496 -18.938  -6.815  0.00  0.00     0.040 C 
ATOM      3  C   UNL d   1      31.893 -17.987  -7.760  0.00  0.00     0.004 C 
ATOM      4  C   UNL d   1      31.340 -16.706  -7.747  0.00  0.00     0.014 C 
ATOM      5  C   UNL d   1      30.593 -16.293  -6.649  0.00  0.00     0.002 A 
ATOM      6  C   UNL d   1      30.204 -14.899  -6.460  0.00  0.00     0.035 A 
ATOM      7  C   UNL d   1      29.605 -14.488  -5.324  0.00  0.00     0.085 A 
ATOM      8  C   UNL d   1      29.329 -15.526  -4.318  0.00  0.00     0.178 A 
ATOM      9  O   UNL d   1      29.603 -16.849  -4.500  0.00  0.00    -0.288 OA
ATOM     10  C   UNL d   1      30.273 -17.233  -5.671  0.00  0.00     0.121 A 
ENDROOT
BRANCH   7  11
ATOM     11  C   UNL d   1      29.305 -13.006  -5.209  0.00  0.00     0.256 C 
ATOM     12  O   UNL d   1      29.483 -12.426  -4.140  0.00  0.00    -0.268 OA
ATOM     13  N   UNL d   1      28.831 -12.314  -6.303  0.00  0.00    -0.356 N 
ATOM     14  H   UNL d   1      28.663 -12.553  -7.245  0.00  0.00     0.162 HD
BRANCH  13  15
ATOM     15  C   UNL d   1      28.549 -10.892  -6.271  0.00  0.00     0.127 C 
BRANCH  15  16
ATOM     16  C   UNL d   1      27.047 -10.725  -6.014  0.00  0.00     0.058 C 
BRANCH  16  17
ATOM     17  C   UNL d   1      26.592 -11.487  -4.823  0.00  0.00    -0.054 C 
ATOM     18  C   UNL d   1      26.856 -11.024  -3.540  0.00  0.00     0.010 C 
ATOM     19  C   UNL d   1      26.510 -11.808  -2.447  0.00  0.00     0.040 C 
ATOM     20  C   UNL d   1      26.022 -13.109  -2.634  0.00  0.00     0.101 C 
ATOM     21  C   UNL d   1      25.720 -13.557  -3.934  0.00  0.00     0.102 C 
ATOM     22  C   UNL d   1      25.926 -12.698  -5.010  0.00  0.00     0.046 C 
BRANCH  20  23
ATOM     23  O   UNL d   1      25.830 -14.002  -1.611  0.00  0.00    -0.353 OA
ATOM     24  C   UNL d   1      26.649 -13.842  -0.460  0.00  0.00     0.210 C 
ENDBRANCH  20  23
BRANCH  21  25
ATOM     25  O   UNL d   1      25.261 -14.843  -4.078  0.00  0.00    -0.353 OA
ATOM     26  C   UNL d   1      25.847 -15.623  -5.116  0.00  0.00     0.210 C 
ENDBRANCH  21  25
ENDBRANCH  16  17
ENDBRANCH  15  16
ENDBRANCH  13  15
ENDBRANCH   7  11
BRANCH   8  27
ATOM     27  N   UNL d   1      28.801 -15.294  -3.190  0.00  0.00    -0.276 N 
ATOM     28  H   UNL d   1      29.284 -14.653  -2.592  0.00  0.00     0.189 HD
BRANCH  27  29
ATOM     29  N   UNL d   1      27.648 -15.765  -2.610  0.00  0.00    -0.263 N 
ATOM     30  C   UNL d   1      27.842 -16.654  -1.559  0.00  0.00     0.277 C 
ATOM     31  O   UNL d   1      29.000 -16.955  -1.231  0.00  0.00    -0.265 OA
ATOM     32  H   UNL d   1      26.747 -15.401  -2.901  0.00  0.00     0.190 HD
BRANCH  30  33
ATOM     33  C   UNL d   1      26.625 -17.117  -0.957  0.00  0.00     0.074 A 
ATOM     34  C   UNL d   1      26.483 -17.769   0.250  0.00  0.00     0.025 A 
ATOM     35  C   UNL d   1      25.148 -18.208   0.462  0.00  0.00     0.009 A 
ATOM     36  C   UNL d   1      24.313 -17.846  -0.572  0.00  0.00     0.050 A 
ATOM     37  S   UNL d   1      25.136 -16.941  -1.771  0.00  0.00    -0.097 SA
ENDBRANCH  30  33
ENDBRANCH  27  29
ENDBRANCH   8  27
BRANCH   1  38
ATOM     38  O   UNL d   1      30.111 -19.434  -4.862  0.00  0.00    -0.349 OA
BRANCH  38  39
ATOM     39  C   UNL d   1      30.587 -20.778  -4.929  0.00  0.00     0.171 C 
ATOM     40  C   UNL d   1      31.164 -21.137  -3.573  0.00  0.00     0.034 C 
ENDBRANCH  38  39
ENDBRANCH   1  38
TORSDOF 11
ENDMDL
MODEL 8
REMARK VINA RESULT:    -5.995      2.900      7.981
REMARK INTER + INTRA:         -14.466
REMARK INTER:                  -9.276
REMARK INTRA:                  -5.190
REMARK CONF_INDEPENDENT:        3.281
REMARK UNBOUND:                -5.190
REMARK  11 active torsions:
REMARK  status: ('A' for Active; 'I' for Inactive)
REMARK    1  A    between atoms: C_2  and  O_3 
REMARK    2  A    between atoms: O_3  and  C_4 
REMARK    3  A    between atoms: C_10  and  C_11 
REMARK       I    between atoms: C_11  and  N_13 
REMARK    4  A    between atoms: N_13  and  C_14 
REMARK    5  A    between atoms: C_14  and  C_15 
REMARK    6  A    between atoms: C_15  and  C_16 
REMARK    7  A    between atoms: C_19  and  O_20 
REMARK    8  A    between atoms: C_22  and  O_23 
REMARK    9  A    between atoms: C_26  and  N_27 
REMARK   10  A    between atoms: N_27  and  N_28 
REMARK       I    between atoms: N_28  and  C_29 
REMARK   11  A    between atoms: C_29  and  C_31 
ROOT
ATOM      1  C   UNL d   1      25.284  -9.414  -3.815  0.00  0.00     0.103 C 
ATOM      2  C   UNL d   1      24.868  -8.508  -4.782  0.00  0.00     0.040 C 
ATOM      3  C   UNL d   1      25.131  -8.758  -6.133  0.00  0.00     0.004 C 
ATOM      4  C   UNL d   1      25.926  -9.841  -6.508  0.00  0.00     0.014 C 
ATOM      5  C   UNL d   1      26.244 -10.817  -5.569  0.00  0.00     0.002 A 
ATOM      6  C   UNL d   1      26.851 -12.088  -5.951  0.00  0.00     0.035 A 
ATOM      7  C   UNL d   1      27.022 -13.078  -5.053  0.00  0.00     0.085 A 
ATOM      8  C   UNL d   1      26.607 -12.788  -3.671  0.00  0.00     0.178 A 
ATOM      9  O   UNL d   1      26.116 -11.583  -3.266  0.00  0.00    -0.288 OA
ATOM     10  C   UNL d   1      25.902 -10.592  -4.236  0.00  0.00     0.121 A 
ENDROOT
BRANCH   7  11
ATOM     11  C   UNL d   1      27.602 -14.379  -5.575  0.00  0.00     0.256 C 
ATOM     12  O   UNL d   1      26.999 -15.434  -5.395  0.00  0.00    -0.268 OA
ATOM     13  N   UNL d   1      28.806 -14.374  -6.247  0.00  0.00    -0.356 N 
ATOM     14  H   UNL d   1      29.424 -13.664  -6.540  0.00  0.00     0.162 HD
BRANCH  13  15
ATOM     15  C   UNL d   1      29.404 -15.575  -6.795  0.00  0.00     0.127 C 
BRANCH  15  16
ATOM     16  C   UNL d   1      30.489 -16.039  -5.815  0.00  0.00     0.058 C 
BRANCH  16  17
ATOM     17  C   UNL d   1      30.111 -15.791  -4.401  0.00  0.00    -0.054 C 
ATOM     18  C   UNL d   1      29.657 -16.827  -3.594  0.00  0.00     0.010 C 
ATOM     19  C   UNL d   1      29.213 -16.547  -2.309  0.00  0.00     0.040 C 
ATOM     20  C   UNL d   1      29.100 -15.220  -1.871  0.00  0.00     0.101 C 
ATOM     21  C   UNL d   1      29.599 -14.179  -2.676  0.00  0.00     0.102 C 
ATOM     22  C   UNL d   1      30.185 -14.491  -3.899  0.00  0.00     0.046 C 
BRANCH  20  23
ATOM     23  O   UNL d   1      28.505 -14.858  -0.689  0.00  0.00    -0.353 OA
ATOM     24  C   UNL d   1      28.586 -15.793   0.379  0.00  0.00     0.210 C 
ENDBRANCH  20  23
BRANCH  21  25
ATOM     25  O   UNL d   1      29.454 -12.891  -2.221  0.00  0.00    -0.353 OA
ATOM     26  C   UNL d   1      29.969 -11.854  -3.051  0.00  0.00     0.210 C 
ENDBRANCH  21  25
ENDBRANCH  16  17
ENDBRANCH  15  16
ENDBRANCH  13  15
ENDBRANCH   7  11
BRANCH   8  27
ATOM     27  N   UNL d   1      26.674 -13.625  -2.723  0.00  0.00    -0.276 N 
ATOM     28  H   UNL d   1      27.294 -13.400  -1.969  0.00  0.00     0.189 HD
BRANCH  27  29
ATOM     29  N   UNL d   1      26.031 -14.821  -2.516  0.00  0.00    -0.263 N 
ATOM     30  C   UNL d   1      25.685 -15.079  -1.194  0.00  0.00     0.277 C 
ATOM     31  O   UNL d   1      25.973 -14.244  -0.322  0.00  0.00    -0.265 OA
ATOM     32  H   UNL d   1      25.773 -15.403  -3.305  0.00  0.00     0.190 HD
BRANCH  30  33
ATOM     33  C   UNL d   1      24.998 -16.323  -1.005  0.00  0.00     0.074 A 
ATOM     34  C   UNL d   1      23.672 -16.597  -1.270  0.00  0.00     0.025 A 
ATOM     35  C   UNL d   1      23.298 -17.894  -0.826  0.00  0.00     0.009 A 
ATOM     36  C   UNL d   1      24.358 -18.576  -0.270  0.00  0.00     0.050 A 
ATOM     37  S   UNL d   1      25.807 -17.663  -0.327  0.00  0.00    -0.097 SA
ENDBRANCH  30  33
ENDBRANCH  27  29
ENDBRANCH   8  27
BRANCH   1  38
ATOM     38  O   UNL d   1      25.182  -9.225  -2.465  0.00  0.00    -0.349 OA
BRANCH  38  39
ATOM     39  C   UNL d   1      26.275  -8.537  -1.857  0.00  0.00     0.171 C 
ATOM     40  C   UNL d   1      27.211  -9.577  -1.270  0.00  0.00     0.034 C 
ENDBRANCH  38  39
ENDBRANCH   1  38
TORSDOF 11
ENDMDL
MODEL 9
REMARK VINA RESULT:    -5.938      2.257      5.413
REMARK INTER + INTRA:         -14.496
REMARK INTER:                  -9.219
REMARK INTRA:                  -5.277
REMARK CONF_INDEPENDENT:        3.281
REMARK UNBOUND:                -5.277
REMARK  11 active torsions:
REMARK  status: ('A' for Active; 'I' for Inactive)
REMARK    1  A    between atoms: C_2  and  O_3 
REMARK    2  A    between atoms: O_3  and  C_4 
REMARK    3  A    between atoms: C_10  and  C_11 
REMARK       I    between atoms: C_11  and  N_13 
REMARK    4  A    between atoms: N_13  and  C_14 
REMARK    5  A    between atoms: C_14  and  C_15 
REMARK    6  A    between atoms: C_15  and  C_16 
REMARK    7  A    between atoms: C_19  and  O_20 
REMARK    8  A    between atoms: C_22  and  O_23 
REMARK    9  A    between atoms: C_26  and  N_27 
REMARK   10  A    between atoms: N_27  and  N_28 
REMARK       I    between atoms: N_28  and  C_29 
REMARK   11  A    between atoms: C_29  and  C_31 
ROOT
ATOM      1  C   UNL d   1      31.309 -17.336  -5.204  0.00  0.00     0.103 C 
ATOM      2  C   UNL d   1      32.179 -17.064  -6.252  0.00  0.00     0.040 C 
ATOM      3  C   UNL d   1      31.827 -16.127  -7.227  0.00  0.00     0.004 C 
ATOM      4  C   UNL d   1      30.552 -15.561  -7.235  0.00  0.00     0.014 C 
ATOM      5  C   UNL d   1      29.720 -15.730  -6.132  0.00  0.00     0.002 A 
ATOM      6  C   UNL d   1      28.488 -14.964  -5.970  0.00  0.00     0.035 A 
ATOM      7  C   UNL d   1      27.768 -15.032  -4.833  0.00  0.00     0.085 A 
ATOM      8  C   UNL d   1      28.268 -15.949  -3.796  0.00  0.00     0.178 A 
ATOM      9  O   UNL d   1      29.367 -16.740  -3.951  0.00  0.00    -0.288 OA
ATOM     10  C   UNL d   1      30.122 -16.605  -5.125  0.00  0.00     0.121 A 
ENDROOT
BRANCH   7  11
ATOM     11  C   UNL d   1      26.542 -14.143  -4.748  0.00  0.00     0.256 C 
ATOM     12  O   UNL d   1      25.450 -14.631  -4.470  0.00  0.00    -0.268 OA
ATOM     13  N   UNL d   1      26.656 -12.790  -4.987  0.00  0.00    -0.356 N 
ATOM     14  H   UNL d   1      27.415 -12.188  -5.174  0.00  0.00     0.162 HD
BRANCH  13  15
ATOM     15  C   UNL d   1      25.533 -11.879  -4.896  0.00  0.00     0.127 C 
BRANCH  15  16
ATOM     16  C   UNL d   1      25.600 -11.199  -3.523  0.00  0.00     0.058 C 
BRANCH  16  17
ATOM     17  C   UNL d   1      26.781 -11.635  -2.736  0.00  0.00    -0.054 C 
ATOM     18  C   UNL d   1      28.026 -11.055  -2.942  0.00  0.00     0.010 C 
ATOM     19  C   UNL d   1      29.132 -11.554  -2.266  0.00  0.00     0.040 C 
ATOM     20  C   UNL d   1      29.021 -12.714  -1.486  0.00  0.00     0.101 C 
ATOM     21  C   UNL d   1      27.752 -13.274  -1.250  0.00  0.00     0.102 C 
ATOM     22  C   UNL d   1      26.631 -12.667  -1.809  0.00  0.00     0.046 C 
BRANCH  20  23
ATOM     23  O   UNL d   1      30.097 -13.366  -0.938  0.00  0.00    -0.353 OA
ATOM     24  C   UNL d   1      30.350 -14.686  -1.405  0.00  0.00     0.210 C 
ENDBRANCH  20  23
BRANCH  21  25
ATOM     25  O   UNL d   1      27.687 -14.419  -0.496  0.00  0.00    -0.353 OA
ATOM     26  C   UNL d   1      27.034 -14.322   0.767  0.00  0.00     0.210 C 
ENDBRANCH  21  25
ENDBRANCH  16  17
ENDBRANCH  15  16
ENDBRANCH  13  15
ENDBRANCH   7  11
BRANCH   8  27
ATOM     27  N   UNL d   1      27.721 -16.100  -2.663  0.00  0.00    -0.276 N 
ATOM     28  H   UNL d   1      28.303 -15.962  -1.861  0.00  0.00     0.189 HD
BRANCH  27  29
ATOM     29  N   UNL d   1      26.432 -16.421  -2.310  0.00  0.00    -0.263 N 
ATOM     30  C   UNL d   1      26.308 -17.097  -1.101  0.00  0.00     0.277 C 
ATOM     31  O   UNL d   1      27.331 -17.360  -0.450  0.00  0.00    -0.265 OA
ATOM     32  H   UNL d   1      25.654 -16.097  -2.874  0.00  0.00     0.190 HD
BRANCH  30  33
ATOM     33  C   UNL d   1      24.954 -17.404  -0.744  0.00  0.00     0.074 A 
ATOM     34  C   UNL d   1      24.486 -18.555  -0.144  0.00  0.00     0.025 A 
ATOM     35  C   UNL d   1      23.067 -18.577  -0.070  0.00  0.00     0.009 A 
ATOM     36  C   UNL d   1      22.505 -17.428  -0.583  0.00  0.00     0.050 A 
ATOM     37  S   UNL d   1      23.694 -16.314  -1.111  0.00  0.00    -0.097 SA
ENDBRANCH  30  33
ENDBRANCH  27  29
ENDBRANCH   8  27
BRANCH   1  38
ATOM     38  O   UNL d   1      31.495 -18.305  -4.258  0.00  0.00    -0.349 OA
BRANCH  38  39
ATOM     39  C   UNL d   1      31.696 -19.625  -4.763  0.00  0.00     0.171 C 
ATOM     40  C   UNL d   1      30.405 -20.073  -5.421  0.00  0.00     0.034 C 
ENDBRANCH  38  39
ENDBRANCH   1  38
TORSDOF 11
ENDMDL
