MODEL 1
REMARK VINA RESULT:    -9.749      0.000      0.000
REMARK INTER + INTRA:         -15.657
REMARK INTER:                 -13.925
REMARK INTRA:                  -1.732
REMARK CONF_INDEPENDENT:        4.176
REMARK UNBOUND:                -1.732
REMARK  14 active torsions:
REMARK  status: ('A' for Active; 'I' for Inactive)
REMARK    1  A    between atoms: C_2  and  C_3 
REMARK       I    between atoms: C_2  and  N_21 
REMARK    2  A    between atoms: C_3  and  N_4 
REMARK    3  A    between atoms: N_4  and  C_5 
REMARK    4  A    between atoms: C_8  and  O_9 
REMARK    5  A    between atoms: O_9  and  C_10 
REMARK    6  A    between atoms: C_10  and  C_11 
REMARK    7  A    between atoms: C_11  and  O_12 
REMARK    8  A    between atoms: O_12  and  C_13 
REMARK    9  A    between atoms: N_21  and  C_22 
REMARK   10  A    between atoms: C_25  and  O_26 
REMARK   11  A    between atoms: O_26  and  C_27 
REMARK   12  A    between atoms: C_27  and  C_28 
REMARK   13  A    between atoms: C_28  and  O_29 
REMARK   14  A    between atoms: O_29  and  C_30 
ROOT
ATOM      1  O   UNL d   1      29.011 -13.267  -0.707  0.00  0.00    -0.271 OA
ATOM      2  C   UNL d   1      28.150 -14.067  -0.309  0.00  0.00     0.239 C 
ATOM      3  N   UNL d   1      27.909 -15.218  -1.036  0.00  0.00    -0.326 N 
ATOM      4  H   UNL d   1      28.569 -15.380  -1.789  0.00  0.00     0.169 HD
ENDROOT
BRANCH   2   5
ATOM      5  C   UNL d   1      27.421 -13.884   1.033  0.00  0.00     0.223 C 
BRANCH   5   6
ATOM      6  N   UNL d   1      28.030 -14.616   2.132  0.00  0.00    -0.381 N 
ATOM      7  H   UNL d   1      28.430 -15.528   1.928  0.00  0.00     0.160 HD
BRANCH   6   8
ATOM      8  C   UNL d   1      28.068 -14.092   3.409  0.00  0.00     0.028 A 
ATOM      9  C   UNL d   1      27.681 -12.771   3.645  0.00  0.00     0.032 A 
ATOM     10  C   UNL d   1      27.776 -12.207   4.929  0.00  0.00     0.039 A 
ATOM     11  C   UNL d   1      28.185 -12.979   6.021  0.00  0.00     0.069 A 
ATOM     12  C   UNL d   1      28.528 -14.309   5.798  0.00  0.00     0.039 A 
ATOM     13  C   UNL d   1      28.446 -14.859   4.514  0.00  0.00     0.032 A 
BRANCH  11  14
ATOM     14  O   UNL d   1      28.198 -12.351   7.240  0.00  0.00    -0.349 OA
BRANCH  14  15
ATOM     15  C   UNL d   1      29.475 -11.889   7.705  0.00  0.00     0.202 C 
BRANCH  15  16
ATOM     16  C   UNL d   1      29.314 -11.158   9.041  0.00  0.00     0.202 C 
BRANCH  16  17
ATOM     17  O   UNL d   1      28.616 -12.011   9.957  0.00  0.00    -0.349 OA
BRANCH  17  18
ATOM     18  C   UNL d   1      29.253 -13.173  10.307  0.00  0.00     0.068 A 
ATOM     19  C   UNL d   1      30.450 -13.031  11.015  0.00  0.00     0.037 A 
ATOM     20  C   UNL d   1      31.242 -14.146  11.304  0.00  0.00     0.003 A 
ATOM     21  C   UNL d   1      30.815 -15.418  10.932  0.00  0.00     0.000 A 
ATOM     22  C   UNL d   1      29.617 -15.568  10.235  0.00  0.00     0.003 A 
ATOM     23  C   UNL d   1      28.844 -14.446   9.912  0.00  0.00     0.037 A 
ENDBRANCH  17  18
ENDBRANCH  16  17
ENDBRANCH  15  16
ENDBRANCH  14  15
ENDBRANCH  11  14
ENDBRANCH   6   8
ENDBRANCH   5   6
ENDBRANCH   2   5
BRANCH   3  24
ATOM     24  C   UNL d   1      26.901 -16.176  -0.821  0.00  0.00     0.034 A 
ATOM     25  C   UNL d   1      27.015 -17.111   0.207  0.00  0.00     0.032 A 
ATOM     26  C   UNL d   1      26.001 -18.071   0.399  0.00  0.00     0.039 A 
ATOM     27  C   UNL d   1      24.850 -18.072  -0.401  0.00  0.00     0.069 A 
ATOM     28  C   UNL d   1      24.771 -17.165  -1.447  0.00  0.00     0.039 A 
ATOM     29  C   UNL d   1      25.803 -16.261  -1.672  0.00  0.00     0.032 A 
BRANCH  27  30
ATOM     30  O   UNL d   1      23.876 -18.988  -0.097  0.00  0.00    -0.349 OA
BRANCH  30  31
ATOM     31  C   UNL d   1      22.902 -19.236  -1.125  0.00  0.00     0.202 C 
BRANCH  31  32
ATOM     32  C   UNL d   1      21.668 -18.362  -0.899  0.00  0.00     0.202 C 
BRANCH  32  33
ATOM     33  O   UNL d   1      20.494 -19.131  -1.188  0.00  0.00    -0.349 OA
BRANCH  33  34
ATOM     34  C   UNL d   1      19.835 -19.652  -0.105  0.00  0.00     0.068 A 
ATOM     35  C   UNL d   1      20.434 -19.442   1.141  0.00  0.00     0.037 A 
ATOM     36  C   UNL d   1      19.910 -20.040   2.291  0.00  0.00     0.003 A 
ATOM     37  C   UNL d   1      18.752 -20.811   2.209  0.00  0.00     0.000 A 
ATOM     38  C   UNL d   1      18.146 -21.015   0.971  0.00  0.00     0.003 A 
ATOM     39  C   UNL d   1      18.693 -20.448  -0.185  0.00  0.00     0.037 A 
ENDBRANCH  33  34
ENDBRANCH  32  33
ENDBRANCH  31  32
ENDBRANCH  30  31
ENDBRANCH  27  30
ENDBRANCH   3  24
TORSDOF 14
ENDMDL
MODEL 2
REMARK VINA RESULT:    -9.739      1.166      1.572
REMARK INTER + INTRA:         -15.484
REMARK INTER:                 -13.915
REMARK INTRA:                  -1.568
REMARK CONF_INDEPENDENT:        4.176
REMARK UNBOUND:                -1.568
REMARK  14 active torsions:
REMARK  status: ('A' for Active; 'I' for Inactive)
REMARK    1  A    between atoms: C_2  and  C_3 
REMARK       I    between atoms: C_2  and  N_21 
REMARK    2  A    between atoms: C_3  and  N_4 
REMARK    3  A    between atoms: N_4  and  C_5 
REMARK    4  A    between atoms: C_8  and  O_9 
REMARK    5  A    between atoms: O_9  and  C_10 
REMARK    6  A    between atoms: C_10  and  C_11 
REMARK    7  A    between atoms: C_11  and  O_12 
REMARK    8  A    between atoms: O_12  and  C_13 
REMARK    9  A    between atoms: N_21  and  C_22 
REMARK   10  A    between atoms: C_25  and  O_26 
REMARK   11  A    between atoms: O_26  and  C_27 
REMARK   12  A    between atoms: C_27  and  C_28 
REMARK   13  A    between atoms: C_28  and  O_29 
REMARK   14  A    between atoms: O_29  and  C_30 
ROOT
ATOM      1  O   UNL d   1      29.820 -14.214   1.458  0.00  0.00    -0.271 OA
ATOM      2  C   UNL d   1      28.727 -14.542   0.969  0.00  0.00     0.239 C 
ATOM      3  N   UNL d   1      28.445 -15.883   0.784  0.00  0.00    -0.326 N 
ATOM      4  H   UNL d   1      29.125 -16.512   1.198  0.00  0.00     0.169 HD
ENDROOT
BRANCH   2   5
ATOM      5  C   UNL d   1      27.623 -13.515   0.669  0.00  0.00     0.223 C 
BRANCH   5   6
ATOM      6  N   UNL d   1      26.662 -13.360   1.750  0.00  0.00    -0.381 N 
ATOM      7  H   UNL d   1      25.681 -13.508   1.535  0.00  0.00     0.160 HD
BRANCH   6   8
ATOM      8  C   UNL d   1      27.068 -13.025   3.027  0.00  0.00     0.028 A 
ATOM      9  C   UNL d   1      27.186 -14.006   4.015  0.00  0.00     0.032 A 
ATOM     10  C   UNL d   1      27.536 -13.667   5.333  0.00  0.00     0.039 A 
ATOM     11  C   UNL d   1      27.853 -12.349   5.673  0.00  0.00     0.069 A 
ATOM     12  C   UNL d   1      27.782 -11.376   4.681  0.00  0.00     0.039 A 
ATOM     13  C   UNL d   1      27.417 -11.717   3.375  0.00  0.00     0.032 A 
BRANCH  11  14
ATOM     14  O   UNL d   1      28.230 -12.129   6.974  0.00  0.00    -0.349 OA
BRANCH  14  15
ATOM     15  C   UNL d   1      29.575 -11.675   7.179  0.00  0.00     0.202 C 
BRANCH  15  16
ATOM     16  C   UNL d   1      29.602 -10.580   8.249  0.00  0.00     0.202 C 
BRANCH  16  17
ATOM     17  O   UNL d   1      29.996 -11.162   9.499  0.00  0.00    -0.349 OA
BRANCH  17  18
ATOM     18  C   UNL d   1      29.470 -12.395   9.785  0.00  0.00     0.068 A 
ATOM     19  C   UNL d   1      28.330 -12.406  10.595  0.00  0.00     0.037 A 
ATOM     20  C   UNL d   1      27.794 -13.614  11.051  0.00  0.00     0.003 A 
ATOM     21  C   UNL d   1      28.364 -14.822  10.657  0.00  0.00     0.000 A 
ATOM     22  C   UNL d   1      29.494 -14.818   9.841  0.00  0.00     0.003 A 
ATOM     23  C   UNL d   1      30.054 -13.606   9.417  0.00  0.00     0.037 A 
ENDBRANCH  17  18
ENDBRANCH  16  17
ENDBRANCH  15  16
ENDBRANCH  14  15
ENDBRANCH  11  14
ENDBRANCH   6   8
ENDBRANCH   5   6
ENDBRANCH   2   5
BRANCH   3  24
ATOM     24  C   UNL d   1      27.328 -16.446   0.139  0.00  0.00     0.034 A 
ATOM     25  C   UNL d   1      26.776 -17.646   0.588  0.00  0.00     0.032 A 
ATOM     26  C   UNL d   1      25.666 -18.200  -0.080  0.00  0.00     0.039 A 
ATOM     27  C   UNL d   1      25.073 -17.539  -1.164  0.00  0.00     0.069 A 
ATOM     28  C   UNL d   1      25.660 -16.370  -1.626  0.00  0.00     0.039 A 
ATOM     29  C   UNL d   1      26.793 -15.859  -1.004  0.00  0.00     0.032 A 
BRANCH  27  30
ATOM     30  O   UNL d   1      23.948 -18.106  -1.705  0.00  0.00    -0.349 OA
BRANCH  30  31
ATOM     31  C   UNL d   1      23.215 -18.995  -0.846  0.00  0.00     0.202 C 
BRANCH  31  32
ATOM     32  C   UNL d   1      22.141 -18.220  -0.083  0.00  0.00     0.202 C 
BRANCH  32  33
ATOM     33  O   UNL d   1      20.866 -18.474  -0.686  0.00  0.00    -0.349 OA
BRANCH  33  34
ATOM     34  C   UNL d   1      20.005 -19.258   0.037  0.00  0.00     0.068 A 
ATOM     35  C   UNL d   1      20.258 -19.349   1.409  0.00  0.00     0.037 A 
ATOM     36  C   UNL d   1      19.516 -20.222   2.211  0.00  0.00     0.003 A 
ATOM     37  C   UNL d   1      18.483 -20.972   1.654  0.00  0.00     0.000 A 
ATOM     38  C   UNL d   1      18.221 -20.877   0.288  0.00  0.00     0.003 A 
ATOM     39  C   UNL d   1      18.989 -20.033  -0.520  0.00  0.00     0.037 A 
ENDBRANCH  33  34
ENDBRANCH  32  33
ENDBRANCH  31  32
ENDBRANCH  30  31
ENDBRANCH  27  30
ENDBRANCH   3  24
TORSDOF 14
ENDMDL
MODEL 3
REMARK VINA RESULT:    -9.621      5.287      8.963
REMARK INTER + INTRA:         -15.704
REMARK INTER:                 -13.797
REMARK INTRA:                  -1.907
REMARK CONF_INDEPENDENT:        4.176
REMARK UNBOUND:                -1.907
REMARK  14 active torsions:
REMARK  status: ('A' for Active; 'I' for Inactive)
REMARK    1  A    between atoms: C_2  and  C_3 
REMARK       I    between atoms: C_2  and  N_21 
REMARK    2  A    between atoms: C_3  and  N_4 
REMARK    3  A    between atoms: N_4  and  C_5 
REMARK    4  A    between atoms: C_8  and  O_9 
REMARK    5  A    between atoms: O_9  and  C_10 
REMARK    6  A    between atoms: C_10  and  C_11 
REMARK    7  A    between atoms: C_11  and  O_12 
REMARK    8  A    between atoms: O_12  and  C_13 
REMARK    9  A    between atoms: N_21  and  C_22 
REMARK   10  A    between atoms: C_25  and  O_26 
REMARK   11  A    between atoms: O_26  and  C_27 
REMARK   12  A    between atoms: C_27  and  C_28 
REMARK   13  A    between atoms: C_28  and  O_29 
REMARK   14  A    between atoms: O_29  and  C_30 
ROOT
ATOM      1  O   UNL d   1      29.510 -13.789   0.791  0.00  0.00    -0.271 OA
ATOM      2  C   UNL d   1      28.403 -14.323   0.615  0.00  0.00     0.239 C 
ATOM      3  N   UNL d   1      28.305 -15.702   0.654  0.00  0.00    -0.326 N 
ATOM      4  H   UNL d   1      29.150 -16.170   0.963  0.00  0.00     0.169 HD
ENDROOT
BRANCH   2   5
ATOM      5  C   UNL d   1      27.111 -13.503   0.471  0.00  0.00     0.223 C 
BRANCH   5   6
ATOM      6  N   UNL d   1      27.034 -12.750  -0.772  0.00  0.00    -0.381 N 
ATOM      7  H   UNL d   1      26.873 -11.750  -0.709  0.00  0.00     0.160 HD
BRANCH   6   8
ATOM      8  C   UNL d   1      27.176 -13.373  -1.996  0.00  0.00     0.028 A 
ATOM      9  C   UNL d   1      28.428 -13.821  -2.424  0.00  0.00     0.032 A 
ATOM     10  C   UNL d   1      28.595 -14.398  -3.694  0.00  0.00     0.039 A 
ATOM     11  C   UNL d   1      27.498 -14.611  -4.533  0.00  0.00     0.069 A 
ATOM     12  C   UNL d   1      26.242 -14.208  -4.093  0.00  0.00     0.039 A 
ATOM     13  C   UNL d   1      26.084 -13.620  -2.833  0.00  0.00     0.032 A 
BRANCH  11  14
ATOM     14  O   UNL d   1      27.759 -15.225  -5.732  0.00  0.00    -0.349 OA
BRANCH  14  15
ATOM     15  C   UNL d   1      28.536 -14.475  -6.676  0.00  0.00     0.202 C 
BRANCH  15  16
ATOM     16  C   UNL d   1      29.949 -15.058  -6.773  0.00  0.00     0.202 C 
BRANCH  16  17
ATOM     17  O   UNL d   1      29.856 -16.479  -6.936  0.00  0.00    -0.349 OA
BRANCH  17  18
ATOM     18  C   UNL d   1      30.318 -17.239  -5.892  0.00  0.00     0.068 A 
ATOM     19  C   UNL d   1      30.573 -18.584  -6.175  0.00  0.00     0.037 A 
ATOM     20  C   UNL d   1      30.920 -19.472  -5.152  0.00  0.00     0.003 A 
ATOM     21  C   UNL d   1      31.066 -19.008  -3.847  0.00  0.00     0.000 A 
ATOM     22  C   UNL d   1      30.823 -17.666  -3.561  0.00  0.00     0.003 A 
ATOM     23  C   UNL d   1      30.437 -16.786  -4.579  0.00  0.00     0.037 A 
ENDBRANCH  17  18
ENDBRANCH  16  17
ENDBRANCH  15  16
ENDBRANCH  14  15
ENDBRANCH  11  14
ENDBRANCH   6   8
ENDBRANCH   5   6
ENDBRANCH   2   5
BRANCH   3  24
ATOM     24  C   UNL d   1      27.179 -16.493   0.359  0.00  0.00     0.034 A 
ATOM     25  C   UNL d   1      27.031 -17.760   0.924  0.00  0.00     0.032 A 
ATOM     26  C   UNL d   1      25.902 -18.541   0.605  0.00  0.00     0.039 A 
ATOM     27  C   UNL d   1      24.897 -18.047  -0.236  0.00  0.00     0.069 A 
ATOM     28  C   UNL d   1      25.080 -16.804  -0.826  0.00  0.00     0.039 A 
ATOM     29  C   UNL d   1      26.225 -16.062  -0.559  0.00  0.00     0.032 A 
BRANCH  27  30
ATOM     30  O   UNL d   1      23.795 -18.839  -0.431  0.00  0.00    -0.349 OA
BRANCH  30  31
ATOM     31  C   UNL d   1      22.525 -18.164  -0.422  0.00  0.00     0.202 C 
BRANCH  31  32
ATOM     32  C   UNL d   1      21.515 -18.939  -1.269  0.00  0.00     0.202 C 
BRANCH  32  33
ATOM     33  O   UNL d   1      20.190 -18.539  -0.895  0.00  0.00    -0.349 OA
BRANCH  33  34
ATOM     34  C   UNL d   1      19.515 -19.399  -0.069  0.00  0.00     0.068 A 
ATOM     35  C   UNL d   1      19.937 -19.434   1.264  0.00  0.00     0.037 A 
ATOM     36  C   UNL d   1      19.398 -20.368   2.155  0.00  0.00     0.003 A 
ATOM     37  C   UNL d   1      18.397 -21.239   1.731  0.00  0.00     0.000 A 
ATOM     38  C   UNL d   1      17.966 -21.201   0.406  0.00  0.00     0.003 A 
ATOM     39  C   UNL d   1      18.533 -20.293  -0.495  0.00  0.00     0.037 A 
ENDBRANCH  33  34
ENDBRANCH  32  33
ENDBRANCH  31  32
ENDBRANCH  30  31
ENDBRANCH  27  30
ENDBRANCH   3  24
TORSDOF 14
ENDMDL
MODEL 4
REMARK VINA RESULT:    -9.553      5.905     10.196
REMARK INTER + INTRA:         -16.272
REMARK INTER:                 -13.729
REMARK INTRA:                  -2.543
REMARK CONF_INDEPENDENT:        4.176
REMARK UNBOUND:                -2.543
REMARK  14 active torsions:
REMARK  status: ('A' for Active; 'I' for Inactive)
REMARK    1  A    between atoms: C_2  and  C_3 
REMARK       I    between atoms: C_2  and  N_21 
REMARK    2  A    between atoms: C_3  and  N_4 
REMARK    3  A    between atoms: N_4  and  C_5 
REMARK    4  A    between atoms: C_8  and  O_9 
REMARK    5  A    between atoms: O_9  and  C_10 
REMARK    6  A    between atoms: C_10  and  C_11 
REMARK    7  A    between atoms: C_11  and  O_12 
REMARK    8  A    between atoms: O_12  and  C_13 
REMARK    9  A    between atoms: N_21  and  C_22 
REMARK   10  A    between atoms: C_25  and  O_26 
REMARK   11  A    between atoms: O_26  and  C_27 
REMARK   12  A    between atoms: C_27  and  C_28 
REMARK   13  A    between atoms: C_28  and  O_29 
REMARK   14  A    between atoms: O_29  and  C_30 
ROOT
ATOM      1  O   UNL d   1      31.717 -16.091   1.145  0.00  0.00    -0.271 OA
ATOM      2  C   UNL d   1      31.056 -16.171   0.098  0.00  0.00     0.239 C 
ATOM      3  N   UNL d   1      31.696 -16.507  -1.081  0.00  0.00    -0.326 N 
ATOM      4  H   UNL d   1      32.660 -16.797  -0.962  0.00  0.00     0.169 HD
ENDROOT
BRANCH   2   5
ATOM      5  C   UNL d   1      29.525 -16.024   0.082  0.00  0.00     0.223 C 
BRANCH   5   6
ATOM      6  N   UNL d   1      28.819 -17.294   0.028  0.00  0.00    -0.381 N 
ATOM      7  H   UNL d   1      29.365 -18.143   0.136  0.00  0.00     0.160 HD
BRANCH   6   8
ATOM      8  C   UNL d   1      27.452 -17.346  -0.162  0.00  0.00     0.028 A 
ATOM      9  C   UNL d   1      26.789 -16.317  -0.835  0.00  0.00     0.032 A 
ATOM     10  C   UNL d   1      25.391 -16.329  -0.978  0.00  0.00     0.039 A 
ATOM     11  C   UNL d   1      24.634 -17.410  -0.521  0.00  0.00     0.069 A 
ATOM     12  C   UNL d   1      25.295 -18.460   0.109  0.00  0.00     0.039 A 
ATOM     13  C   UNL d   1      26.686 -18.435   0.263  0.00  0.00     0.032 A 
BRANCH  11  14
ATOM     14  O   UNL d   1      23.283 -17.350  -0.751  0.00  0.00    -0.349 OA
BRANCH  14  15
ATOM     15  C   UNL d   1      22.654 -18.566  -1.179  0.00  0.00     0.202 C 
BRANCH  15  16
ATOM     16  C   UNL d   1      21.138 -18.371  -1.270  0.00  0.00     0.202 C 
BRANCH  16  17
ATOM     17  O   UNL d   1      20.502 -19.655  -1.258  0.00  0.00    -0.349 OA
BRANCH  17  18
ATOM     18  C   UNL d   1      19.815 -19.979  -0.117  0.00  0.00     0.068 A 
ATOM     19  C   UNL d   1      20.446 -19.669   1.092  0.00  0.00     0.037 A 
ATOM     20  C   UNL d   1      19.891 -20.075   2.309  0.00  0.00     0.003 A 
ATOM     21  C   UNL d   1      18.673 -20.749   2.327  0.00  0.00     0.000 A 
ATOM     22  C   UNL d   1      18.033 -21.053   1.126  0.00  0.00     0.003 A 
ATOM     23  C   UNL d   1      18.610 -20.680  -0.093  0.00  0.00     0.037 A 
ENDBRANCH  17  18
ENDBRANCH  16  17
ENDBRANCH  15  16
ENDBRANCH  14  15
ENDBRANCH  11  14
ENDBRANCH   6   8
ENDBRANCH   5   6
ENDBRANCH   2   5
BRANCH   3  24
ATOM     24  C   UNL d   1      31.153 -16.527  -2.379  0.00  0.00     0.034 A 
ATOM     25  C   UNL d   1      30.802 -15.340  -3.022  0.00  0.00     0.032 A 
ATOM     26  C   UNL d   1      30.247 -15.382  -4.317  0.00  0.00     0.039 A 
ATOM     27  C   UNL d   1      30.084 -16.598  -4.992  0.00  0.00     0.069 A 
ATOM     28  C   UNL d   1      30.395 -17.773  -4.323  0.00  0.00     0.039 A 
ATOM     29  C   UNL d   1      30.883 -17.732  -3.022  0.00  0.00     0.032 A 
BRANCH  27  30
ATOM     30  O   UNL d   1      29.612 -16.543  -6.279  0.00  0.00    -0.349 OA
BRANCH  30  31
ATOM     31  C   UNL d   1      29.779 -15.287  -6.957  0.00  0.00     0.202 C 
BRANCH  31  32
ATOM     32  C   UNL d   1      28.542 -14.412  -6.753  0.00  0.00     0.202 C 
BRANCH  32  33
ATOM     33  O   UNL d   1      27.510 -15.199  -6.146  0.00  0.00    -0.349 OA
BRANCH  33  34
ATOM     34  C   UNL d   1      26.806 -14.593  -5.138  0.00  0.00     0.068 A 
ATOM     35  C   UNL d   1      27.401 -13.467  -4.561  0.00  0.00     0.037 A 
ATOM     36  C   UNL d   1      26.825 -12.854  -3.444  0.00  0.00     0.003 A 
ATOM     37  C   UNL d   1      25.624 -13.334  -2.928  0.00  0.00     0.000 A 
ATOM     38  C   UNL d   1      25.022 -14.450  -3.506  0.00  0.00     0.003 A 
ATOM     39  C   UNL d   1      25.619 -15.087  -4.599  0.00  0.00     0.037 A 
ENDBRANCH  33  34
ENDBRANCH  32  33
ENDBRANCH  31  32
ENDBRANCH  30  31
ENDBRANCH  27  30
ENDBRANCH   3  24
TORSDOF 14
ENDMDL
MODEL 5
REMARK VINA RESULT:    -9.405      1.378     11.153
REMARK INTER + INTRA:         -15.184
REMARK INTER:                 -13.581
REMARK INTRA:                  -1.603
REMARK CONF_INDEPENDENT:        4.176
REMARK UNBOUND:                -1.603
REMARK  14 active torsions:
REMARK  status: ('A' for Active; 'I' for Inactive)
REMARK    1  A    between atoms: C_2  and  C_3 
REMARK       I    between atoms: C_2  and  N_21 
REMARK    2  A    between atoms: C_3  and  N_4 
REMARK    3  A    between atoms: N_4  and  C_5 
REMARK    4  A    between atoms: C_8  and  O_9 
REMARK    5  A    between atoms: O_9  and  C_10 
REMARK    6  A    between atoms: C_10  and  C_11 
REMARK    7  A    between atoms: C_11  and  O_12 
REMARK    8  A    between atoms: O_12  and  C_13 
REMARK    9  A    between atoms: N_21  and  C_22 
REMARK   10  A    between atoms: C_25  and  O_26 
REMARK   11  A    between atoms: O_26  and  C_27 
REMARK   12  A    between atoms: C_27  and  C_28 
REMARK   13  A    between atoms: C_28  and  O_29 
REMARK   14  A    between atoms: O_29  and  C_30 
ROOT
ATOM      1  O   UNL d   1      30.089 -13.828  -1.986  0.00  0.00    -0.271 OA
ATOM      2  C   UNL d   1      29.772 -14.178  -0.838  0.00  0.00     0.239 C 
ATOM      3  N   UNL d   1      29.268 -13.236   0.040  0.00  0.00    -0.326 N 
ATOM      4  H   UNL d   1      29.071 -12.337  -0.384  0.00  0.00     0.169 HD
ENDROOT
BRANCH   2   5
ATOM      5  C   UNL d   1      29.810 -15.649  -0.391  0.00  0.00     0.223 C 
BRANCH   5   6
ATOM      6  N   UNL d   1      28.734 -16.008   0.520  0.00  0.00    -0.381 N 
ATOM      7  H   UNL d   1      28.938 -16.010   1.515  0.00  0.00     0.160 HD
BRANCH   6   8
ATOM      8  C   UNL d   1      27.477 -16.334   0.051  0.00  0.00     0.028 A 
ATOM      9  C   UNL d   1      26.842 -15.529  -0.898  0.00  0.00     0.032 A 
ATOM     10  C   UNL d   1      25.538 -15.816  -1.335  0.00  0.00     0.039 A 
ATOM     11  C   UNL d   1      24.870 -16.960  -0.891  0.00  0.00     0.069 A 
ATOM     12  C   UNL d   1      25.516 -17.790   0.019  0.00  0.00     0.039 A 
ATOM     13  C   UNL d   1      26.809 -17.490   0.463  0.00  0.00     0.032 A 
BRANCH  11  14
ATOM     14  O   UNL d   1      23.620 -17.177  -1.413  0.00  0.00    -0.349 OA
BRANCH  14  15
ATOM     15  C   UNL d   1      23.165 -18.538  -1.430  0.00  0.00     0.202 C 
BRANCH  15  16
ATOM     16  C   UNL d   1      22.246 -18.799  -0.233  0.00  0.00     0.202 C 
BRANCH  16  17
ATOM     17  O   UNL d   1      20.884 -18.630  -0.647  0.00  0.00    -0.349 OA
BRANCH  17  18
ATOM     18  C   UNL d   1      19.947 -19.352   0.046  0.00  0.00     0.068 A 
ATOM     19  C   UNL d   1      20.142 -19.447   1.428  0.00  0.00     0.037 A 
ATOM     20  C   UNL d   1      19.319 -20.267   2.207  0.00  0.00     0.003 A 
ATOM     21  C   UNL d   1      18.263 -20.955   1.616  0.00  0.00     0.000 A 
ATOM     22  C   UNL d   1      18.057 -20.856   0.241  0.00  0.00     0.003 A 
ATOM     23  C   UNL d   1      18.905 -20.066  -0.544  0.00  0.00     0.037 A 
ENDBRANCH  17  18
ENDBRANCH  16  17
ENDBRANCH  15  16
ENDBRANCH  14  15
ENDBRANCH  11  14
ENDBRANCH   6   8
ENDBRANCH   5   6
ENDBRANCH   2   5
BRANCH   3  24
ATOM     24  C   UNL d   1      28.972 -13.406   1.405  0.00  0.00     0.034 A 
ATOM     25  C   UNL d   1      27.670 -13.239   1.878  0.00  0.00     0.032 A 
ATOM     26  C   UNL d   1      27.397 -13.400   3.251  0.00  0.00     0.039 A 
ATOM     27  C   UNL d   1      28.406 -13.773   4.148  0.00  0.00     0.069 A 
ATOM     28  C   UNL d   1      29.704 -13.892   3.671  0.00  0.00     0.039 A 
ATOM     29  C   UNL d   1      29.981 -13.670   2.327  0.00  0.00     0.032 A 
BRANCH  27  30
ATOM     30  O   UNL d   1      28.040 -13.987   5.452  0.00  0.00    -0.349 OA
BRANCH  30  31
ATOM     31  C   UNL d   1      27.903 -12.811   6.268  0.00  0.00     0.202 C 
BRANCH  31  32
ATOM     32  C   UNL d   1      28.991 -12.790   7.342  0.00  0.00     0.202 C 
BRANCH  32  33
ATOM     33  O   UNL d   1      28.992 -14.048   8.029  0.00  0.00    -0.349 OA
BRANCH  33  34
ATOM     34  C   UNL d   1      28.820 -13.991   9.387  0.00  0.00     0.068 A 
ATOM     35  C   UNL d   1      28.268 -12.809   9.891  0.00  0.00     0.037 A 
ATOM     36  C   UNL d   1      28.170 -12.603  11.270  0.00  0.00     0.003 A 
ATOM     37  C   UNL d   1      28.578 -13.599  12.154  0.00  0.00     0.000 A 
ATOM     38  C   UNL d   1      29.120 -14.782  11.657  0.00  0.00     0.003 A 
ATOM     39  C   UNL d   1      29.254 -14.972  10.278  0.00  0.00     0.037 A 
ENDBRANCH  33  34
ENDBRANCH  32  33
ENDBRANCH  31  32
ENDBRANCH  30  31
ENDBRANCH  27  30
ENDBRANCH   3  24
TORSDOF 14
ENDMDL
MODEL 6
REMARK VINA RESULT:    -8.918      5.774     10.280
REMARK INTER + INTRA:         -16.248
REMARK INTER:                 -13.095
REMARK INTRA:                  -3.153
REMARK CONF_INDEPENDENT:        4.176
REMARK UNBOUND:                -3.153
REMARK  14 active torsions:
REMARK  status: ('A' for Active; 'I' for Inactive)
REMARK    1  A    between atoms: C_2  and  C_3 
REMARK       I    between atoms: C_2  and  N_21 
REMARK    2  A    between atoms: C_3  and  N_4 
REMARK    3  A    between atoms: N_4  and  C_5 
REMARK    4  A    between atoms: C_8  and  O_9 
REMARK    5  A    between atoms: O_9  and  C_10 
REMARK    6  A    between atoms: C_10  and  C_11 
REMARK    7  A    between atoms: C_11  and  O_12 
REMARK    8  A    between atoms: O_12  and  C_13 
REMARK    9  A    between atoms: N_21  and  C_22 
REMARK   10  A    between atoms: C_25  and  O_26 
REMARK   11  A    between atoms: O_26  and  C_27 
REMARK   12  A    between atoms: C_27  and  C_28 
REMARK   13  A    between atoms: C_28  and  O_29 
REMARK   14  A    between atoms: O_29  and  C_30 
ROOT
ATOM      1  O   UNL d   1      31.795 -16.071   0.529  0.00  0.00    -0.271 OA
ATOM      2  C   UNL d   1      30.805 -15.667  -0.101  0.00  0.00     0.239 C 
ATOM      3  N   UNL d   1      30.537 -14.310  -0.140  0.00  0.00    -0.326 N 
ATOM      4  H   UNL d   1      31.271 -13.731   0.253  0.00  0.00     0.169 HD
ENDROOT
BRANCH   2   5
ATOM      5  C   UNL d   1      29.926 -16.610  -0.939  0.00  0.00     0.223 C 
BRANCH   5   6
ATOM      6  N   UNL d   1      29.050 -17.453  -0.141  0.00  0.00    -0.381 N 
ATOM      7  H   UNL d   1      29.482 -18.071   0.539  0.00  0.00     0.160 HD
BRANCH   6   8
ATOM      8  C   UNL d   1      27.679 -17.416  -0.301  0.00  0.00     0.028 A 
ATOM      9  C   UNL d   1      26.846 -18.160   0.538  0.00  0.00     0.032 A 
ATOM     10  C   UNL d   1      25.454 -18.180   0.345  0.00  0.00     0.039 A 
ATOM     11  C   UNL d   1      24.858 -17.391  -0.643  0.00  0.00     0.069 A 
ATOM     12  C   UNL d   1      25.681 -16.612  -1.452  0.00  0.00     0.039 A 
ATOM     13  C   UNL d   1      27.067 -16.610  -1.264  0.00  0.00     0.032 A 
BRANCH  11  14
ATOM     14  O   UNL d   1      23.490 -17.442  -0.721  0.00  0.00    -0.349 OA
BRANCH  14  15
ATOM     15  C   UNL d   1      22.881 -18.700  -0.397  0.00  0.00     0.202 C 
BRANCH  15  16
ATOM     16  C   UNL d   1      21.633 -18.917  -1.258  0.00  0.00     0.202 C 
BRANCH  16  17
ATOM     17  O   UNL d   1      20.496 -18.375  -0.575  0.00  0.00    -0.349 OA
BRANCH  17  18
ATOM     18  C   UNL d   1      19.697 -19.276   0.078  0.00  0.00     0.068 A 
ATOM     19  C   UNL d   1      19.947 -19.447   1.444  0.00  0.00     0.037 A 
ATOM     20  C   UNL d   1      19.278 -20.436   2.171  0.00  0.00     0.003 A 
ATOM     21  C   UNL d   1      18.314 -21.225   1.549  0.00  0.00     0.000 A 
ATOM     22  C   UNL d   1      18.051 -21.052   0.191  0.00  0.00     0.003 A 
ATOM     23  C   UNL d   1      18.751 -20.089  -0.545  0.00  0.00     0.037 A 
ENDBRANCH  17  18
ENDBRANCH  16  17
ENDBRANCH  15  16
ENDBRANCH  14  15
ENDBRANCH  11  14
ENDBRANCH   6   8
ENDBRANCH   5   6
ENDBRANCH   2   5
BRANCH   3  24
ATOM     24  C   UNL d   1      29.409 -13.672  -0.688  0.00  0.00     0.034 A 
ATOM     25  C   UNL d   1      29.514 -12.922  -1.859  0.00  0.00     0.032 A 
ATOM     26  C   UNL d   1      28.375 -12.279  -2.385  0.00  0.00     0.039 A 
ATOM     27  C   UNL d   1      27.122 -12.421  -1.775  0.00  0.00     0.069 A 
ATOM     28  C   UNL d   1      27.042 -13.133  -0.586  0.00  0.00     0.039 A 
ATOM     29  C   UNL d   1      28.180 -13.713  -0.037  0.00  0.00     0.032 A 
BRANCH  27  30
ATOM     30  O   UNL d   1      26.051 -11.829  -2.395  0.00  0.00    -0.349 OA
BRANCH  30  31
ATOM     31  C   UNL d   1      25.585 -12.472  -3.593  0.00  0.00     0.202 C 
BRANCH  31  32
ATOM     32  C   UNL d   1      25.272 -13.942  -3.311  0.00  0.00     0.202 C 
BRANCH  32  33
ATOM     33  O   UNL d   1      25.615 -14.721  -4.464  0.00  0.00    -0.349 OA
BRANCH  33  34
ATOM     34  C   UNL d   1      26.952 -14.811  -4.752  0.00  0.00     0.068 A 
ATOM     35  C   UNL d   1      27.369 -14.210  -5.944  0.00  0.00     0.037 A 
ATOM     36  C   UNL d   1      28.686 -14.356  -6.389  0.00  0.00     0.003 A 
ATOM     37  C   UNL d   1      29.608 -15.062  -5.620  0.00  0.00     0.000 A 
ATOM     38  C   UNL d   1      29.200 -15.654  -4.427  0.00  0.00     0.003 A 
ATOM     39  C   UNL d   1      27.872 -15.542  -4.001  0.00  0.00     0.037 A 
ENDBRANCH  33  34
ENDBRANCH  32  33
ENDBRANCH  31  32
ENDBRANCH  30  31
ENDBRANCH  27  30
ENDBRANCH   3  24
TORSDOF 14
ENDMDL
MODEL 7
REMARK VINA RESULT:    -8.837      2.536      3.734
REMARK INTER + INTRA:         -15.122
REMARK INTER:                 -13.013
REMARK INTRA:                  -2.109
REMARK CONF_INDEPENDENT:        4.176
REMARK UNBOUND:                -2.109
REMARK  14 active torsions:
REMARK  status: ('A' for Active; 'I' for Inactive)
REMARK    1  A    between atoms: C_2  and  C_3 
REMARK       I    between atoms: C_2  and  N_21 
REMARK    2  A    between atoms: C_3  and  N_4 
REMARK    3  A    between atoms: N_4  and  C_5 
REMARK    4  A    between atoms: C_8  and  O_9 
REMARK    5  A    between atoms: O_9  and  C_10 
REMARK    6  A    between atoms: C_10  and  C_11 
REMARK    7  A    between atoms: C_11  and  O_12 
REMARK    8  A    between atoms: O_12  and  C_13 
REMARK    9  A    between atoms: N_21  and  C_22 
REMARK   10  A    between atoms: C_25  and  O_26 
REMARK   11  A    between atoms: O_26  and  C_27 
REMARK   12  A    between atoms: C_27  and  C_28 
REMARK   13  A    between atoms: C_28  and  O_29 
REMARK   14  A    between atoms: O_29  and  C_30 
ROOT
ATOM      1  O   UNL d   1      29.430 -14.476   1.563  0.00  0.00    -0.271 OA
ATOM      2  C   UNL d   1      28.332 -14.805   1.088  0.00  0.00     0.239 C 
ATOM      3  N   UNL d   1      28.121 -16.123   0.725  0.00  0.00    -0.326 N 
ATOM      4  H   UNL d   1      28.862 -16.755   1.006  0.00  0.00     0.169 HD
ENDROOT
BRANCH   2   5
ATOM      5  C   UNL d   1      27.151 -13.824   0.999  0.00  0.00     0.223 C 
BRANCH   5   6
ATOM      6  N   UNL d   1      27.525 -12.506   0.511  0.00  0.00    -0.381 N 
ATOM      7  H   UNL d   1      27.864 -12.434  -0.443  0.00  0.00     0.160 HD
BRANCH   6   8
ATOM      8  C   UNL d   1      27.421 -11.389   1.316  0.00  0.00     0.028 A 
ATOM      9  C   UNL d   1      27.037 -11.510   2.653  0.00  0.00     0.032 A 
ATOM     10  C   UNL d   1      26.866 -10.374   3.463  0.00  0.00     0.039 A 
ATOM     11  C   UNL d   1      27.153  -9.097   2.975  0.00  0.00     0.069 A 
ATOM     12  C   UNL d   1      27.581  -8.975   1.656  0.00  0.00     0.039 A 
ATOM     13  C   UNL d   1      27.733 -10.108   0.850  0.00  0.00     0.032 A 
BRANCH  11  14
ATOM     14  O   UNL d   1      27.002  -8.058   3.858  0.00  0.00    -0.349 OA
BRANCH  14  15
ATOM     15  C   UNL d   1      28.202  -7.554   4.460  0.00  0.00     0.202 C 
BRANCH  15  16
ATOM     16  C   UNL d   1      29.265  -8.655   4.514  0.00  0.00     0.202 C 
BRANCH  16  17
ATOM     17  O   UNL d   1      29.103  -9.399   5.729  0.00  0.00    -0.349 OA
BRANCH  17  18
ATOM     18  C   UNL d   1      29.022 -10.761   5.599  0.00  0.00     0.068 A 
ATOM     19  C   UNL d   1      28.161 -11.415   6.486  0.00  0.00     0.037 A 
ATOM     20  C   UNL d   1      28.106 -12.812   6.522  0.00  0.00     0.003 A 
ATOM     21  C   UNL d   1      28.874 -13.562   5.635  0.00  0.00     0.000 A 
ATOM     22  C   UNL d   1      29.726 -12.916   4.742  0.00  0.00     0.003 A 
ATOM     23  C   UNL d   1      29.810 -11.518   4.733  0.00  0.00     0.037 A 
ENDBRANCH  17  18
ENDBRANCH  16  17
ENDBRANCH  15  16
ENDBRANCH  14  15
ENDBRANCH  11  14
ENDBRANCH   6   8
ENDBRANCH   5   6
ENDBRANCH   2   5
BRANCH   3  24
ATOM     24  C   UNL d   1      27.003 -16.663   0.063  0.00  0.00     0.034 A 
ATOM     25  C   UNL d   1      26.526 -16.089  -1.116  0.00  0.00     0.032 A 
ATOM     26  C   UNL d   1      25.397 -16.637  -1.757  0.00  0.00     0.039 A 
ATOM     27  C   UNL d   1      24.770 -17.784  -1.255  0.00  0.00     0.069 A 
ATOM     28  C   UNL d   1      25.227 -18.318  -0.058  0.00  0.00     0.039 A 
ATOM     29  C   UNL d   1      26.302 -17.737   0.605  0.00  0.00     0.032 A 
BRANCH  27  30
ATOM     30  O   UNL d   1      23.728 -18.299  -1.983  0.00  0.00    -0.349 OA
BRANCH  30  31
ATOM     31  C   UNL d   1      22.713 -18.985  -1.230  0.00  0.00     0.202 C 
BRANCH  31  32
ATOM     32  C   UNL d   1      21.729 -17.977  -0.636  0.00  0.00     0.202 C 
BRANCH  32  33
ATOM     33  O   UNL d   1      20.392 -18.409  -0.917  0.00  0.00    -0.349 OA
BRANCH  33  34
ATOM     34  C   UNL d   1      19.862 -19.324  -0.045  0.00  0.00     0.068 A 
ATOM     35  C   UNL d   1      18.781 -20.074  -0.520  0.00  0.00     0.037 A 
ATOM     36  C   UNL d   1      18.090 -20.942   0.331  0.00  0.00     0.003 A 
ATOM     37  C   UNL d   1      18.508 -21.102   1.650  0.00  0.00     0.000 A 
ATOM     38  C   UNL d   1      19.590 -20.364   2.125  0.00  0.00     0.003 A 
ATOM     39  C   UNL d   1      20.257 -19.467   1.284  0.00  0.00     0.037 A 
ENDBRANCH  33  34
ENDBRANCH  32  33
ENDBRANCH  31  32
ENDBRANCH  30  31
ENDBRANCH  27  30
ENDBRANCH   3  24
TORSDOF 14
ENDMDL
MODEL 8
REMARK VINA RESULT:    -8.621      1.801      3.225
REMARK INTER + INTRA:         -15.490
REMARK INTER:                 -12.797
REMARK INTRA:                  -2.693
REMARK CONF_INDEPENDENT:        4.176
REMARK UNBOUND:                -2.693
REMARK  14 active torsions:
REMARK  status: ('A' for Active; 'I' for Inactive)
REMARK    1  A    between atoms: C_2  and  C_3 
REMARK       I    between atoms: C_2  and  N_21 
REMARK    2  A    between atoms: C_3  and  N_4 
REMARK    3  A    between atoms: N_4  and  C_5 
REMARK    4  A    between atoms: C_8  and  O_9 
REMARK    5  A    between atoms: O_9  and  C_10 
REMARK    6  A    between atoms: C_10  and  C_11 
REMARK    7  A    between atoms: C_11  and  O_12 
REMARK    8  A    between atoms: O_12  and  C_13 
REMARK    9  A    between atoms: N_21  and  C_22 
REMARK   10  A    between atoms: C_25  and  O_26 
REMARK   11  A    between atoms: O_26  and  C_27 
REMARK   12  A    between atoms: C_27  and  C_28 
REMARK   13  A    between atoms: C_28  and  O_29 
REMARK   14  A    between atoms: O_29  and  C_30 
ROOT
ATOM      1  O   UNL d   1      29.686 -13.435  -0.089  0.00  0.00    -0.271 OA
ATOM      2  C   UNL d   1      28.747 -14.171   0.252  0.00  0.00     0.239 C 
ATOM      3  N   UNL d   1      28.362 -15.205  -0.581  0.00  0.00    -0.326 N 
ATOM      4  H   UNL d   1      28.985 -15.360  -1.365  0.00  0.00     0.169 HD
ENDROOT
BRANCH   2   5
ATOM      5  C   UNL d   1      28.068 -14.048   1.627  0.00  0.00     0.223 C 
BRANCH   5   6
ATOM      6  N   UNL d   1      28.775 -14.746   2.690  0.00  0.00    -0.381 N 
ATOM      7  H   UNL d   1      29.316 -15.568   2.437  0.00  0.00     0.160 HD
BRANCH   6   8
ATOM      8  C   UNL d   1      28.716 -14.307   3.997  0.00  0.00     0.028 A 
ATOM      9  C   UNL d   1      29.840 -14.384   4.824  0.00  0.00     0.032 A 
ATOM     10  C   UNL d   1      29.774 -13.999   6.174  0.00  0.00     0.039 A 
ATOM     11  C   UNL d   1      28.602 -13.454   6.706  0.00  0.00     0.069 A 
ATOM     12  C   UNL d   1      27.493 -13.333   5.874  0.00  0.00     0.039 A 
ATOM     13  C   UNL d   1      27.561 -13.732   4.535  0.00  0.00     0.032 A 
BRANCH  11  14
ATOM     14  O   UNL d   1      28.653 -13.065   8.020  0.00  0.00    -0.349 OA
BRANCH  14  15
ATOM     15  C   UNL d   1      28.533 -11.658   8.273  0.00  0.00     0.202 C 
BRANCH  15  16
ATOM     16  C   UNL d   1      29.792 -10.929   7.793  0.00  0.00     0.202 C 
BRANCH  16  17
ATOM     17  O   UNL d   1      29.434 -10.036   6.730  0.00  0.00    -0.349 OA
BRANCH  17  18
ATOM     18  C   UNL d   1      29.687 -10.478   5.458  0.00  0.00     0.068 A 
ATOM     19  C   UNL d   1      30.987 -10.928   5.208  0.00  0.00     0.037 A 
ATOM     20  C   UNL d   1      31.382 -11.276   3.913  0.00  0.00     0.003 A 
ATOM     21  C   UNL d   1      30.464 -11.225   2.867  0.00  0.00     0.000 A 
ATOM     22  C   UNL d   1      29.163 -10.787   3.112  0.00  0.00     0.003 A 
ATOM     23  C   UNL d   1      28.780 -10.402   4.401  0.00  0.00     0.037 A 
ENDBRANCH  17  18
ENDBRANCH  16  17
ENDBRANCH  15  16
ENDBRANCH  14  15
ENDBRANCH  11  14
ENDBRANCH   6   8
ENDBRANCH   5   6
ENDBRANCH   2   5
BRANCH   3  24
ATOM     24  C   UNL d   1      27.255 -16.061  -0.433  0.00  0.00     0.034 A 
ATOM     25  C   UNL d   1      27.393 -17.303   0.188  0.00  0.00     0.032 A 
ATOM     26  C   UNL d   1      26.275 -18.151   0.315  0.00  0.00     0.039 A 
ATOM     27  C   UNL d   1      25.010 -17.749  -0.133  0.00  0.00     0.069 A 
ATOM     28  C   UNL d   1      24.897 -16.531  -0.789  0.00  0.00     0.039 A 
ATOM     29  C   UNL d   1      26.015 -15.724  -0.968  0.00  0.00     0.032 A 
BRANCH  27  30
ATOM     30  O   UNL d   1      23.961 -18.600   0.100  0.00  0.00    -0.349 OA
BRANCH  30  31
ATOM     31  C   UNL d   1      23.161 -18.942  -1.045  0.00  0.00     0.202 C 
BRANCH  31  32
ATOM     32  C   UNL d   1      21.773 -18.311  -0.921  0.00  0.00     0.202 C 
BRANCH  32  33
ATOM     33  O   UNL d   1      20.783 -19.299  -1.234  0.00  0.00    -0.349 OA
BRANCH  33  34
ATOM     34  C   UNL d   1      20.018 -19.736  -0.184  0.00  0.00     0.068 A 
ATOM     35  C   UNL d   1      20.548 -19.531   1.093  0.00  0.00     0.037 A 
ATOM     36  C   UNL d   1      19.906 -20.053   2.220  0.00  0.00     0.003 A 
ATOM     37  C   UNL d   1      18.703 -20.742   2.080  0.00  0.00     0.000 A 
ATOM     38  C   UNL d   1      18.167 -20.941   0.810  0.00  0.00     0.003 A 
ATOM     39  C   UNL d   1      18.829 -20.452  -0.320  0.00  0.00     0.037 A 
ENDBRANCH  33  34
ENDBRANCH  32  33
ENDBRANCH  31  32
ENDBRANCH  30  31
ENDBRANCH  27  30
ENDBRANCH   3  24
TORSDOF 14
ENDMDL
MODEL 9
REMARK VINA RESULT:    -7.995      5.351      8.501
REMARK INTER + INTRA:         -15.076
REMARK INTER:                 -12.172
REMARK INTRA:                  -2.904
REMARK CONF_INDEPENDENT:        4.176
REMARK UNBOUND:                -2.904
REMARK  14 active torsions:
REMARK  status: ('A' for Active; 'I' for Inactive)
REMARK    1  A    between atoms: C_2  and  C_3 
REMARK       I    between atoms: C_2  and  N_21 
REMARK    2  A    between atoms: C_3  and  N_4 
REMARK    3  A    between atoms: N_4  and  C_5 
REMARK    4  A    between atoms: C_8  and  O_9 
REMARK    5  A    between atoms: O_9  and  C_10 
REMARK    6  A    between atoms: C_10  and  C_11 
REMARK    7  A    between atoms: C_11  and  O_12 
REMARK    8  A    between atoms: O_12  and  C_13 
REMARK    9  A    between atoms: N_21  and  C_22 
REMARK   10  A    between atoms: C_25  and  O_26 
REMARK   11  A    between atoms: O_26  and  C_27 
REMARK   12  A    between atoms: C_27  and  C_28 
REMARK   13  A    between atoms: C_28  and  O_29 
REMARK   14  A    between atoms: O_29  and  C_30 
ROOT
ATOM      1  O   UNL d   1      31.108 -14.804  -0.720  0.00  0.00    -0.271 OA
ATOM      2  C   UNL d   1      29.977 -15.150  -0.345  0.00  0.00     0.239 C 
ATOM      3  N   UNL d   1      29.329 -16.175  -1.009  0.00  0.00    -0.326 N 
ATOM      4  H   UNL d   1      29.906 -16.661  -1.686  0.00  0.00     0.169 HD
ENDROOT
BRANCH   2   5
ATOM      5  C   UNL d   1      29.313 -14.558   0.910  0.00  0.00     0.223 C 
BRANCH   5   6
ATOM      6  N   UNL d   1      28.658 -13.280   0.676  0.00  0.00    -0.381 N 
ATOM      7  H   UNL d   1      28.716 -12.579   1.408  0.00  0.00     0.160 HD
BRANCH   6   8
ATOM      8  C   UNL d   1      27.984 -13.026  -0.501  0.00  0.00     0.028 A 
ATOM      9  C   UNL d   1      28.650 -12.472  -1.597  0.00  0.00     0.032 A 
ATOM     10  C   UNL d   1      27.959 -12.151  -2.778  0.00  0.00     0.039 A 
ATOM     11  C   UNL d   1      26.601 -12.451  -2.917  0.00  0.00     0.069 A 
ATOM     12  C   UNL d   1      25.943 -13.045  -1.845  0.00  0.00     0.039 A 
ATOM     13  C   UNL d   1      26.633 -13.348  -0.666  0.00  0.00     0.032 A 
BRANCH  11  14
ATOM     14  O   UNL d   1      26.030 -12.142  -4.125  0.00  0.00    -0.349 OA
BRANCH  14  15
ATOM     15  C   UNL d   1      25.799 -13.240  -5.019  0.00  0.00     0.202 C 
BRANCH  15  16
ATOM     16  C   UNL d   1      26.418 -14.520  -4.450  0.00  0.00     0.202 C 
BRANCH  16  17
ATOM     17  O   UNL d   1      27.076 -15.228  -5.509  0.00  0.00    -0.349 OA
BRANCH  17  18
ATOM     18  C   UNL d   1      28.432 -15.379  -5.384  0.00  0.00     0.068 A 
ATOM     19  C   UNL d   1      29.193 -15.085  -6.520  0.00  0.00     0.037 A 
ATOM     20  C   UNL d   1      30.569 -15.331  -6.537  0.00  0.00     0.003 A 
ATOM     21  C   UNL d   1      31.203 -15.824  -5.400  0.00  0.00     0.000 A 
ATOM     22  C   UNL d   1      30.452 -16.110  -4.261  0.00  0.00     0.003 A 
ATOM     23  C   UNL d   1      29.068 -15.900  -4.257  0.00  0.00     0.037 A 
ENDBRANCH  17  18
ENDBRANCH  16  17
ENDBRANCH  15  16
ENDBRANCH  14  15
ENDBRANCH  11  14
ENDBRANCH   6   8
ENDBRANCH   5   6
ENDBRANCH   2   5
BRANCH   3  24
ATOM     24  C   UNL d   1      28.009 -16.625  -0.818  0.00  0.00     0.034 A 
ATOM     25  C   UNL d   1      27.689 -17.458   0.254  0.00  0.00     0.032 A 
ATOM     26  C   UNL d   1      26.364 -17.908   0.421  0.00  0.00     0.039 A 
ATOM     27  C   UNL d   1      25.347 -17.493  -0.449  0.00  0.00     0.069 A 
ATOM     28  C   UNL d   1      25.688 -16.700  -1.536  0.00  0.00     0.039 A 
ATOM     29  C   UNL d   1      27.008 -16.310  -1.732  0.00  0.00     0.032 A 
BRANCH  27  30
ATOM     30  O   UNL d   1      24.071 -17.912  -0.169  0.00  0.00    -0.349 OA
BRANCH  30  31
ATOM     31  C   UNL d   1      23.142 -17.874  -1.265  0.00  0.00     0.202 C 
BRANCH  31  32
ATOM     32  C   UNL d   1      22.068 -18.947  -1.079  0.00  0.00     0.202 C 
BRANCH  32  33
ATOM     33  O   UNL d   1      21.007 -18.409  -0.280  0.00  0.00    -0.349 OA
BRANCH  33  34
ATOM     34  C   UNL d   1      20.183 -19.325   0.320  0.00  0.00     0.068 A 
ATOM     35  C   UNL d   1      19.265 -19.970  -0.514  0.00  0.00     0.037 A 
ATOM     36  C   UNL d   1      18.298 -20.826   0.022  0.00  0.00     0.003 A 
ATOM     37  C   UNL d   1      18.277 -21.082   1.391  0.00  0.00     0.000 A 
ATOM     38  C   UNL d   1      19.197 -20.450   2.225  0.00  0.00     0.003 A 
ATOM     39  C   UNL d   1      20.138 -19.563   1.693  0.00  0.00     0.037 A 
ENDBRANCH  33  34
ENDBRANCH  32  33
ENDBRANCH  31  32
ENDBRANCH  30  31
ENDBRANCH  27  30
ENDBRANCH   3  24
TORSDOF 14
ENDMDL
