MODEL 1
REMARK VINA RESULT:    -9.220      0.000      0.000
REMARK INTER + INTRA:         -13.051
REMARK INTER:                 -11.308
REMARK INTRA:                  -1.744
REMARK CONF_INDEPENDENT:        2.088
REMARK UNBOUND:                -1.744
REMARK  7 active torsions:
REMARK  status: ('A' for Active; 'I' for Inactive)
REMARK    1  A    between atoms: C_2  and  C_3 
REMARK       I    between atoms: C_2  and  N_12 
REMARK    2  A    between atoms: C_3  and  C_4 
REMARK    3  A    between atoms: C_4  and  C_5 
REMARK    4  A    between atoms: C_5  and  C_6 
REMARK    5  A    between atoms: N_12  and  N_13 
REMARK       I    between atoms: N_13  and  C_14 
REMARK    6  A    between atoms: C_14  and  C_16 
REMARK    7  A    between atoms: C_19  and  C_20 
ROOT
ATOM      1  N   UNL d   1      25.543 -15.799  -1.442  0.00  0.00    -0.263 N 
ATOM      2  C   UNL d   1      26.588 -14.895  -1.528  0.00  0.00     0.275 C 
ATOM      3  O   UNL d   1      27.671 -15.067  -0.976  0.00  0.00    -0.266 OA
ATOM      4  H   UNL d   1      24.639 -15.611  -1.865  0.00  0.00     0.190 HD
ENDROOT
BRANCH   2   5
ATOM      5  C   UNL d   1      26.335 -13.703  -2.389  0.00  0.00     0.101 A 
ATOM      6  C   UNL d   1      26.972 -12.547  -2.112  0.00  0.00     0.025 A 
ATOM      7  C   UNL d   1      26.753 -11.350  -2.902  0.00  0.00     0.031 A 
ATOM      8  C   UNL d   1      25.873 -11.363  -3.914  0.00  0.00     0.045 A 
ATOM      9  N   UNL d   1      25.198 -12.529  -4.201  0.00  0.00    -0.322 N 
ATOM     10  C   UNL d   1      25.376 -13.714  -3.527  0.00  0.00     0.261 A 
ATOM     11  H   UNL d   1      24.552 -12.546  -4.982  0.00  0.00     0.169 HD
ATOM     12  O   UNL d   1      24.784 -14.745  -3.860  0.00  0.00    -0.267 OA
BRANCH   8  13
ATOM     13  C   UNL d   1      25.626 -10.191  -4.774  0.00  0.00    -0.009 A 
ATOM     14  C   UNL d   1      26.008 -10.195  -6.124  0.00  0.00     0.013 A 
ATOM     15  C   UNL d   1      25.907  -9.031  -6.892  0.00  0.00     0.001 A 
ATOM     16  C   UNL d   1      25.356  -7.874  -6.342  0.00  0.00     0.000 A 
ATOM     17  C   UNL d   1      24.938  -7.869  -5.013  0.00  0.00     0.001 A 
ATOM     18  C   UNL d   1      25.080  -9.018  -4.231  0.00  0.00     0.013 A 
ENDBRANCH   8  13
ENDBRANCH   2   5
BRANCH   1  19
ATOM     19  N   UNL d   1      25.705 -16.936  -0.634  0.00  0.00    -0.267 N 
ATOM     20  C   UNL d   1      24.803 -17.965  -0.520  0.00  0.00     0.236 C 
ATOM     21  O   UNL d   1      25.051 -18.923   0.214  0.00  0.00    -0.272 OA
ATOM     22  H   UNL d   1      26.565 -17.000  -0.087  0.00  0.00     0.190 HD
BRANCH  20  23
ATOM     23  C   UNL d   1      23.520 -17.866  -1.330  0.00  0.00     0.105 C 
BRANCH  23  24
ATOM     24  C   UNL d   1      22.302 -17.955  -0.425  0.00  0.00     0.014 C 
BRANCH  24  25
ATOM     25  C   UNL d   1      21.085 -18.607  -1.091  0.00  0.00     0.039 C 
BRANCH  25  26
ATOM     26  C   UNL d   1      20.199 -19.338  -0.103  0.00  0.00    -0.058 A 
ATOM     27  C   UNL d   1      20.516 -19.325   1.262  0.00  0.00     0.007 A 
ATOM     28  C   UNL d   1      19.790 -20.116   2.158  0.00  0.00     0.001 A 
ATOM     29  C   UNL d   1      18.691 -20.853   1.719  0.00  0.00     0.000 A 
ATOM     30  C   UNL d   1      18.331 -20.828   0.380  0.00  0.00     0.001 A 
ATOM     31  C   UNL d   1      19.079 -20.076  -0.519  0.00  0.00     0.007 A 
ENDBRANCH  25  26
ENDBRANCH  24  25
ENDBRANCH  23  24
ENDBRANCH  20  23
ENDBRANCH   1  19
TORSDOF 7
ENDMDL
MODEL 2
REMARK VINA RESULT:    -9.094      4.389      9.627
REMARK INTER + INTRA:         -12.671
REMARK INTER:                 -11.182
REMARK INTRA:                  -1.489
REMARK CONF_INDEPENDENT:        2.088
REMARK UNBOUND:                -1.489
REMARK  7 active torsions:
REMARK  status: ('A' for Active; 'I' for Inactive)
REMARK    1  A    between atoms: C_2  and  C_3 
REMARK       I    between atoms: C_2  and  N_12 
REMARK    2  A    between atoms: C_3  and  C_4 
REMARK    3  A    between atoms: C_4  and  C_5 
REMARK    4  A    between atoms: C_5  and  C_6 
REMARK    5  A    between atoms: N_12  and  N_13 
REMARK       I    between atoms: N_13  and  C_14 
REMARK    6  A    between atoms: C_14  and  C_16 
REMARK    7  A    between atoms: C_19  and  C_20 
ROOT
ATOM      1  N   UNL d   1      26.911 -16.551  -0.594  0.00  0.00    -0.263 N 
ATOM      2  C   UNL d   1      25.798 -16.259  -1.364  0.00  0.00     0.275 C 
ATOM      3  O   UNL d   1      25.829 -15.497  -2.326  0.00  0.00    -0.266 OA
ATOM      4  H   UNL d   1      26.849 -17.145   0.228  0.00  0.00     0.190 HD
ENDROOT
BRANCH   2   5
ATOM      5  C   UNL d   1      24.548 -16.979  -0.983  0.00  0.00     0.101 A 
ATOM      6  C   UNL d   1      23.356 -16.400  -1.233  0.00  0.00     0.025 A 
ATOM      7  C   UNL d   1      22.107 -17.043  -0.869  0.00  0.00     0.031 A 
ATOM      8  C   UNL d   1      22.118 -18.225  -0.235  0.00  0.00     0.045 A 
ATOM      9  N   UNL d   1      23.327 -18.823   0.047  0.00  0.00    -0.322 N 
ATOM     10  C   UNL d   1      24.550 -18.300  -0.298  0.00  0.00     0.261 A 
ATOM     11  H   UNL d   1      23.333 -19.729   0.503  0.00  0.00     0.169 HD
ATOM     12  O   UNL d   1      25.601 -18.905  -0.069  0.00  0.00    -0.267 OA
BRANCH   8  13
ATOM     13  C   UNL d   1      20.886 -18.944   0.136  0.00  0.00    -0.009 A 
ATOM     14  C   UNL d   1      20.647 -19.328   1.463  0.00  0.00     0.013 A 
ATOM     15  C   UNL d   1      19.552 -20.137   1.782  0.00  0.00     0.001 A 
ATOM     16  C   UNL d   1      18.644 -20.508   0.791  0.00  0.00     0.000 A 
ATOM     17  C   UNL d   1      18.850 -20.101  -0.526  0.00  0.00     0.001 A 
ATOM     18  C   UNL d   1      19.969 -19.331  -0.853  0.00  0.00     0.013 A 
ENDBRANCH   8  13
ENDBRANCH   2   5
BRANCH   1  19
ATOM     19  N   UNL d   1      28.119 -15.896  -0.885  0.00  0.00    -0.267 N 
ATOM     20  C   UNL d   1      28.509 -14.684  -0.372  0.00  0.00     0.236 C 
ATOM     21  O   UNL d   1      29.598 -14.204  -0.688  0.00  0.00    -0.272 OA
ATOM     22  H   UNL d   1      28.757 -16.363  -1.531  0.00  0.00     0.190 HD
BRANCH  20  23
ATOM     23  C   UNL d   1      27.554 -13.988   0.585  0.00  0.00     0.105 C 
BRANCH  23  24
ATOM     24  C   UNL d   1      27.780 -14.465   2.012  0.00  0.00     0.014 C 
BRANCH  24  25
ATOM     25  C   UNL d   1      27.162 -13.548   3.073  0.00  0.00     0.039 C 
BRANCH  25  26
ATOM     26  C   UNL d   1      27.908 -13.592   4.391  0.00  0.00    -0.058 A 
ATOM     27  C   UNL d   1      28.718 -14.693   4.698  0.00  0.00     0.007 A 
ATOM     28  C   UNL d   1      29.291 -14.810   5.968  0.00  0.00     0.001 A 
ATOM     29  C   UNL d   1      29.136 -13.792   6.909  0.00  0.00     0.000 A 
ATOM     30  C   UNL d   1      28.385 -12.670   6.596  0.00  0.00     0.001 A 
ATOM     31  C   UNL d   1      27.778 -12.573   5.349  0.00  0.00     0.007 A 
ENDBRANCH  25  26
ENDBRANCH  24  25
ENDBRANCH  23  24
ENDBRANCH  20  23
ENDBRANCH   1  19
TORSDOF 7
ENDMDL
MODEL 3
REMARK VINA RESULT:    -8.889      0.958      1.658
REMARK INTER + INTRA:         -12.716
REMARK INTER:                 -10.977
REMARK INTRA:                  -1.739
REMARK CONF_INDEPENDENT:        2.088
REMARK UNBOUND:                -1.739
REMARK  7 active torsions:
REMARK  status: ('A' for Active; 'I' for Inactive)
REMARK    1  A    between atoms: C_2  and  C_3 
REMARK       I    between atoms: C_2  and  N_12 
REMARK    2  A    between atoms: C_3  and  C_4 
REMARK    3  A    between atoms: C_4  and  C_5 
REMARK    4  A    between atoms: C_5  and  C_6 
REMARK    5  A    between atoms: N_12  and  N_13 
REMARK       I    between atoms: N_13  and  C_14 
REMARK    6  A    between atoms: C_14  and  C_16 
REMARK    7  A    between atoms: C_19  and  C_20 
ROOT
ATOM      1  N   UNL d   1      25.579 -16.093  -1.730  0.00  0.00    -0.263 N 
ATOM      2  C   UNL d   1      26.721 -15.714  -2.415  0.00  0.00     0.275 C 
ATOM      3  O   UNL d   1      27.763 -16.363  -2.392  0.00  0.00    -0.266 OA
ATOM      4  H   UNL d   1      24.745 -15.513  -1.723  0.00  0.00     0.190 HD
ENDROOT
BRANCH   2   5
ATOM      5  C   UNL d   1      26.593 -14.479  -3.242  0.00  0.00     0.101 A 
ATOM      6  C   UNL d   1      27.711 -13.844  -3.649  0.00  0.00     0.025 A 
ATOM      7  C   UNL d   1      27.650 -12.630  -4.440  0.00  0.00     0.031 A 
ATOM      8  C   UNL d   1      26.462 -12.088  -4.752  0.00  0.00     0.045 A 
ATOM      9  N   UNL d   1      25.310 -12.711  -4.328  0.00  0.00    -0.322 N 
ATOM     10  C   UNL d   1      25.280 -13.884  -3.611  0.00  0.00     0.261 A 
ATOM     11  H   UNL d   1      24.412 -12.316  -4.587  0.00  0.00     0.169 HD
ATOM     12  O   UNL d   1      24.217 -14.428  -3.303  0.00  0.00    -0.267 OA
BRANCH   8  13
ATOM     13  C   UNL d   1      26.331 -10.873  -5.577  0.00  0.00    -0.009 A 
ATOM     14  C   UNL d   1      25.552  -9.790  -5.144  0.00  0.00     0.013 A 
ATOM     15  C   UNL d   1      25.311  -8.705  -5.993  0.00  0.00     0.001 A 
ATOM     16  C   UNL d   1      25.906  -8.658  -7.253  0.00  0.00     0.000 A 
ATOM     17  C   UNL d   1      26.713  -9.710  -7.680  0.00  0.00     0.001 A 
ATOM     18  C   UNL d   1      26.917 -10.816  -6.850  0.00  0.00     0.013 A 
ENDBRANCH   8  13
ENDBRANCH   2   5
BRANCH   1  19
ATOM     19  N   UNL d   1      25.632 -17.236  -0.916  0.00  0.00    -0.267 N 
ATOM     20  C   UNL d   1      24.545 -17.946  -0.470  0.00  0.00     0.236 C 
ATOM     21  O   UNL d   1      24.707 -18.944   0.233  0.00  0.00    -0.272 OA
ATOM     22  H   UNL d   1      26.557 -17.565  -0.635  0.00  0.00     0.190 HD
BRANCH  20  23
ATOM     23  C   UNL d   1      23.168 -17.452  -0.885  0.00  0.00     0.105 C 
BRANCH  23  24
ATOM     24  C   UNL d   1      22.269 -18.618  -1.263  0.00  0.00     0.014 C 
BRANCH  24  25
ATOM     25  C   UNL d   1      20.774 -18.326  -1.089  0.00  0.00     0.039 C 
BRANCH  25  26
ATOM     26  C   UNL d   1      20.104 -19.266  -0.108  0.00  0.00    -0.058 A 
ATOM     27  C   UNL d   1      19.045 -20.079  -0.532  0.00  0.00     0.007 A 
ATOM     28  C   UNL d   1      18.328 -20.837   0.398  0.00  0.00     0.001 A 
ATOM     29  C   UNL d   1      18.714 -20.863   1.737  0.00  0.00     0.000 A 
ATOM     30  C   UNL d   1      19.797 -20.107   2.159  0.00  0.00     0.001 A 
ATOM     31  C   UNL d   1      20.484 -19.318   1.243  0.00  0.00     0.007 A 
ENDBRANCH  25  26
ENDBRANCH  24  25
ENDBRANCH  23  24
ENDBRANCH  20  23
ENDBRANCH   1  19
TORSDOF 7
ENDMDL
MODEL 4
REMARK VINA RESULT:    -8.803      4.537      9.454
REMARK INTER + INTRA:         -12.531
REMARK INTER:                 -10.891
REMARK INTRA:                  -1.639
REMARK CONF_INDEPENDENT:        2.088
REMARK UNBOUND:                -1.639
REMARK  7 active torsions:
REMARK  status: ('A' for Active; 'I' for Inactive)
REMARK    1  A    between atoms: C_2  and  C_3 
REMARK       I    between atoms: C_2  and  N_12 
REMARK    2  A    between atoms: C_3  and  C_4 
REMARK    3  A    between atoms: C_4  and  C_5 
REMARK    4  A    between atoms: C_5  and  C_6 
REMARK    5  A    between atoms: N_12  and  N_13 
REMARK       I    between atoms: N_13  and  C_14 
REMARK    6  A    between atoms: C_14  and  C_16 
REMARK    7  A    between atoms: C_19  and  C_20 
ROOT
ATOM      1  N   UNL d   1      26.854 -16.882  -1.344  0.00  0.00    -0.263 N 
ATOM      2  C   UNL d   1      25.687 -16.154  -1.188  0.00  0.00     0.275 C 
ATOM      3  O   UNL d   1      25.628 -14.938  -1.351  0.00  0.00    -0.266 OA
ATOM      4  H   UNL d   1      26.889 -17.880  -1.153  0.00  0.00     0.190 HD
ENDROOT
BRANCH   2   5
ATOM      5  C   UNL d   1      24.471 -16.953  -0.856  0.00  0.00     0.101 A 
ATOM      6  C   UNL d   1      23.256 -16.452  -1.157  0.00  0.00     0.025 A 
ATOM      7  C   UNL d   1      22.038 -17.175  -0.843  0.00  0.00     0.031 A 
ATOM      8  C   UNL d   1      22.099 -18.353  -0.204  0.00  0.00     0.045 A 
ATOM      9  N   UNL d   1      23.331 -18.871   0.131  0.00  0.00    -0.322 N 
ATOM     10  C   UNL d   1      24.532 -18.270  -0.166  0.00  0.00     0.261 A 
ATOM     11  H   UNL d   1      23.378 -19.773   0.590  0.00  0.00     0.169 HD
ATOM     12  O   UNL d   1      25.609 -18.804   0.109  0.00  0.00    -0.267 OA
BRANCH   8  13
ATOM     13  C   UNL d   1      20.902 -19.150   0.118  0.00  0.00    -0.009 A 
ATOM     14  C   UNL d   1      19.949 -19.448  -0.867  0.00  0.00     0.013 A 
ATOM     15  C   UNL d   1      18.746 -20.074  -0.524  0.00  0.00     0.001 A 
ATOM     16  C   UNL d   1      18.517 -20.476   0.791  0.00  0.00     0.000 A 
ATOM     17  C   UNL d   1      19.473 -20.221   1.772  0.00  0.00     0.001 A 
ATOM     18  C   UNL d   1      20.655 -19.554   1.439  0.00  0.00     0.013 A 
ENDBRANCH   8  13
ENDBRANCH   2   5
BRANCH   1  19
ATOM     19  N   UNL d   1      28.041 -16.193  -1.639  0.00  0.00    -0.267 N 
ATOM     20  C   UNL d   1      28.863 -15.594  -0.716  0.00  0.00     0.236 C 
ATOM     21  O   UNL d   1      29.890 -15.022  -1.086  0.00  0.00    -0.272 OA
ATOM     22  H   UNL d   1      28.314 -16.133  -2.621  0.00  0.00     0.190 HD
BRANCH  20  23
ATOM     23  C   UNL d   1      28.454 -15.678   0.745  0.00  0.00     0.105 C 
BRANCH  23  24
ATOM     24  C   UNL d   1      27.520 -14.534   1.110  0.00  0.00     0.014 C 
BRANCH  24  25
ATOM     25  C   UNL d   1      28.216 -13.379   1.839  0.00  0.00     0.039 C 
BRANCH  25  26
ATOM     26  C   UNL d   1      28.122 -13.497   3.346  0.00  0.00    -0.058 A 
ATOM     27  C   UNL d   1      27.995 -12.343   4.130  0.00  0.00     0.007 A 
ATOM     28  C   UNL d   1      28.057 -12.432   5.524  0.00  0.00     0.001 A 
ATOM     29  C   UNL d   1      28.155 -13.675   6.149  0.00  0.00     0.000 A 
ATOM     30  C   UNL d   1      28.223 -14.830   5.385  0.00  0.00     0.001 A 
ATOM     31  C   UNL d   1      28.206 -14.739   3.997  0.00  0.00     0.007 A 
ENDBRANCH  25  26
ENDBRANCH  24  25
ENDBRANCH  23  24
ENDBRANCH  20  23
ENDBRANCH   1  19
TORSDOF 7
ENDMDL
MODEL 5
REMARK VINA RESULT:    -8.599      7.119      9.948
REMARK INTER + INTRA:         -12.608
REMARK INTER:                 -10.687
REMARK INTRA:                  -1.921
REMARK CONF_INDEPENDENT:        2.088
REMARK UNBOUND:                -1.921
REMARK  7 active torsions:
REMARK  status: ('A' for Active; 'I' for Inactive)
REMARK    1  A    between atoms: C_2  and  C_3 
REMARK       I    between atoms: C_2  and  N_12 
REMARK    2  A    between atoms: C_3  and  C_4 
REMARK    3  A    between atoms: C_4  and  C_5 
REMARK    4  A    between atoms: C_5  and  C_6 
REMARK    5  A    between atoms: N_12  and  N_13 
REMARK       I    between atoms: N_13  and  C_14 
REMARK    6  A    between atoms: C_14  and  C_16 
REMARK    7  A    between atoms: C_19  and  C_20 
ROOT
ATOM      1  N   UNL d   1      27.629 -14.085   2.470  0.00  0.00    -0.263 N 
ATOM      2  C   UNL d   1      27.470 -12.989   3.301  0.00  0.00     0.275 C 
ATOM      3  O   UNL d   1      27.008 -11.918   2.917  0.00  0.00    -0.266 OA
ATOM      4  H   UNL d   1      28.062 -14.944   2.798  0.00  0.00     0.190 HD
ENDROOT
BRANCH   2   5
ATOM      5  C   UNL d   1      27.850 -13.205   4.728  0.00  0.00     0.101 A 
ATOM      6  C   UNL d   1      27.979 -12.136   5.540  0.00  0.00     0.025 A 
ATOM      7  C   UNL d   1      28.362 -12.282   6.932  0.00  0.00     0.031 A 
ATOM      8  C   UNL d   1      28.636 -13.496   7.431  0.00  0.00     0.045 A 
ATOM      9  N   UNL d   1      28.530 -14.598   6.611  0.00  0.00    -0.322 N 
ATOM     10  C   UNL d   1      28.135 -14.550   5.295  0.00  0.00     0.261 A 
ATOM     11  H   UNL d   1      28.712 -15.518   6.996  0.00  0.00     0.169 HD
ATOM     12  O   UNL d   1      28.004 -15.575   4.621  0.00  0.00    -0.267 OA
BRANCH   8  13
ATOM     13  C   UNL d   1      29.003 -13.716   8.842  0.00  0.00    -0.009 A 
ATOM     14  C   UNL d   1      30.149 -14.447   9.183  0.00  0.00     0.013 A 
ATOM     15  C   UNL d   1      30.409 -14.777  10.517  0.00  0.00     0.001 A 
ATOM     16  C   UNL d   1      29.568 -14.317  11.529  0.00  0.00     0.000 A 
ATOM     17  C   UNL d   1      28.446 -13.557  11.206  0.00  0.00     0.001 A 
ATOM     18  C   UNL d   1      28.160 -13.265   9.870  0.00  0.00     0.013 A 
ENDBRANCH   8  13
ENDBRANCH   2   5
BRANCH   1  19
ATOM     19  N   UNL d   1      27.309 -13.949   1.110  0.00  0.00    -0.267 N 
ATOM     20  C   UNL d   1      27.339 -14.959   0.181  0.00  0.00     0.236 C 
ATOM     21  O   UNL d   1      27.028 -14.729  -0.989  0.00  0.00    -0.272 OA
ATOM     22  H   UNL d   1      27.031 -13.020   0.788  0.00  0.00     0.190 HD
BRANCH  20  23
ATOM     23  C   UNL d   1      27.759 -16.339   0.660  0.00  0.00     0.105 C 
BRANCH  23  24
ATOM     24  C   UNL d   1      27.253 -17.416  -0.287  0.00  0.00     0.014 C 
BRANCH  24  25
ATOM     25  C   UNL d   1      26.182 -18.324   0.328  0.00  0.00     0.039 C 
BRANCH  25  26
ATOM     26  C   UNL d   1      24.786 -17.994  -0.158  0.00  0.00    -0.058 A 
ATOM     27  C   UNL d   1      24.483 -16.693  -0.580  0.00  0.00     0.007 A 
ATOM     28  C   UNL d   1      23.165 -16.345  -0.888  0.00  0.00     0.001 A 
ATOM     29  C   UNL d   1      22.156 -17.307  -0.866  0.00  0.00     0.000 A 
ATOM     30  C   UNL d   1      22.454 -18.613  -0.506  0.00  0.00     0.001 A 
ATOM     31  C   UNL d   1      23.757 -18.950  -0.157  0.00  0.00     0.007 A 
ENDBRANCH  25  26
ENDBRANCH  24  25
ENDBRANCH  23  24
ENDBRANCH  20  23
ENDBRANCH   1  19
TORSDOF 7
ENDMDL
MODEL 6
REMARK VINA RESULT:    -8.560      2.496      9.053
REMARK INTER + INTRA:         -12.787
REMARK INTER:                 -10.648
REMARK INTRA:                  -2.140
REMARK CONF_INDEPENDENT:        2.088
REMARK UNBOUND:                -2.140
REMARK  7 active torsions:
REMARK  status: ('A' for Active; 'I' for Inactive)
REMARK    1  A    between atoms: C_2  and  C_3 
REMARK       I    between atoms: C_2  and  N_12 
REMARK    2  A    between atoms: C_3  and  C_4 
REMARK    3  A    between atoms: C_4  and  C_5 
REMARK    4  A    between atoms: C_5  and  C_6 
REMARK    5  A    between atoms: N_12  and  N_13 
REMARK       I    between atoms: N_13  and  C_14 
REMARK    6  A    between atoms: C_14  and  C_16 
REMARK    7  A    between atoms: C_19  and  C_20 
ROOT
ATOM      1  N   UNL d   1      27.516 -16.995  -0.327  0.00  0.00    -0.263 N 
ATOM      2  C   UNL d   1      26.410 -16.216  -0.621  0.00  0.00     0.275 C 
ATOM      3  O   UNL d   1      26.491 -15.051  -1.000  0.00  0.00    -0.266 OA
ATOM      4  H   UNL d   1      27.422 -17.940   0.035  0.00  0.00     0.190 HD
ENDROOT
BRANCH   2   5
ATOM      5  C   UNL d   1      25.091 -16.904  -0.500  0.00  0.00     0.101 A 
ATOM      6  C   UNL d   1      23.980 -16.270  -0.928  0.00  0.00     0.025 A 
ATOM      7  C   UNL d   1      22.669 -16.881  -0.820  0.00  0.00     0.031 A 
ATOM      8  C   UNL d   1      22.532 -18.087  -0.249  0.00  0.00     0.045 A 
ATOM      9  N   UNL d   1      23.652 -18.740   0.213  0.00  0.00    -0.322 N 
ATOM     10  C   UNL d   1      24.933 -18.250   0.113  0.00  0.00     0.261 A 
ATOM     11  H   UNL d   1      23.551 -19.663   0.621  0.00  0.00     0.169 HD
ATOM     12  O   UNL d   1      25.908 -18.902   0.496  0.00  0.00    -0.267 OA
BRANCH   8  13
ATOM     13  C   UNL d   1      21.232 -18.774  -0.135  0.00  0.00    -0.009 A 
ATOM     14  C   UNL d   1      20.811 -19.320   1.086  0.00  0.00     0.013 A 
ATOM     15  C   UNL d   1      19.650 -20.097   1.152  0.00  0.00     0.001 A 
ATOM     16  C   UNL d   1      18.860 -20.273   0.017  0.00  0.00     0.000 A 
ATOM     17  C   UNL d   1      19.248 -19.703  -1.194  0.00  0.00     0.001 A 
ATOM     18  C   UNL d   1      20.432 -18.965  -1.272  0.00  0.00     0.013 A 
ENDBRANCH   8  13
ENDBRANCH   2   5
BRANCH   1  19
ATOM     19  N   UNL d   1      28.790 -16.408  -0.402  0.00  0.00    -0.267 N 
ATOM     20  C   UNL d   1      29.508 -16.212  -1.556  0.00  0.00     0.236 C 
ATOM     21  O   UNL d   1      30.616 -15.676  -1.508  0.00  0.00    -0.272 OA
ATOM     22  H   UNL d   1      29.214 -16.102   0.475  0.00  0.00     0.190 HD
BRANCH  20  23
ATOM     23  C   UNL d   1      28.877 -16.673  -2.860  0.00  0.00     0.105 C 
BRANCH  23  24
ATOM     24  C   UNL d   1      29.166 -15.683  -3.978  0.00  0.00     0.014 C 
BRANCH  24  25
ATOM     25  C   UNL d   1      28.041 -15.576  -5.013  0.00  0.00     0.039 C 
BRANCH  25  26
ATOM     26  C   UNL d   1      26.985 -14.561  -4.628  0.00  0.00    -0.058 A 
ATOM     27  C   UNL d   1      27.184 -13.204  -4.914  0.00  0.00     0.007 A 
ATOM     28  C   UNL d   1      26.287 -12.247  -4.431  0.00  0.00     0.001 A 
ATOM     29  C   UNL d   1      25.140 -12.638  -3.740  0.00  0.00     0.000 A 
ATOM     30  C   UNL d   1      24.902 -13.983  -3.502  0.00  0.00     0.001 A 
ATOM     31  C   UNL d   1      25.817 -14.933  -3.943  0.00  0.00     0.007 A 
ENDBRANCH  25  26
ENDBRANCH  24  25
ENDBRANCH  23  24
ENDBRANCH  20  23
ENDBRANCH   1  19
TORSDOF 7
ENDMDL
MODEL 7
REMARK VINA RESULT:    -8.550      3.980      5.131
REMARK INTER + INTRA:         -12.482
REMARK INTER:                 -10.639
REMARK INTRA:                  -1.843
REMARK CONF_INDEPENDENT:        2.088
REMARK UNBOUND:                -1.843
REMARK  7 active torsions:
REMARK  status: ('A' for Active; 'I' for Inactive)
REMARK    1  A    between atoms: C_2  and  C_3 
REMARK       I    between atoms: C_2  and  N_12 
REMARK    2  A    between atoms: C_3  and  C_4 
REMARK    3  A    between atoms: C_4  and  C_5 
REMARK    4  A    between atoms: C_5  and  C_6 
REMARK    5  A    between atoms: N_12  and  N_13 
REMARK       I    between atoms: N_13  and  C_14 
REMARK    6  A    between atoms: C_14  and  C_16 
REMARK    7  A    between atoms: C_19  and  C_20 
ROOT
ATOM      1  N   UNL d   1      25.182 -15.691  -2.447  0.00  0.00    -0.263 N 
ATOM      2  C   UNL d   1      25.409 -14.910  -3.567  0.00  0.00     0.275 C 
ATOM      3  O   UNL d   1      24.602 -14.084  -3.983  0.00  0.00    -0.266 OA
ATOM      4  H   UNL d   1      25.842 -16.405  -2.152  0.00  0.00     0.190 HD
ENDROOT
BRANCH   2   5
ATOM      5  C   UNL d   1      26.737 -15.096  -4.221  0.00  0.00     0.101 A 
ATOM      6  C   UNL d   1      26.919 -14.644  -5.478  0.00  0.00     0.025 A 
ATOM      7  C   UNL d   1      28.182 -14.811  -6.171  0.00  0.00     0.031 A 
ATOM      8  C   UNL d   1      29.194 -15.463  -5.578  0.00  0.00     0.045 A 
ATOM      9  N   UNL d   1      29.021 -15.951  -4.302  0.00  0.00    -0.322 N 
ATOM     10  C   UNL d   1      27.872 -15.800  -3.563  0.00  0.00     0.261 A 
ATOM     11  H   UNL d   1      29.795 -16.420  -3.845  0.00  0.00     0.169 HD
ATOM     12  O   UNL d   1      27.789 -16.210  -2.402  0.00  0.00    -0.267 OA
BRANCH   8  13
ATOM     13  C   UNL d   1      30.511 -15.641  -6.216  0.00  0.00    -0.009 A 
ATOM     14  C   UNL d   1      31.361 -14.547  -6.432  0.00  0.00     0.013 A 
ATOM     15  C   UNL d   1      32.540 -14.699  -7.169  0.00  0.00     0.001 A 
ATOM     16  C   UNL d   1      32.918 -15.958  -7.632  0.00  0.00     0.000 A 
ATOM     17  C   UNL d   1      32.101 -17.060  -7.391  0.00  0.00     0.001 A 
ATOM     18  C   UNL d   1      30.900 -16.902  -6.694  0.00  0.00     0.013 A 
ENDBRANCH   8  13
ENDBRANCH   2   5
BRANCH   1  19
ATOM     19  N   UNL d   1      23.944 -15.581  -1.791  0.00  0.00    -0.267 N 
ATOM     20  C   UNL d   1      23.478 -16.437  -0.824  0.00  0.00     0.236 C 
ATOM     21  O   UNL d   1      22.378 -16.240  -0.306  0.00  0.00    -0.272 OA
ATOM     22  H   UNL d   1      23.344 -14.800  -2.058  0.00  0.00     0.190 HD
BRANCH  20  23
ATOM     23  C   UNL d   1      24.371 -17.603  -0.432  0.00  0.00     0.105 C 
BRANCH  23  24
ATOM     24  C   UNL d   1      23.578 -18.900  -0.396  0.00  0.00     0.014 C 
BRANCH  24  25
ATOM     25  C   UNL d   1      22.335 -18.887  -1.292  0.00  0.00     0.039 C 
BRANCH  25  26
ATOM     26  C   UNL d   1      21.069 -19.250  -0.542  0.00  0.00    -0.058 A 
ATOM     27  C   UNL d   1      21.065 -19.257   0.859  0.00  0.00     0.007 A 
ATOM     28  C   UNL d   1      19.950 -19.731   1.555  0.00  0.00     0.001 A 
ATOM     29  C   UNL d   1      18.799 -20.116   0.867  0.00  0.00     0.000 A 
ATOM     30  C   UNL d   1      18.770 -20.059  -0.518  0.00  0.00     0.001 A 
ATOM     31  C   UNL d   1      19.895 -19.629  -1.213  0.00  0.00     0.007 A 
ENDBRANCH  25  26
ENDBRANCH  24  25
ENDBRANCH  23  24
ENDBRANCH  20  23
ENDBRANCH   1  19
TORSDOF 7
ENDMDL
MODEL 8
REMARK VINA RESULT:    -8.161      6.373      9.112
REMARK INTER + INTRA:         -11.896
REMARK INTER:                 -10.249
REMARK INTRA:                  -1.647
REMARK CONF_INDEPENDENT:        2.088
REMARK UNBOUND:                -1.647
REMARK  7 active torsions:
REMARK  status: ('A' for Active; 'I' for Inactive)
REMARK    1  A    between atoms: C_2  and  C_3 
REMARK       I    between atoms: C_2  and  N_12 
REMARK    2  A    between atoms: C_3  and  C_4 
REMARK    3  A    between atoms: C_4  and  C_5 
REMARK    4  A    between atoms: C_5  and  C_6 
REMARK    5  A    between atoms: N_12  and  N_13 
REMARK       I    between atoms: N_13  and  C_14 
REMARK    6  A    between atoms: C_14  and  C_16 
REMARK    7  A    between atoms: C_19  and  C_20 
ROOT
ATOM      1  N   UNL d   1      29.084 -14.964   1.270  0.00  0.00    -0.263 N 
ATOM      2  C   UNL d   1      28.144 -14.194   1.934  0.00  0.00     0.275 C 
ATOM      3  O   UNL d   1      27.148 -13.731   1.386  0.00  0.00    -0.266 OA
ATOM      4  H   UNL d   1      29.926 -15.294   1.733  0.00  0.00     0.190 HD
ENDROOT
BRANCH   2   5
ATOM      5  C   UNL d   1      28.388 -14.002   3.394  0.00  0.00     0.101 A 
ATOM      6  C   UNL d   1      27.348 -13.700   4.198  0.00  0.00     0.025 A 
ATOM      7  C   UNL d   1      27.525 -13.485   5.621  0.00  0.00     0.031 A 
ATOM      8  C   UNL d   1      28.751 -13.546   6.164  0.00  0.00     0.045 A 
ATOM      9  N   UNL d   1      29.828 -13.833   5.356  0.00  0.00    -0.322 N 
ATOM     10  C   UNL d   1      29.740 -14.090   4.008  0.00  0.00     0.261 A 
ATOM     11  H   UNL d   1      30.750 -13.906   5.771  0.00  0.00     0.169 HD
ATOM     12  O   UNL d   1      30.732 -14.396   3.340  0.00  0.00    -0.267 OA
BRANCH   8  13
ATOM     13  C   UNL d   1      28.995 -13.366   7.607  0.00  0.00    -0.009 A 
ATOM     14  C   UNL d   1      29.368 -14.450   8.415  0.00  0.00     0.013 A 
ATOM     15  C   UNL d   1      29.452 -14.304   9.803  0.00  0.00     0.001 A 
ATOM     16  C   UNL d   1      29.239 -13.057  10.390  0.00  0.00     0.000 A 
ATOM     17  C   UNL d   1      28.906 -11.964   9.593  0.00  0.00     0.001 A 
ATOM     18  C   UNL d   1      28.776 -12.119   8.211  0.00  0.00     0.013 A 
ENDBRANCH   8  13
ENDBRANCH   2   5
BRANCH   1  19
ATOM     19  N   UNL d   1      28.928 -15.171  -0.110  0.00  0.00    -0.267 N 
ATOM     20  C   UNL d   1      28.472 -16.327  -0.694  0.00  0.00     0.236 C 
ATOM     21  O   UNL d   1      28.364 -16.397  -1.919  0.00  0.00    -0.272 OA
ATOM     22  H   UNL d   1      29.174 -14.396  -0.728  0.00  0.00     0.190 HD
BRANCH  20  23
ATOM     23  C   UNL d   1      28.111 -17.482   0.227  0.00  0.00     0.105 C 
BRANCH  23  24
ATOM     24  C   UNL d   1      26.723 -18.013  -0.094  0.00  0.00     0.014 C 
BRANCH  24  25
ATOM     25  C   UNL d   1      25.691 -16.914  -0.370  0.00  0.00     0.039 C 
BRANCH  25  26
ATOM     26  C   UNL d   1      24.296 -17.463  -0.590  0.00  0.00    -0.058 A 
ATOM     27  C   UNL d   1      23.231 -16.586  -0.835  0.00  0.00     0.007 A 
ATOM     28  C   UNL d   1      21.921 -17.072  -0.891  0.00  0.00     0.001 A 
ATOM     29  C   UNL d   1      21.670 -18.440  -0.795  0.00  0.00     0.000 A 
ATOM     30  C   UNL d   1      22.722 -19.324  -0.611  0.00  0.00     0.001 A 
ATOM     31  C   UNL d   1      24.021 -18.838  -0.510  0.00  0.00     0.007 A 
ENDBRANCH  25  26
ENDBRANCH  24  25
ENDBRANCH  23  24
ENDBRANCH  20  23
ENDBRANCH   1  19
TORSDOF 7
ENDMDL
MODEL 9
REMARK VINA RESULT:    -7.664      4.153      7.446
REMARK INTER + INTRA:         -12.062
REMARK INTER:                  -9.752
REMARK INTRA:                  -2.310
REMARK CONF_INDEPENDENT:        2.088
REMARK UNBOUND:                -2.310
REMARK  7 active torsions:
REMARK  status: ('A' for Active; 'I' for Inactive)
REMARK    1  A    between atoms: C_2  and  C_3 
REMARK       I    between atoms: C_2  and  N_12 
REMARK    2  A    between atoms: C_3  and  C_4 
REMARK    3  A    between atoms: C_4  and  C_5 
REMARK    4  A    between atoms: C_5  and  C_6 
REMARK    5  A    between atoms: N_12  and  N_13 
REMARK       I    between atoms: N_13  and  C_14 
REMARK    6  A    between atoms: C_14  and  C_16 
REMARK    7  A    between atoms: C_19  and  C_20 
ROOT
ATOM      1  N   UNL d   1      28.473 -15.339  -2.685  0.00  0.00    -0.263 N 
ATOM      2  C   UNL d   1      28.494 -14.067  -2.138  0.00  0.00     0.275 C 
ATOM      3  O   UNL d   1      28.538 -13.046  -2.817  0.00  0.00    -0.266 OA
ATOM      4  H   UNL d   1      28.488 -16.171  -2.101  0.00  0.00     0.190 HD
ENDROOT
BRANCH   2   5
ATOM      5  C   UNL d   1      28.405 -14.008  -0.649  0.00  0.00     0.101 A 
ATOM      6  C   UNL d   1      27.791 -12.955  -0.071  0.00  0.00     0.025 A 
ATOM      7  C   UNL d   1      27.689 -12.834   1.371  0.00  0.00     0.031 A 
ATOM      8  C   UNL d   1      28.245 -13.760   2.166  0.00  0.00     0.045 A 
ATOM      9  N   UNL d   1      28.895 -14.831   1.594  0.00  0.00    -0.322 N 
ATOM     10  C   UNL d   1      29.001 -15.042   0.240  0.00  0.00     0.261 A 
ATOM     11  H   UNL d   1      29.292 -15.545   2.196  0.00  0.00     0.169 HD
ATOM     12  O   UNL d   1      29.548 -16.048  -0.219  0.00  0.00    -0.267 OA
BRANCH   8  13
ATOM     13  C   UNL d   1      28.152 -13.710   3.636  0.00  0.00    -0.009 A 
ATOM     14  C   UNL d   1      27.780 -12.529   4.295  0.00  0.00     0.013 A 
ATOM     15  C   UNL d   1      27.838 -12.446   5.690  0.00  0.00     0.001 A 
ATOM     16  C   UNL d   1      28.195 -13.563   6.443  0.00  0.00     0.000 A 
ATOM     17  C   UNL d   1      28.530 -14.754   5.802  0.00  0.00     0.001 A 
ATOM     18  C   UNL d   1      28.517 -14.825   4.406  0.00  0.00     0.013 A 
ENDBRANCH   8  13
ENDBRANCH   2   5
BRANCH   1  19
ATOM     19  N   UNL d   1      28.572 -15.471  -4.080  0.00  0.00    -0.267 N 
ATOM     20  C   UNL d   1      27.636 -15.041  -4.987  0.00  0.00     0.236 C 
ATOM     21  O   UNL d   1      27.829 -15.200  -6.193  0.00  0.00    -0.272 OA
ATOM     22  H   UNL d   1      29.410 -15.925  -4.446  0.00  0.00     0.190 HD
BRANCH  20  23
ATOM     23  C   UNL d   1      26.385 -14.371  -4.440  0.00  0.00     0.105 C 
BRANCH  23  24
ATOM     24  C   UNL d   1      25.530 -15.369  -3.676  0.00  0.00     0.014 C 
BRANCH  24  25
ATOM     25  C   UNL d   1      25.230 -14.947  -2.233  0.00  0.00     0.039 C 
BRANCH  25  26
ATOM     26  C   UNL d   1      24.991 -16.128  -1.315  0.00  0.00    -0.058 A 
ATOM     27  C   UNL d   1      26.062 -16.693  -0.610  0.00  0.00     0.007 A 
ATOM     28  C   UNL d   1      25.878 -17.870   0.121  0.00  0.00     0.001 A 
ATOM     29  C   UNL d   1      24.611 -18.443   0.230  0.00  0.00     0.000 A 
ATOM     30  C   UNL d   1      23.531 -17.861  -0.415  0.00  0.00     0.001 A 
ATOM     31  C   UNL d   1      23.722 -16.714  -1.179  0.00  0.00     0.007 A 
ENDBRANCH  25  26
ENDBRANCH  24  25
ENDBRANCH  23  24
ENDBRANCH  20  23
ENDBRANCH   1  19
TORSDOF 7
ENDMDL
