MODEL 1
REMARK VINA RESULT:    -9.171      0.000      0.000
REMARK INTER + INTRA:         -10.559
REMARK INTER:                 -10.066
REMARK INTRA:                  -0.493
REMARK CONF_INDEPENDENT:        0.895
REMARK UNBOUND:                -0.493
REMARK  3 active torsions:
REMARK  status: ('A' for Active; 'I' for Inactive)
REMARK       I    between atoms: N_2  and  C_3 
REMARK    1  A    between atoms: C_3  and  C_5 
REMARK    2  A    between atoms: C_9  and  N_10 
REMARK       I    between atoms: N_10  and  C_11 
REMARK    3  A    between atoms: C_11  and  C_13 
ROOT
ATOM      1  N   UNL d   1      23.607 -18.191  -0.386  0.00  0.00    -0.323 N 
ATOM      2  C   UNL d   1      22.263 -17.875  -0.534  0.00  0.00     0.256 C 
ATOM      3  O   UNL d   1      21.788 -16.800  -0.907  0.00  0.00    -0.267 OA
ATOM      4  H   UNL d   1      23.863 -19.139  -0.136  0.00  0.00     0.169 HD
ENDROOT
BRANCH   1   5
ATOM      5  C   UNL d   1      24.674 -17.291  -0.667  0.00  0.00     0.035 A 
ATOM      6  C   UNL d   1      25.873 -17.373   0.053  0.00  0.00     0.029 A 
ATOM      7  C   UNL d   1      26.952 -16.538  -0.282  0.00  0.00     0.003 A 
ATOM      8  C   UNL d   1      26.829 -15.588  -1.302  0.00  0.00     0.017 A 
ATOM      9  C   UNL d   1      25.638 -15.499  -2.020  0.00  0.00     0.034 A 
ATOM     10  C   UNL d   1      24.578 -16.340  -1.690  0.00  0.00     0.046 A 
BRANCH   9  11
ATOM     11  C   UNL d   1      25.533 -14.641  -3.229  0.00  0.00     0.251 C 
ATOM     12  N   UNL d   1      25.844 -13.303  -3.086  0.00  0.00    -0.361 N 
ATOM     13  C   UNL d   1      25.737 -12.396  -4.204  0.00  0.00     0.149 C 
ATOM     14  H   UNL d   1      26.165 -12.940  -2.196  0.00  0.00     0.162 HD
ATOM     15  O   UNL d   1      25.159 -15.140  -4.289  0.00  0.00    -0.268 OA
ENDBRANCH   9  11
ENDBRANCH   1   5
BRANCH   2  16
ATOM     16  C   UNL d   1      21.250 -18.890  -0.198  0.00  0.00     0.034 A 
ATOM     17  C   UNL d   1      20.351 -19.279  -1.207  0.00  0.00     0.019 A 
ATOM     18  C   UNL d   1      19.218 -20.024  -0.887  0.00  0.00     0.026 A 
ATOM     19  C   UNL d   1      19.014 -20.440   0.429  0.00  0.00     0.055 A 
ATOM     20 CL   UNL d   1      17.656 -21.458   0.745  0.00  0.00    -0.083 Cl
ATOM     21  C   UNL d   1      19.912 -20.050   1.435  0.00  0.00     0.056 A 
ATOM     22 CL   UNL d   1      19.665 -20.450   3.097  0.00  0.00    -0.083 Cl
ATOM     23  C   UNL d   1      21.030 -19.270   1.124  0.00  0.00     0.042 A 
ENDBRANCH   2  16
TORSDOF 3
ENDMDL
MODEL 2
REMARK VINA RESULT:    -8.446      4.976      8.424
REMARK INTER + INTRA:          -9.861
REMARK INTER:                  -9.341
REMARK INTRA:                  -0.520
REMARK CONF_INDEPENDENT:        0.895
REMARK UNBOUND:                -0.520
REMARK  3 active torsions:
REMARK  status: ('A' for Active; 'I' for Inactive)
REMARK       I    between atoms: N_2  and  C_3 
REMARK    1  A    between atoms: C_3  and  C_5 
REMARK    2  A    between atoms: C_9  and  N_10 
REMARK       I    between atoms: N_10  and  C_11 
REMARK    3  A    between atoms: C_11  and  C_13 
ROOT
ATOM      1  N   UNL d   1      25.770 -16.132  -2.654  0.00  0.00    -0.323 N 
ATOM      2  C   UNL d   1      25.157 -14.994  -3.160  0.00  0.00     0.256 C 
ATOM      3  O   UNL d   1      24.083 -14.507  -2.803  0.00  0.00    -0.267 OA
ATOM      4  H   UNL d   1      26.692 -16.385  -2.993  0.00  0.00     0.169 HD
ENDROOT
BRANCH   1   5
ATOM      5  C   UNL d   1      25.236 -16.924  -1.598  0.00  0.00     0.035 A 
ATOM      6  C   UNL d   1      26.033 -17.260  -0.497  0.00  0.00     0.029 A 
ATOM      7  C   UNL d   1      25.480 -17.972   0.581  0.00  0.00     0.003 A 
ATOM      8  C   UNL d   1      24.145 -18.392   0.547  0.00  0.00     0.017 A 
ATOM      9  C   UNL d   1      23.347 -18.064  -0.547  0.00  0.00     0.034 A 
ATOM     10  C   UNL d   1      23.902 -17.346  -1.604  0.00  0.00     0.046 A 
BRANCH   9  11
ATOM     11  C   UNL d   1      21.884 -18.323  -0.535  0.00  0.00     0.251 C 
ATOM     12  N   UNL d   1      21.463 -19.563  -0.095  0.00  0.00    -0.361 N 
ATOM     13  C   UNL d   1      20.061 -19.905  -0.082  0.00  0.00     0.149 C 
ATOM     14  H   UNL d   1      22.132 -20.246   0.239  0.00  0.00     0.162 HD
ATOM     15  O   UNL d   1      21.116 -17.448  -0.932  0.00  0.00    -0.268 OA
ENDBRANCH   9  11
ENDBRANCH   1   5
BRANCH   2  16
ATOM     16  C   UNL d   1      25.805 -14.265  -4.264  0.00  0.00     0.034 A 
ATOM     17  C   UNL d   1      26.885 -14.886  -4.915  0.00  0.00     0.019 A 
ATOM     18  C   UNL d   1      27.701 -14.154  -5.775  0.00  0.00     0.026 A 
ATOM     19  C   UNL d   1      27.401 -12.817  -6.039  0.00  0.00     0.055 A 
ATOM     20 CL   UNL d   1      28.377 -11.993  -7.201  0.00  0.00    -0.083 Cl
ATOM     21  C   UNL d   1      26.323 -12.198  -5.387  0.00  0.00     0.056 A 
ATOM     22 CL   UNL d   1      25.959 -10.523  -5.596  0.00  0.00    -0.083 Cl
ATOM     23  C   UNL d   1      25.525 -12.920  -4.494  0.00  0.00     0.042 A 
ENDBRANCH   2  16
TORSDOF 3
ENDMDL
MODEL 3
REMARK VINA RESULT:    -8.340      4.983      8.576
REMARK INTER + INTRA:          -9.742
REMARK INTER:                  -9.235
REMARK INTRA:                  -0.507
REMARK CONF_INDEPENDENT:        0.895
REMARK UNBOUND:                -0.507
REMARK  3 active torsions:
REMARK  status: ('A' for Active; 'I' for Inactive)
REMARK       I    between atoms: N_2  and  C_3 
REMARK    1  A    between atoms: C_3  and  C_5 
REMARK    2  A    between atoms: C_9  and  N_10 
REMARK       I    between atoms: N_10  and  C_11 
REMARK    3  A    between atoms: C_11  and  C_13 
ROOT
ATOM      1  N   UNL d   1      25.463 -15.124  -1.947  0.00  0.00    -0.323 N 
ATOM      2  C   UNL d   1      25.661 -15.048  -3.319  0.00  0.00     0.256 C 
ATOM      3  O   UNL d   1      25.530 -15.957  -4.140  0.00  0.00    -0.267 OA
ATOM      4  H   UNL d   1      25.540 -14.279  -1.392  0.00  0.00     0.169 HD
ENDROOT
BRANCH   1   5
ATOM      5  C   UNL d   1      25.049 -16.304  -1.265  0.00  0.00     0.035 A 
ATOM      6  C   UNL d   1      25.963 -17.022  -0.482  0.00  0.00     0.029 A 
ATOM      7  C   UNL d   1      25.532 -18.138   0.255  0.00  0.00     0.003 A 
ATOM      8  C   UNL d   1      24.203 -18.571   0.180  0.00  0.00     0.017 A 
ATOM      9  C   UNL d   1      23.290 -17.864  -0.598  0.00  0.00     0.034 A 
ATOM     10  C   UNL d   1      23.724 -16.750  -1.314  0.00  0.00     0.046 A 
BRANCH   9  11
ATOM     11  C   UNL d   1      21.838 -18.175  -0.553  0.00  0.00     0.251 C 
ATOM     12  N   UNL d   1      21.472 -19.424  -0.090  0.00  0.00    -0.361 N 
ATOM     13  C   UNL d   1      20.084 -19.817  -0.044  0.00  0.00     0.149 C 
ATOM     14  H   UNL d   1      22.172 -20.079   0.237  0.00  0.00     0.162 HD
ATOM     15  O   UNL d   1      21.031 -17.333  -0.942  0.00  0.00    -0.268 OA
ENDBRANCH   9  11
ENDBRANCH   1   5
BRANCH   2  16
ATOM     16  C   UNL d   1      26.103 -13.771  -3.906  0.00  0.00     0.034 A 
ATOM     17  C   UNL d   1      25.468 -12.595  -3.470  0.00  0.00     0.019 A 
ATOM     18  C   UNL d   1      25.648 -11.401  -4.167  0.00  0.00     0.026 A 
ATOM     19  C   UNL d   1      26.514 -11.364  -5.261  0.00  0.00     0.055 A 
ATOM     20 CL   UNL d   1      26.787  -9.835  -6.014  0.00  0.00    -0.083 Cl
ATOM     21  C   UNL d   1      27.146 -12.541  -5.695  0.00  0.00     0.056 A 
ATOM     22 CL   UNL d   1      28.152 -12.582  -7.098  0.00  0.00    -0.083 Cl
ATOM     23  C   UNL d   1      26.938 -13.748  -5.021  0.00  0.00     0.042 A 
ENDBRANCH   2  16
TORSDOF 3
ENDMDL
MODEL 4
REMARK VINA RESULT:    -8.324      4.952      8.405
REMARK INTER + INTRA:          -9.720
REMARK INTER:                  -9.219
REMARK INTRA:                  -0.501
REMARK CONF_INDEPENDENT:        0.895
REMARK UNBOUND:                -0.501
REMARK  3 active torsions:
REMARK  status: ('A' for Active; 'I' for Inactive)
REMARK       I    between atoms: N_2  and  C_3 
REMARK    1  A    between atoms: C_3  and  C_5 
REMARK    2  A    between atoms: C_9  and  N_10 
REMARK       I    between atoms: N_10  and  C_11 
REMARK    3  A    between atoms: C_11  and  C_13 
ROOT
ATOM      1  N   UNL d   1      25.981 -15.931  -2.355  0.00  0.00    -0.323 N 
ATOM      2  C   UNL d   1      25.297 -14.894  -2.976  0.00  0.00     0.256 C 
ATOM      3  O   UNL d   1      24.103 -14.614  -2.857  0.00  0.00    -0.267 OA
ATOM      4  H   UNL d   1      26.983 -16.007  -2.488  0.00  0.00     0.169 HD
ENDROOT
BRANCH   1   5
ATOM      5  C   UNL d   1      25.383 -16.847  -1.444  0.00  0.00     0.035 A 
ATOM      6  C   UNL d   1      26.127 -17.361  -0.373  0.00  0.00     0.029 A 
ATOM      7  C   UNL d   1      25.511 -18.201   0.571  0.00  0.00     0.003 A 
ATOM      8  C   UNL d   1      24.168 -18.570   0.428  0.00  0.00     0.017 A 
ATOM      9  C   UNL d   1      23.425 -18.065  -0.636  0.00  0.00     0.034 A 
ATOM     10  C   UNL d   1      24.040 -17.222  -1.559  0.00  0.00     0.046 A 
BRANCH   9  11
ATOM     11  C   UNL d   1      21.956 -18.277  -0.715  0.00  0.00     0.251 C 
ATOM     12  N   UNL d   1      21.454 -19.447  -0.179  0.00  0.00    -0.361 N 
ATOM     13  C   UNL d   1      20.043 -19.743  -0.244  0.00  0.00     0.149 C 
ATOM     14  H   UNL d   1      22.069 -20.109   0.280  0.00  0.00     0.162 HD
ATOM     15  O   UNL d   1      21.256 -17.428  -1.265  0.00  0.00    -0.268 OA
ENDBRANCH   9  11
ENDBRANCH   1   5
BRANCH   2  16
ATOM     16  C   UNL d   1      26.025 -14.018  -3.910  0.00  0.00     0.034 A 
ATOM     17  C   UNL d   1      25.521 -12.723  -4.124  0.00  0.00     0.019 A 
ATOM     18  C   UNL d   1      26.000 -11.949  -5.179  0.00  0.00     0.026 A 
ATOM     19  C   UNL d   1      27.029 -12.440  -5.984  0.00  0.00     0.055 A 
ATOM     20 CL   UNL d   1      27.661 -11.392  -7.202  0.00  0.00    -0.083 Cl
ATOM     21  C   UNL d   1      27.531 -13.733  -5.769  0.00  0.00     0.056 A 
ATOM     22 CL   UNL d   1      28.736 -14.435  -6.788  0.00  0.00    -0.083 Cl
ATOM     23  C   UNL d   1      27.026 -14.528  -4.734  0.00  0.00     0.042 A 
ENDBRANCH   2  16
TORSDOF 3
ENDMDL
MODEL 5
REMARK VINA RESULT:    -8.263      4.781      8.497
REMARK INTER + INTRA:          -9.669
REMARK INTER:                  -9.158
REMARK INTRA:                  -0.511
REMARK CONF_INDEPENDENT:        0.895
REMARK UNBOUND:                -0.511
REMARK  3 active torsions:
REMARK  status: ('A' for Active; 'I' for Inactive)
REMARK       I    between atoms: N_2  and  C_3 
REMARK    1  A    between atoms: C_3  and  C_5 
REMARK    2  A    between atoms: C_9  and  N_10 
REMARK       I    between atoms: N_10  and  C_11 
REMARK    3  A    between atoms: C_11  and  C_13 
ROOT
ATOM      1  N   UNL d   1      25.280 -14.976  -2.153  0.00  0.00    -0.323 N 
ATOM      2  C   UNL d   1      25.530 -14.981  -3.519  0.00  0.00     0.256 C 
ATOM      3  O   UNL d   1      25.530 -15.958  -4.270  0.00  0.00    -0.267 OA
ATOM      4  H   UNL d   1      25.244 -14.088  -1.664  0.00  0.00     0.169 HD
ENDROOT
BRANCH   1   5
ATOM      5  C   UNL d   1      24.961 -16.138  -1.395  0.00  0.00     0.035 A 
ATOM      6  C   UNL d   1      25.932 -16.735  -0.579  0.00  0.00     0.029 A 
ATOM      7  C   UNL d   1      25.591 -17.832   0.230  0.00  0.00     0.003 A 
ATOM      8  C   UNL d   1      24.299 -18.369   0.196  0.00  0.00     0.017 A 
ATOM      9  C   UNL d   1      23.330 -17.782  -0.615  0.00  0.00     0.034 A 
ATOM     10  C   UNL d   1      23.674 -16.686  -1.402  0.00  0.00     0.046 A 
BRANCH   9  11
ATOM     11  C   UNL d   1      21.906 -18.199  -0.535  0.00  0.00     0.251 C 
ATOM     12  N   UNL d   1      21.644 -19.474  -0.073  0.00  0.00    -0.361 N 
ATOM     13  C   UNL d   1      20.290 -19.967   0.005  0.00  0.00     0.149 C 
ATOM     14  H   UNL d   1      22.398 -20.079   0.230  0.00  0.00     0.162 HD
ATOM     15  O   UNL d   1      21.030 -17.416  -0.896  0.00  0.00    -0.268 OA
ENDBRANCH   9  11
ENDBRANCH   1   5
BRANCH   2  16
ATOM     16  C   UNL d   1      25.862 -13.713  -4.189  0.00  0.00     0.034 A 
ATOM     17  C   UNL d   1      26.779 -13.753  -5.253  0.00  0.00     0.019 A 
ATOM     18  C   UNL d   1      27.332 -12.574  -5.748  0.00  0.00     0.026 A 
ATOM     19  C   UNL d   1      26.921 -11.346  -5.226  0.00  0.00     0.055 A 
ATOM     20 CL   UNL d   1      27.553  -9.915  -5.956  0.00  0.00    -0.083 Cl
ATOM     21  C   UNL d   1      26.006 -11.308  -4.162  0.00  0.00     0.056 A 
ATOM     22 CL   UNL d   1      25.531  -9.829  -3.409  0.00  0.00    -0.083 Cl
ATOM     23  C   UNL d   1      25.478 -12.492  -3.637  0.00  0.00     0.042 A 
ENDBRANCH   2  16
TORSDOF 3
ENDMDL
MODEL 6
REMARK VINA RESULT:    -7.182      4.181      7.086
REMARK INTER + INTRA:          -8.586
REMARK INTER:                  -8.077
REMARK INTRA:                  -0.510
REMARK CONF_INDEPENDENT:        0.895
REMARK UNBOUND:                -0.510
REMARK  3 active torsions:
REMARK  status: ('A' for Active; 'I' for Inactive)
REMARK       I    between atoms: N_2  and  C_3 
REMARK    1  A    between atoms: C_3  and  C_5 
REMARK    2  A    between atoms: C_9  and  N_10 
REMARK       I    between atoms: N_10  and  C_11 
REMARK    3  A    between atoms: C_11  and  C_13 
ROOT
ATOM      1  N   UNL d   1      26.126 -12.715  -3.429  0.00  0.00    -0.323 N 
ATOM      2  C   UNL d   1      25.475 -13.938  -3.514  0.00  0.00     0.256 C 
ATOM      3  O   UNL d   1      24.777 -14.345  -4.444  0.00  0.00    -0.267 OA
ATOM      4  H   UNL d   1      26.728 -12.534  -2.633  0.00  0.00     0.169 HD
ENDROOT
BRANCH   1   5
ATOM      5  C   UNL d   1      26.094 -11.721  -4.447  0.00  0.00     0.035 A 
ATOM      6  C   UNL d   1      26.594 -12.005  -5.725  0.00  0.00     0.029 A 
ATOM      7  C   UNL d   1      26.486 -11.050  -6.750  0.00  0.00     0.003 A 
ATOM      8  C   UNL d   1      25.922  -9.794  -6.498  0.00  0.00     0.017 A 
ATOM      9  C   UNL d   1      25.426  -9.504  -5.229  0.00  0.00     0.034 A 
ATOM     10  C   UNL d   1      25.525 -10.462  -4.223  0.00  0.00     0.046 A 
BRANCH   9  11
ATOM     11  C   UNL d   1      24.651  -8.261  -4.973  0.00  0.00     0.251 C 
ATOM     12  N   UNL d   1      23.383  -8.182  -5.513  0.00  0.00    -0.361 N 
ATOM     13  C   UNL d   1      22.578  -6.997  -5.338  0.00  0.00     0.149 C 
ATOM     14  H   UNL d   1      22.992  -8.961  -6.030  0.00  0.00     0.162 HD
ATOM     15  O   UNL d   1      25.168  -7.356  -4.320  0.00  0.00    -0.268 OA
ENDBRANCH   9  11
ENDBRANCH   1   5
BRANCH   2  16
ATOM     16  C   UNL d   1      25.575 -14.880  -2.387  0.00  0.00     0.034 A 
ATOM     17  C   UNL d   1      26.853 -15.141  -1.861  0.00  0.00     0.019 A 
ATOM     18  C   UNL d   1      27.047 -16.207  -0.985  0.00  0.00     0.026 A 
ATOM     19  C   UNL d   1      25.954 -16.975  -0.579  0.00  0.00     0.055 A 
ATOM     20 CL   UNL d   1      26.235 -18.207   0.597  0.00  0.00    -0.083 Cl
ATOM     21  C   UNL d   1      24.679 -16.713  -1.105  0.00  0.00     0.056 A 
ATOM     22 CL   UNL d   1      23.305 -17.685  -0.718  0.00  0.00    -0.083 Cl
ATOM     23  C   UNL d   1      24.488 -15.668  -2.014  0.00  0.00     0.042 A 
ENDBRANCH   2  16
TORSDOF 3
ENDMDL
MODEL 7
REMARK VINA RESULT:    -6.960      2.010      2.354
REMARK INTER + INTRA:          -8.371
REMARK INTER:                  -7.855
REMARK INTRA:                  -0.517
REMARK CONF_INDEPENDENT:        0.895
REMARK UNBOUND:                -0.517
REMARK  3 active torsions:
REMARK  status: ('A' for Active; 'I' for Inactive)
REMARK       I    between atoms: N_2  and  C_3 
REMARK    1  A    between atoms: C_3  and  C_5 
REMARK    2  A    between atoms: C_9  and  N_10 
REMARK       I    between atoms: N_10  and  C_11 
REMARK    3  A    between atoms: C_11  and  C_13 
ROOT
ATOM      1  N   UNL d   1      24.058 -16.541  -1.547  0.00  0.00    -0.323 N 
ATOM      2  C   UNL d   1      24.105 -17.686  -0.761  0.00  0.00     0.256 C 
ATOM      3  O   UNL d   1      25.097 -18.174  -0.217  0.00  0.00    -0.267 OA
ATOM      4  H   UNL d   1      23.159 -16.210  -1.878  0.00  0.00     0.169 HD
ENDROOT
BRANCH   1   5
ATOM      5  C   UNL d   1      25.189 -15.726  -1.837  0.00  0.00     0.035 A 
ATOM      6  C   UNL d   1      25.875 -15.079  -0.801  0.00  0.00     0.029 A 
ATOM      7  C   UNL d   1      27.038 -14.342  -1.081  0.00  0.00     0.003 A 
ATOM      8  C   UNL d   1      27.497 -14.208  -2.397  0.00  0.00     0.017 A 
ATOM      9  C   UNL d   1      26.818 -14.847  -3.432  0.00  0.00     0.034 A 
ATOM     10  C   UNL d   1      25.674 -15.586  -3.142  0.00  0.00     0.046 A 
BRANCH   9  11
ATOM     11  C   UNL d   1      27.379 -14.888  -4.808  0.00  0.00     0.251 C 
ATOM     12  N   UNL d   1      28.695 -14.503  -4.967  0.00  0.00    -0.361 N 
ATOM     13  C   UNL d   1      29.306 -14.484  -6.275  0.00  0.00     0.149 C 
ATOM     14  H   UNL d   1      29.257 -14.240  -4.166  0.00  0.00     0.162 HD
ATOM     15  O   UNL d   1      26.656 -15.235  -5.740  0.00  0.00    -0.268 OA
ENDBRANCH   9  11
ENDBRANCH   1   5
BRANCH   2  16
ATOM     16  C   UNL d   1      22.866 -18.452  -0.543  0.00  0.00     0.034 A 
ATOM     17  C   UNL d   1      22.127 -18.839  -1.674  0.00  0.00     0.019 A 
ATOM     18  C   UNL d   1      20.829 -19.326  -1.531  0.00  0.00     0.026 A 
ATOM     19  C   UNL d   1      20.290 -19.490  -0.255  0.00  0.00     0.055 A 
ATOM     20 CL   UNL d   1      18.723 -20.206  -0.134  0.00  0.00    -0.083 Cl
ATOM     21  C   UNL d   1      21.030 -19.103   0.873  0.00  0.00     0.056 A 
ATOM     22 CL   UNL d   1      20.384 -19.190   2.473  0.00  0.00    -0.083 Cl
ATOM     23  C   UNL d   1      22.318 -18.578   0.732  0.00  0.00     0.042 A 
ENDBRANCH   2  16
TORSDOF 3
ENDMDL
MODEL 8
REMARK VINA RESULT:    -6.767      4.011      6.746
REMARK INTER + INTRA:          -8.176
REMARK INTER:                  -7.662
REMARK INTRA:                  -0.514
REMARK CONF_INDEPENDENT:        0.895
REMARK UNBOUND:                -0.514
REMARK  3 active torsions:
REMARK  status: ('A' for Active; 'I' for Inactive)
REMARK       I    between atoms: N_2  and  C_3 
REMARK    1  A    between atoms: C_3  and  C_5 
REMARK    2  A    between atoms: C_9  and  N_10 
REMARK       I    between atoms: N_10  and  C_11 
REMARK    3  A    between atoms: C_11  and  C_13 
ROOT
ATOM      1  N   UNL d   1      26.066 -12.957  -3.199  0.00  0.00    -0.323 N 
ATOM      2  C   UNL d   1      25.319 -14.126  -3.251  0.00  0.00     0.256 C 
ATOM      3  O   UNL d   1      24.487 -14.439  -4.105  0.00  0.00    -0.267 OA
ATOM      4  H   UNL d   1      26.769 -12.855  -2.475  0.00  0.00     0.169 HD
ENDROOT
BRANCH   1   5
ATOM      5  C   UNL d   1      25.989 -11.917  -4.168  0.00  0.00     0.035 A 
ATOM      6  C   UNL d   1      25.530 -10.645  -3.801  0.00  0.00     0.029 A 
ATOM      7  C   UNL d   1      25.532  -9.599  -4.739  0.00  0.00     0.003 A 
ATOM      8  C   UNL d   1      25.946  -9.825  -6.057  0.00  0.00     0.017 A 
ATOM      9  C   UNL d   1      26.400 -11.088  -6.429  0.00  0.00     0.034 A 
ATOM     10  C   UNL d   1      26.408 -12.114  -5.488  0.00  0.00     0.046 A 
BRANCH   9  11
ATOM     11  C   UNL d   1      27.025 -11.318  -7.758  0.00  0.00     0.251 C 
ATOM     12  N   UNL d   1      26.635 -10.491  -8.794  0.00  0.00    -0.361 N 
ATOM     13  C   UNL d   1      27.171 -10.669 -10.122  0.00  0.00     0.149 C 
ATOM     14  H   UNL d   1      25.976  -9.738  -8.633  0.00  0.00     0.162 HD
ATOM     15  O   UNL d   1      27.836 -12.233  -7.890  0.00  0.00    -0.268 OA
ENDBRANCH   9  11
ENDBRANCH   1   5
BRANCH   2  16
ATOM     16  C   UNL d   1      25.479 -15.124  -2.180  0.00  0.00     0.034 A 
ATOM     17  C   UNL d   1      26.774 -15.344  -1.677  0.00  0.00     0.019 A 
ATOM     18  C   UNL d   1      27.033 -16.446  -0.865  0.00  0.00     0.026 A 
ATOM     19  C   UNL d   1      25.987 -17.294  -0.497  0.00  0.00     0.055 A 
ATOM     20 CL   UNL d   1      26.344 -18.574   0.604  0.00  0.00    -0.083 Cl
ATOM     21  C   UNL d   1      24.695 -17.073  -1.000  0.00  0.00     0.056 A 
ATOM     22 CL   UNL d   1      23.379 -18.139  -0.662  0.00  0.00    -0.083 Cl
ATOM     23  C   UNL d   1      24.439 -15.989  -1.847  0.00  0.00     0.042 A 
ENDBRANCH   2  16
TORSDOF 3
ENDMDL
MODEL 9
REMARK VINA RESULT:    -6.743      4.240      6.772
REMARK INTER + INTRA:          -8.156
REMARK INTER:                  -7.638
REMARK INTRA:                  -0.518
REMARK CONF_INDEPENDENT:        0.895
REMARK UNBOUND:                -0.518
REMARK  3 active torsions:
REMARK  status: ('A' for Active; 'I' for Inactive)
REMARK       I    between atoms: N_2  and  C_3 
REMARK    1  A    between atoms: C_3  and  C_5 
REMARK    2  A    between atoms: C_9  and  N_10 
REMARK       I    between atoms: N_10  and  C_11 
REMARK    3  A    between atoms: C_11  and  C_13 
ROOT
ATOM      1  N   UNL d   1      27.389 -14.296  -4.232  0.00  0.00    -0.323 N 
ATOM      2  C   UNL d   1      26.150 -14.716  -3.769  0.00  0.00     0.256 C 
ATOM      3  O   UNL d   1      25.047 -14.454  -4.253  0.00  0.00    -0.267 OA
ATOM      4  H   UNL d   1      28.227 -14.642  -3.777  0.00  0.00     0.169 HD
ENDROOT
BRANCH   1   5
ATOM      5  C   UNL d   1      27.576 -13.483  -5.386  0.00  0.00     0.035 A 
ATOM      6  C   UNL d   1      28.343 -13.952  -6.460  0.00  0.00     0.029 A 
ATOM      7  C   UNL d   1      28.458 -13.182  -7.631  0.00  0.00     0.003 A 
ATOM      8  C   UNL d   1      27.850 -11.924  -7.719  0.00  0.00     0.017 A 
ATOM      9  C   UNL d   1      27.089 -11.451  -6.653  0.00  0.00     0.034 A 
ATOM     10  C   UNL d   1      26.969 -12.228  -5.503  0.00  0.00     0.046 A 
BRANCH   9  11
ATOM     11  C   UNL d   1      26.274 -10.214  -6.780  0.00  0.00     0.251 C 
ATOM     12  N   UNL d   1      25.273 -10.016  -5.850  0.00  0.00    -0.361 N 
ATOM     13  C   UNL d   1      24.417  -8.856  -5.923  0.00  0.00     0.149 C 
ATOM     14  H   UNL d   1      25.133 -10.675  -5.094  0.00  0.00     0.162 HD
ATOM     15  O   UNL d   1      26.503  -9.438  -7.706  0.00  0.00    -0.268 OA
ENDBRANCH   9  11
ENDBRANCH   1   5
BRANCH   2  16
ATOM     16  C   UNL d   1      26.086 -15.546  -2.554  0.00  0.00     0.034 A 
ATOM     17  C   UNL d   1      27.279 -15.757  -1.840  0.00  0.00     0.019 A 
ATOM     18  C   UNL d   1      27.340 -16.735  -0.849  0.00  0.00     0.026 A 
ATOM     19  C   UNL d   1      26.192 -17.459  -0.522  0.00  0.00     0.055 A 
ATOM     20 CL   UNL d   1      26.298 -18.574   0.792  0.00  0.00    -0.083 Cl
ATOM     21  C   UNL d   1      25.003 -17.247  -1.236  0.00  0.00     0.056 A 
ATOM     22 CL   UNL d   1      23.576 -18.176  -0.946  0.00  0.00    -0.083 Cl
ATOM     23  C   UNL d   1      24.948 -16.293  -2.258  0.00  0.00     0.042 A 
ENDBRANCH   2  16
TORSDOF 3
ENDMDL
