MODEL 1
REMARK VINA RESULT:    -9.829      0.000      0.000
REMARK INTER + INTRA:         -14.579
REMARK INTER:                 -12.513
REMARK INTRA:                  -2.065
REMARK CONF_INDEPENDENT:        2.685
REMARK UNBOUND:                -2.065
REMARK  9 active torsions:
REMARK  status: ('A' for Active; 'I' for Inactive)
REMARK    1  A    between atoms: C_2  and  C_3 
REMARK       I    between atoms: C_2  and  N_20 
REMARK    2  A    between atoms: C_3  and  N_4 
REMARK    3  A    between atoms: N_4  and  C_5 
REMARK    4  A    between atoms: C_8  and  C_9 
REMARK       I    between atoms: C_9  and  N_11 
REMARK    5  A    between atoms: N_11  and  C_12 
REMARK    6  A    between atoms: C_12  and  C_13 
REMARK    7  A    between atoms: N_20  and  C_21 
REMARK    8  A    between atoms: C_24  and  C_25 
REMARK       I    between atoms: C_25  and  N_27 
REMARK    9  A    between atoms: N_27  and  C_28 
ROOT
ATOM      1  O   UNL d   1      30.011 -15.207  -1.822  0.00  0.00    -0.271 OA
ATOM      2  C   UNL d   1      29.735 -15.303  -0.624  0.00  0.00     0.239 C 
ATOM      3  N   UNL d   1      29.868 -14.195   0.194  0.00  0.00    -0.326 N 
ATOM      4  H   UNL d   1      30.073 -13.334  -0.300  0.00  0.00     0.169 HD
ENDROOT
BRANCH   2   5
ATOM      5  C   UNL d   1      29.127 -16.584  -0.017  0.00  0.00     0.223 C 
BRANCH   5   6
ATOM      6  N   UNL d   1      27.883 -16.346   0.691  0.00  0.00    -0.381 N 
ATOM      7  H   UNL d   1      27.965 -16.043   1.660  0.00  0.00     0.160 HD
BRANCH   6   8
ATOM      8  C   UNL d   1      26.664 -16.804   0.235  0.00  0.00     0.028 A 
ATOM      9  C   UNL d   1      26.346 -18.154   0.402  0.00  0.00     0.030 A 
ATOM     10  C   UNL d   1      25.171 -18.697  -0.139  0.00  0.00     0.019 A 
ATOM     11  C   UNL d   1      24.227 -17.883  -0.780  0.00  0.00     0.032 A 
ATOM     12  C   UNL d   1      24.512 -16.517  -0.893  0.00  0.00     0.019 A 
ATOM     13  C   UNL d   1      25.703 -15.988  -0.365  0.00  0.00     0.030 A 
BRANCH  11  14
ATOM     14  C   UNL d   1      22.949 -18.511  -1.266  0.00  0.00     0.251 C 
ATOM     15  O   UNL d   1      22.947 -19.188  -2.295  0.00  0.00    -0.268 OA
ATOM     16  N   UNL d   1      21.807 -18.326  -0.517  0.00  0.00    -0.351 N 
ATOM     17  H   UNL d   1      21.838 -17.808   0.345  0.00  0.00     0.163 HD
BRANCH  16  18
ATOM     18  C   UNL d   1      20.531 -18.929  -0.880  0.00  0.00     0.187 C 
BRANCH  18  19
ATOM     19  C   UNL d   1      19.945 -19.573   0.332  0.00  0.00     0.070 A 
ATOM     20  C   UNL d   1      18.863 -20.415   0.491  0.00  0.00     0.036 A 
ATOM     21  C   UNL d   1      18.773 -20.717   1.865  0.00  0.00     0.027 A 
ATOM     22  C   UNL d   1      19.821 -20.062   2.468  0.00  0.00     0.142 A 
ATOM     23  O   UNL d   1      20.539 -19.357   1.546  0.00  0.00    -0.325 OA
ENDBRANCH  18  19
ENDBRANCH  16  18
ENDBRANCH  11  14
ENDBRANCH   6   8
ENDBRANCH   5   6
ENDBRANCH   2   5
BRANCH   3  24
ATOM     24  C   UNL d   1      29.712 -14.137   1.589  0.00  0.00     0.034 A 
ATOM     25  C   UNL d   1      28.526 -13.660   2.144  0.00  0.00     0.030 A 
ATOM     26  C   UNL d   1      28.403 -13.586   3.539  0.00  0.00     0.019 A 
ATOM     27  C   UNL d   1      29.434 -14.038   4.389  0.00  0.00     0.032 A 
ATOM     28  C   UNL d   1      30.620 -14.479   3.823  0.00  0.00     0.019 A 
ATOM     29  C   UNL d   1      30.762 -14.482   2.440  0.00  0.00     0.030 A 
BRANCH  27  30
ATOM     30  C   UNL d   1      29.209 -14.042   5.857  0.00  0.00     0.252 C 
ATOM     31  O   UNL d   1      28.479 -14.927   6.308  0.00  0.00    -0.268 OA
ATOM     32  N   UNL d   1      29.859 -13.098   6.641  0.00  0.00    -0.352 N 
ATOM     33  H   UNL d   1      30.336 -12.320   6.209  0.00  0.00     0.163 HD
BRANCH  32  34
ATOM     34  C   UNL d   1      29.738 -13.050   8.103  0.00  0.00     0.084 C 
ATOM     35  C   UNL d   1      28.352 -12.542   8.525  0.00  0.00     0.025 C 
ATOM     36  C   UNL d   1      28.136 -12.560  10.025  0.00  0.00     0.002 C 
ATOM     37  C   UNL d   1      28.363 -13.947  10.595  0.00  0.00     0.000 C 
ATOM     38  C   UNL d   1      29.757 -14.452  10.238  0.00  0.00     0.002 C 
ATOM     39  C   UNL d   1      29.991 -14.443   8.724  0.00  0.00     0.025 C 
ENDBRANCH  32  34
ENDBRANCH  27  30
ENDBRANCH   3  24
TORSDOF 9
ENDMDL
MODEL 2
REMARK VINA RESULT:    -9.782      1.861      9.925
REMARK INTER + INTRA:         -13.995
REMARK INTER:                 -12.467
REMARK INTRA:                  -1.528
REMARK CONF_INDEPENDENT:        2.685
REMARK UNBOUND:                -1.528
REMARK  9 active torsions:
REMARK  status: ('A' for Active; 'I' for Inactive)
REMARK    1  A    between atoms: C_2  and  C_3 
REMARK       I    between atoms: C_2  and  N_20 
REMARK    2  A    between atoms: C_3  and  N_4 
REMARK    3  A    between atoms: N_4  and  C_5 
REMARK    4  A    between atoms: C_8  and  C_9 
REMARK       I    between atoms: C_9  and  N_11 
REMARK    5  A    between atoms: N_11  and  C_12 
REMARK    6  A    between atoms: C_12  and  C_13 
REMARK    7  A    between atoms: N_20  and  C_21 
REMARK    8  A    between atoms: C_24  and  C_25 
REMARK       I    between atoms: C_25  and  N_27 
REMARK    9  A    between atoms: N_27  and  C_28 
ROOT
ATOM      1  O   UNL d   1      30.188 -16.556  -1.593  0.00  0.00    -0.271 OA
ATOM      2  C   UNL d   1      28.957 -16.480  -1.557  0.00  0.00     0.239 C 
ATOM      3  N   UNL d   1      28.253 -17.285  -0.678  0.00  0.00    -0.326 N 
ATOM      4  H   UNL d   1      28.836 -17.803  -0.029  0.00  0.00     0.169 HD
ENDROOT
BRANCH   2   5
ATOM      5  C   UNL d   1      28.171 -15.429  -2.368  0.00  0.00     0.223 C 
BRANCH   5   6
ATOM      6  N   UNL d   1      28.048 -14.156  -1.685  0.00  0.00    -0.381 N 
ATOM      7  H   UNL d   1      28.258 -13.325  -2.235  0.00  0.00     0.160 HD
BRANCH   6   8
ATOM      8  C   UNL d   1      27.982 -14.047  -0.310  0.00  0.00     0.028 A 
ATOM      9  C   UNL d   1      26.738 -13.850   0.292  0.00  0.00     0.030 A 
ATOM     10  C   UNL d   1      26.625 -13.624   1.672  0.00  0.00     0.019 A 
ATOM     11  C   UNL d   1      27.747 -13.685   2.509  0.00  0.00     0.032 A 
ATOM     12  C   UNL d   1      28.988 -13.947   1.918  0.00  0.00     0.019 A 
ATOM     13  C   UNL d   1      29.093 -14.151   0.530  0.00  0.00     0.030 A 
BRANCH  11  14
ATOM     14  C   UNL d   1      27.549 -13.515   3.991  0.00  0.00     0.251 C 
ATOM     15  O   UNL d   1      27.110 -14.448   4.664  0.00  0.00    -0.268 OA
ATOM     16  N   UNL d   1      27.894 -12.310   4.560  0.00  0.00    -0.351 N 
ATOM     17  H   UNL d   1      28.295 -11.575   4.001  0.00  0.00     0.163 HD
BRANCH  16  18
ATOM     18  C   UNL d   1      27.781 -12.062   5.992  0.00  0.00     0.187 C 
BRANCH  18  19
ATOM     19  C   UNL d   1      29.015 -12.566   6.663  0.00  0.00     0.070 A 
ATOM     20  C   UNL d   1      30.181 -11.929   7.038  0.00  0.00     0.036 A 
ATOM     21  C   UNL d   1      31.007 -12.900   7.640  0.00  0.00     0.027 A 
ATOM     22  C   UNL d   1      30.290 -14.073   7.622  0.00  0.00     0.142 A 
ATOM     23  O   UNL d   1      29.077 -13.885   7.026  0.00  0.00    -0.325 OA
ENDBRANCH  18  19
ENDBRANCH  16  18
ENDBRANCH  11  14
ENDBRANCH   6   8
ENDBRANCH   5   6
ENDBRANCH   2   5
BRANCH   3  24
ATOM     24  C   UNL d   1      26.859 -17.421  -0.571  0.00  0.00     0.034 A 
ATOM     25  C   UNL d   1      26.297 -18.041   0.542  0.00  0.00     0.030 A 
ATOM     26  C   UNL d   1      24.904 -18.190   0.615  0.00  0.00     0.019 A 
ATOM     27  C   UNL d   1      24.061 -17.673  -0.391  0.00  0.00     0.032 A 
ATOM     28  C   UNL d   1      24.636 -17.088  -1.508  0.00  0.00     0.019 A 
ATOM     29  C   UNL d   1      26.020 -17.008  -1.606  0.00  0.00     0.030 A 
BRANCH  27  30
ATOM     30  C   UNL d   1      22.589 -17.757  -0.212  0.00  0.00     0.252 C 
ATOM     31  O   UNL d   1      21.931 -16.761  -0.519  0.00  0.00    -0.268 OA
ATOM     32  N   UNL d   1      22.032 -18.948   0.236  0.00  0.00    -0.352 N 
ATOM     33  H   UNL d   1      22.623 -19.681   0.597  0.00  0.00     0.163 HD
BRANCH  32  34
ATOM     34  C   UNL d   1      20.586 -19.143   0.399  0.00  0.00     0.084 C 
ATOM     35  C   UNL d   1      20.030 -20.075  -0.686  0.00  0.00     0.025 C 
ATOM     36  C   UNL d   1      18.557 -20.388  -0.513  0.00  0.00     0.002 C 
ATOM     37  C   UNL d   1      18.280 -20.981   0.855  0.00  0.00     0.000 C 
ATOM     38  C   UNL d   1      18.772 -20.046   1.954  0.00  0.00     0.002 C 
ATOM     39  C   UNL d   1      20.261 -19.721   1.795  0.00  0.00     0.025 C 
ENDBRANCH  32  34
ENDBRANCH  27  30
ENDBRANCH   3  24
TORSDOF 9
ENDMDL
MODEL 3
REMARK VINA RESULT:    -8.909      5.786     10.782
REMARK INTER + INTRA:         -13.305
REMARK INTER:                 -11.594
REMARK INTRA:                  -1.712
REMARK CONF_INDEPENDENT:        2.685
REMARK UNBOUND:                -1.712
REMARK  9 active torsions:
REMARK  status: ('A' for Active; 'I' for Inactive)
REMARK    1  A    between atoms: C_2  and  C_3 
REMARK       I    between atoms: C_2  and  N_20 
REMARK    2  A    between atoms: C_3  and  N_4 
REMARK    3  A    between atoms: N_4  and  C_5 
REMARK    4  A    between atoms: C_8  and  C_9 
REMARK       I    between atoms: C_9  and  N_11 
REMARK    5  A    between atoms: N_11  and  C_12 
REMARK    6  A    between atoms: C_12  and  C_13 
REMARK    7  A    between atoms: N_20  and  C_21 
REMARK    8  A    between atoms: C_24  and  C_25 
REMARK       I    between atoms: C_25  and  N_27 
REMARK    9  A    between atoms: N_27  and  C_28 
ROOT
ATOM      1  O   UNL d   1      29.343 -16.101  -1.774  0.00  0.00    -0.271 OA
ATOM      2  C   UNL d   1      28.121 -16.261  -1.816  0.00  0.00     0.239 C 
ATOM      3  N   UNL d   1      27.448 -16.648  -0.670  0.00  0.00    -0.326 N 
ATOM      4  H   UNL d   1      28.019 -16.650   0.168  0.00  0.00     0.169 HD
ENDROOT
BRANCH   2   5
ATOM      5  C   UNL d   1      27.288 -15.929  -3.070  0.00  0.00     0.223 C 
BRANCH   5   6
ATOM      6  N   UNL d   1      27.763 -14.755  -3.777  0.00  0.00    -0.381 N 
ATOM      7  H   UNL d   1      28.659 -14.846  -4.254  0.00  0.00     0.160 HD
BRANCH   6   8
ATOM      8  C   UNL d   1      27.243 -13.494  -3.568  0.00  0.00     0.028 A 
ATOM      9  C   UNL d   1      26.223 -13.038  -4.406  0.00  0.00     0.030 A 
ATOM     10  C   UNL d   1      25.734 -11.726  -4.309  0.00  0.00     0.019 A 
ATOM     11  C   UNL d   1      26.183 -10.859  -3.303  0.00  0.00     0.032 A 
ATOM     12  C   UNL d   1      27.159 -11.335  -2.420  0.00  0.00     0.019 A 
ATOM     13  C   UNL d   1      27.657 -12.644  -2.540  0.00  0.00     0.030 A 
BRANCH  11  14
ATOM     14  C   UNL d   1      25.560  -9.493  -3.201  0.00  0.00     0.251 C 
ATOM     15  O   UNL d   1      25.562  -8.895  -2.124  0.00  0.00    -0.268 OA
ATOM     16  N   UNL d   1      25.022  -8.936  -4.340  0.00  0.00    -0.351 N 
ATOM     17  H   UNL d   1      25.071  -9.421  -5.220  0.00  0.00     0.163 HD
BRANCH  16  18
ATOM     18  C   UNL d   1      24.436  -7.601  -4.353  0.00  0.00     0.187 C 
BRANCH  18  19
ATOM     19  C   UNL d   1      24.096  -7.243  -5.761  0.00  0.00     0.070 A 
ATOM     20  C   UNL d   1      22.899  -6.900  -6.356  0.00  0.00     0.036 A 
ATOM     21  C   UNL d   1      23.170  -6.657  -7.718  0.00  0.00     0.027 A 
ATOM     22  C   UNL d   1      24.524  -6.840  -7.875  0.00  0.00     0.142 A 
ATOM     23  O   UNL d   1      25.098  -7.202  -6.692  0.00  0.00    -0.325 OA
ENDBRANCH  18  19
ENDBRANCH  16  18
ENDBRANCH  11  14
ENDBRANCH   6   8
ENDBRANCH   5   6
ENDBRANCH   2   5
BRANCH   3  24
ATOM     24  C   UNL d   1      26.090 -16.985  -0.548  0.00  0.00     0.034 A 
ATOM     25  C   UNL d   1      25.108 -16.006  -0.675  0.00  0.00     0.030 A 
ATOM     26  C   UNL d   1      23.760 -16.361  -0.522  0.00  0.00     0.019 A 
ATOM     27  C   UNL d   1      23.379 -17.701  -0.299  0.00  0.00     0.032 A 
ATOM     28  C   UNL d   1      24.368 -18.659  -0.142  0.00  0.00     0.019 A 
ATOM     29  C   UNL d   1      25.704 -18.286  -0.224  0.00  0.00     0.030 A 
BRANCH  27  30
ATOM     30  C   UNL d   1      21.933 -18.042  -0.257  0.00  0.00     0.252 C 
ATOM     31  O   UNL d   1      21.223 -17.574  -1.149  0.00  0.00    -0.268 OA
ATOM     32  N   UNL d   1      21.472 -18.894   0.738  0.00  0.00    -0.352 N 
ATOM     33  H   UNL d   1      22.067 -19.138   1.514  0.00  0.00     0.163 HD
BRANCH  32  34
ATOM     34  C   UNL d   1      20.072 -19.326   0.835  0.00  0.00     0.084 C 
ATOM     35  C   UNL d   1      19.683 -20.208  -0.360  0.00  0.00     0.025 C 
ATOM     36  C   UNL d   1      18.274 -20.760  -0.265  0.00  0.00     0.002 C 
ATOM     37  C   UNL d   1      18.074 -21.534   1.024  0.00  0.00     0.000 C 
ATOM     38  C   UNL d   1      18.399 -20.660   2.229  0.00  0.00     0.002 C 
ATOM     39  C   UNL d   1      19.822 -20.095   2.152  0.00  0.00     0.025 C 
ENDBRANCH  32  34
ENDBRANCH  27  30
ENDBRANCH   3  24
TORSDOF 9
ENDMDL
MODEL 4
REMARK VINA RESULT:    -8.904      3.949      8.729
REMARK INTER + INTRA:         -13.766
REMARK INTER:                 -11.588
REMARK INTRA:                  -2.177
REMARK CONF_INDEPENDENT:        2.685
REMARK UNBOUND:                -2.177
REMARK  9 active torsions:
REMARK  status: ('A' for Active; 'I' for Inactive)
REMARK    1  A    between atoms: C_2  and  C_3 
REMARK       I    between atoms: C_2  and  N_20 
REMARK    2  A    between atoms: C_3  and  N_4 
REMARK    3  A    between atoms: N_4  and  C_5 
REMARK    4  A    between atoms: C_8  and  C_9 
REMARK       I    between atoms: C_9  and  N_11 
REMARK    5  A    between atoms: N_11  and  C_12 
REMARK    6  A    between atoms: C_12  and  C_13 
REMARK    7  A    between atoms: N_20  and  C_21 
REMARK    8  A    between atoms: C_24  and  C_25 
REMARK       I    between atoms: C_25  and  N_27 
REMARK    9  A    between atoms: N_27  and  C_28 
ROOT
ATOM      1  O   UNL d   1      29.623 -13.845   2.400  0.00  0.00    -0.271 OA
ATOM      2  C   UNL d   1      29.331 -14.369   1.323  0.00  0.00     0.239 C 
ATOM      3  N   UNL d   1      30.342 -14.770   0.467  0.00  0.00    -0.326 N 
ATOM      4  H   UNL d   1      31.274 -14.707   0.863  0.00  0.00     0.169 HD
ENDROOT
BRANCH   2   5
ATOM      5  C   UNL d   1      27.877 -14.711   0.939  0.00  0.00     0.223 C 
BRANCH   5   6
ATOM      6  N   UNL d   1      27.650 -16.134   0.769  0.00  0.00    -0.381 N 
ATOM      7  H   UNL d   1      28.477 -16.729   0.783  0.00  0.00     0.160 HD
BRANCH   6   8
ATOM      8  C   UNL d   1      26.465 -16.650   0.286  0.00  0.00     0.028 A 
ATOM      9  C   UNL d   1      26.123 -17.965   0.606  0.00  0.00     0.030 A 
ATOM     10  C   UNL d   1      24.987 -18.576   0.054  0.00  0.00     0.019 A 
ATOM     11  C   UNL d   1      24.102 -17.856  -0.760  0.00  0.00     0.032 A 
ATOM     12  C   UNL d   1      24.407 -16.517  -1.030  0.00  0.00     0.019 A 
ATOM     13  C   UNL d   1      25.560 -15.921  -0.488  0.00  0.00     0.030 A 
BRANCH  11  14
ATOM     14  C   UNL d   1      22.858 -18.543  -1.254  0.00  0.00     0.251 C 
ATOM     15  O   UNL d   1      22.901 -19.240  -2.268  0.00  0.00    -0.268 OA
ATOM     16  N   UNL d   1      21.697 -18.390  -0.528  0.00  0.00    -0.351 N 
ATOM     17  H   UNL d   1      21.692 -17.855   0.324  0.00  0.00     0.163 HD
BRANCH  16  18
ATOM     18  C   UNL d   1      20.452 -19.051  -0.900  0.00  0.00     0.187 C 
BRANCH  18  19
ATOM     19  C   UNL d   1      19.857 -19.671   0.320  0.00  0.00     0.070 A 
ATOM     20  C   UNL d   1      18.811 -20.557   0.482  0.00  0.00     0.036 A 
ATOM     21  C   UNL d   1      18.691 -20.806   1.865  0.00  0.00     0.027 A 
ATOM     22  C   UNL d   1      19.687 -20.076   2.470  0.00  0.00     0.142 A 
ATOM     23  O   UNL d   1      20.401 -19.377   1.542  0.00  0.00    -0.325 OA
ENDBRANCH  18  19
ENDBRANCH  16  18
ENDBRANCH  11  14
ENDBRANCH   6   8
ENDBRANCH   5   6
ENDBRANCH   2   5
BRANCH   3  24
ATOM     24  C   UNL d   1      30.210 -15.277  -0.837  0.00  0.00     0.034 A 
ATOM     25  C   UNL d   1      29.882 -14.427  -1.891  0.00  0.00     0.030 A 
ATOM     26  C   UNL d   1      29.728 -14.960  -3.179  0.00  0.00     0.019 A 
ATOM     27  C   UNL d   1      29.956 -16.328  -3.436  0.00  0.00     0.032 A 
ATOM     28  C   UNL d   1      30.249 -17.167  -2.372  0.00  0.00     0.019 A 
ATOM     29  C   UNL d   1      30.329 -16.644  -1.087  0.00  0.00     0.030 A 
BRANCH  27  30
ATOM     30  C   UNL d   1      29.890 -16.820  -4.836  0.00  0.00     0.252 C 
ATOM     31  O   UNL d   1      29.171 -16.191  -5.616  0.00  0.00    -0.268 OA
ATOM     32  N   UNL d   1      30.663 -17.914  -5.203  0.00  0.00    -0.352 N 
ATOM     33  H   UNL d   1      31.126 -18.468  -4.498  0.00  0.00     0.163 HD
BRANCH  32  34
ATOM     34  C   UNL d   1      30.700 -18.444  -6.571  0.00  0.00     0.084 C 
ATOM     35  C   UNL d   1      31.755 -17.716  -7.416  0.00  0.00     0.025 C 
ATOM     36  C   UNL d   1      31.903 -18.285  -8.813  0.00  0.00     0.002 C 
ATOM     37  C   UNL d   1      32.222 -19.767  -8.771  0.00  0.00     0.000 C 
ATOM     38  C   UNL d   1      31.156 -20.522  -7.985  0.00  0.00     0.002 C 
ATOM     39  C   UNL d   1      30.994 -19.961  -6.567  0.00  0.00     0.025 C 
ENDBRANCH  32  34
ENDBRANCH  27  30
ENDBRANCH   3  24
TORSDOF 9
ENDMDL
MODEL 5
REMARK VINA RESULT:    -8.652      5.513     10.299
REMARK INTER + INTRA:         -13.670
REMARK INTER:                 -11.336
REMARK INTRA:                  -2.334
REMARK CONF_INDEPENDENT:        2.685
REMARK UNBOUND:                -2.334
REMARK  9 active torsions:
REMARK  status: ('A' for Active; 'I' for Inactive)
REMARK    1  A    between atoms: C_2  and  C_3 
REMARK       I    between atoms: C_2  and  N_20 
REMARK    2  A    between atoms: C_3  and  N_4 
REMARK    3  A    between atoms: N_4  and  C_5 
REMARK    4  A    between atoms: C_8  and  C_9 
REMARK       I    between atoms: C_9  and  N_11 
REMARK    5  A    between atoms: N_11  and  C_12 
REMARK    6  A    between atoms: C_12  and  C_13 
REMARK    7  A    between atoms: N_20  and  C_21 
REMARK    8  A    between atoms: C_24  and  C_25 
REMARK       I    between atoms: C_25  and  N_27 
REMARK    9  A    between atoms: N_27  and  C_28 
ROOT
ATOM      1  O   UNL d   1      29.629 -14.278  -1.652  0.00  0.00    -0.271 OA
ATOM      2  C   UNL d   1      28.709 -15.086  -1.799  0.00  0.00     0.239 C 
ATOM      3  N   UNL d   1      27.569 -14.965  -1.024  0.00  0.00    -0.326 N 
ATOM      4  H   UNL d   1      27.533 -14.120  -0.464  0.00  0.00     0.169 HD
ENDROOT
BRANCH   2   5
ATOM      5  C   UNL d   1      28.724 -16.162  -2.904  0.00  0.00     0.223 C 
BRANCH   5   6
ATOM      6  N   UNL d   1      28.762 -15.604  -4.243  0.00  0.00    -0.381 N 
ATOM      7  H   UNL d   1      29.567 -15.854  -4.815  0.00  0.00     0.160 HD
BRANCH   6   8
ATOM      8  C   UNL d   1      27.967 -14.547  -4.636  0.00  0.00     0.028 A 
ATOM      9  C   UNL d   1      28.526 -13.540  -5.426  0.00  0.00     0.030 A 
ATOM     10  C   UNL d   1      27.797 -12.389  -5.762  0.00  0.00     0.019 A 
ATOM     11  C   UNL d   1      26.450 -12.255  -5.398  0.00  0.00     0.032 A 
ATOM     12  C   UNL d   1      25.867 -13.292  -4.660  0.00  0.00     0.019 A 
ATOM     13  C   UNL d   1      26.613 -14.431  -4.312  0.00  0.00     0.030 A 
BRANCH  11  14
ATOM     14  C   UNL d   1      25.699 -11.035  -5.858  0.00  0.00     0.251 C 
ATOM     15  O   UNL d   1      25.036 -11.075  -6.895  0.00  0.00    -0.268 OA
ATOM     16  N   UNL d   1      25.759  -9.901  -5.078  0.00  0.00    -0.351 N 
ATOM     17  H   UNL d   1      26.268  -9.902  -4.210  0.00  0.00     0.163 HD
BRANCH  16  18
ATOM     18  C   UNL d   1      25.031  -8.684  -5.415  0.00  0.00     0.187 C 
BRANCH  18  19
ATOM     19  C   UNL d   1      25.162  -7.720  -4.284  0.00  0.00     0.070 A 
ATOM     20  C   UNL d   1      24.780  -6.399  -4.155  0.00  0.00     0.036 A 
ATOM     21  C   UNL d   1      25.152  -5.987  -2.859  0.00  0.00     0.027 A 
ATOM     22  C   UNL d   1      25.720  -7.086  -2.258  0.00  0.00     0.142 A 
ATOM     23  O   UNL d   1      25.736  -8.146  -3.117  0.00  0.00    -0.325 OA
ENDBRANCH  18  19
ENDBRANCH  16  18
ENDBRANCH  11  14
ENDBRANCH   6   8
ENDBRANCH   5   6
ENDBRANCH   2   5
BRANCH   3  24
ATOM     24  C   UNL d   1      26.475 -15.844  -0.967  0.00  0.00     0.034 A 
ATOM     25  C   UNL d   1      25.285 -15.527  -1.619  0.00  0.00     0.030 A 
ATOM     26  C   UNL d   1      24.196 -16.407  -1.527  0.00  0.00     0.019 A 
ATOM     27  C   UNL d   1      24.304 -17.631  -0.834  0.00  0.00     0.032 A 
ATOM     28  C   UNL d   1      25.483 -17.917  -0.163  0.00  0.00     0.019 A 
ATOM     29  C   UNL d   1      26.532 -17.007  -0.200  0.00  0.00     0.030 A 
BRANCH  27  30
ATOM     30  C   UNL d   1      23.159 -18.578  -0.860  0.00  0.00     0.252 C 
ATOM     31  O   UNL d   1      23.049 -19.294  -1.858  0.00  0.00    -0.268 OA
ATOM     32  N   UNL d   1      22.314 -18.644   0.239  0.00  0.00    -0.352 N 
ATOM     33  H   UNL d   1      22.372 -17.947   0.967  0.00  0.00     0.163 HD
BRANCH  32  34
ATOM     34  C   UNL d   1      21.186 -19.579   0.327  0.00  0.00     0.084 C 
ATOM     35  C   UNL d   1      20.615 -19.623   1.751  0.00  0.00     0.025 C 
ATOM     36  C   UNL d   1      19.387 -20.502   1.879  0.00  0.00     0.002 C 
ATOM     37  C   UNL d   1      18.302 -20.074   0.910  0.00  0.00     0.000 C 
ATOM     38  C   UNL d   1      18.829 -20.079  -0.520  0.00  0.00     0.002 C 
ATOM     39  C   UNL d   1      20.070 -19.191  -0.669  0.00  0.00     0.025 C 
ENDBRANCH  32  34
ENDBRANCH  27  30
ENDBRANCH   3  24
TORSDOF 9
ENDMDL
MODEL 6
REMARK VINA RESULT:    -8.559      5.869     10.701
REMARK INTER + INTRA:         -13.608
REMARK INTER:                 -11.243
REMARK INTRA:                  -2.365
REMARK CONF_INDEPENDENT:        2.685
REMARK UNBOUND:                -2.365
REMARK  9 active torsions:
REMARK  status: ('A' for Active; 'I' for Inactive)
REMARK    1  A    between atoms: C_2  and  C_3 
REMARK       I    between atoms: C_2  and  N_20 
REMARK    2  A    between atoms: C_3  and  N_4 
REMARK    3  A    between atoms: N_4  and  C_5 
REMARK    4  A    between atoms: C_8  and  C_9 
REMARK       I    between atoms: C_9  and  N_11 
REMARK    5  A    between atoms: N_11  and  C_12 
REMARK    6  A    between atoms: C_12  and  C_13 
REMARK    7  A    between atoms: N_20  and  C_21 
REMARK    8  A    between atoms: C_24  and  C_25 
REMARK       I    between atoms: C_25  and  N_27 
REMARK    9  A    between atoms: N_27  and  C_28 
ROOT
ATOM      1  O   UNL d   1      29.630 -13.998  -1.738  0.00  0.00    -0.271 OA
ATOM      2  C   UNL d   1      28.766 -14.875  -1.826  0.00  0.00     0.239 C 
ATOM      3  N   UNL d   1      27.547 -14.691  -1.196  0.00  0.00    -0.326 N 
ATOM      4  H   UNL d   1      27.417 -13.766  -0.801  0.00  0.00     0.169 HD
ENDROOT
BRANCH   2   5
ATOM      5  C   UNL d   1      28.942 -16.122  -2.716  0.00  0.00     0.223 C 
BRANCH   5   6
ATOM      6  N   UNL d   1      30.094 -16.038  -3.594  0.00  0.00    -0.381 N 
ATOM      7  H   UNL d   1      30.638 -15.179  -3.546  0.00  0.00     0.160 HD
BRANCH   6   8
ATOM      8  C   UNL d   1      30.281 -16.889  -4.665  0.00  0.00     0.028 A 
ATOM      9  C   UNL d   1      30.267 -18.267  -4.441  0.00  0.00     0.030 A 
ATOM     10  C   UNL d   1      30.560 -19.174  -5.471  0.00  0.00     0.019 A 
ATOM     11  C   UNL d   1      30.780 -18.732  -6.783  0.00  0.00     0.032 A 
ATOM     12  C   UNL d   1      30.731 -17.354  -7.024  0.00  0.00     0.019 A 
ATOM     13  C   UNL d   1      30.457 -16.453  -5.980  0.00  0.00     0.030 A 
BRANCH  11  14
ATOM     14  C   UNL d   1      31.008 -19.759  -7.858  0.00  0.00     0.251 C 
ATOM     15  O   UNL d   1      30.687 -19.514  -9.022  0.00  0.00    -0.268 OA
ATOM     16  N   UNL d   1      31.603 -20.950  -7.506  0.00  0.00    -0.351 N 
ATOM     17  H   UNL d   1      31.901 -21.114  -6.559  0.00  0.00     0.163 HD
BRANCH  16  18
ATOM     18  C   UNL d   1      31.906 -21.990  -8.482  0.00  0.00     0.187 C 
BRANCH  18  19
ATOM     19  C   UNL d   1      32.119 -23.277  -7.758  0.00  0.00     0.070 A 
ATOM     20  C   UNL d   1      32.261 -24.573  -8.214  0.00  0.00     0.036 A 
ATOM     21  C   UNL d   1      32.442 -25.392  -7.081  0.00  0.00     0.027 A 
ATOM     22  C   UNL d   1      32.425 -24.548  -5.995  0.00  0.00     0.142 A 
ATOM     23  O   UNL d   1      32.224 -23.259  -6.394  0.00  0.00    -0.325 OA
ENDBRANCH  18  19
ENDBRANCH  16  18
ENDBRANCH  11  14
ENDBRANCH   6   8
ENDBRANCH   5   6
ENDBRANCH   2   5
BRANCH   3  24
ATOM     24  C   UNL d   1      26.492 -15.612  -1.088  0.00  0.00     0.034 A 
ATOM     25  C   UNL d   1      25.274 -15.362  -1.715  0.00  0.00     0.030 A 
ATOM     26  C   UNL d   1      24.226 -16.283  -1.572  0.00  0.00     0.019 A 
ATOM     27  C   UNL d   1      24.402 -17.483  -0.852  0.00  0.00     0.032 A 
ATOM     28  C   UNL d   1      25.608 -17.703  -0.205  0.00  0.00     0.019 A 
ATOM     29  C   UNL d   1      26.618 -16.752  -0.293  0.00  0.00     0.030 A 
BRANCH  27  30
ATOM     30  C   UNL d   1      23.297 -18.476  -0.823  0.00  0.00     0.252 C 
ATOM     31  O   UNL d   1      23.276 -19.314  -1.727  0.00  0.00    -0.268 OA
ATOM     32  N   UNL d   1      22.389 -18.443   0.226  0.00  0.00    -0.352 N 
ATOM     33  H   UNL d   1      22.375 -17.660   0.862  0.00  0.00     0.163 HD
BRANCH  32  34
ATOM     34  C   UNL d   1      21.293 -19.410   0.367  0.00  0.00     0.084 C 
ATOM     35  C   UNL d   1      20.657 -19.325   1.761  0.00  0.00     0.025 C 
ATOM     36  C   UNL d   1      19.459 -20.236   1.932  0.00  0.00     0.002 C 
ATOM     37  C   UNL d   1      18.405 -19.960   0.877  0.00  0.00     0.000 C 
ATOM     38  C   UNL d   1      18.998 -20.095  -0.520  0.00  0.00     0.002 C 
ATOM     39  C   UNL d   1      20.211 -19.178  -0.712  0.00  0.00     0.025 C 
ENDBRANCH  32  34
ENDBRANCH  27  30
ENDBRANCH   3  24
TORSDOF 9
ENDMDL
