MODEL 1
REMARK VINA RESULT:    -8.133      0.000      0.000
REMARK INTER + INTRA:         -12.172
REMARK INTER:                 -10.818
REMARK INTRA:                  -1.355
REMARK CONF_INDEPENDENT:        2.685
REMARK UNBOUND:                -1.355
REMARK  9 active torsions:
REMARK  status: ('A' for Active; 'I' for Inactive)
REMARK    1  A    between atoms: C_2  and  N_3 
REMARK    2  A    between atoms: N_3  and  C_4 
REMARK    3  A    between atoms: N_3  and  C_6 
REMARK    4  A    between atoms: C_9  and  C_10 
REMARK    5  A    between atoms: C_10  and  C_11 
REMARK    6  A    between atoms: N_15  and  N_16 
REMARK       I    between atoms: N_16  and  C_17 
REMARK    7  A    between atoms: C_17  and  C_19 
REMARK    8  A    between atoms: C_22  and  O_23 
REMARK    9  A    between atoms: C_24  and  O_25 
ROOT
ATOM      1  C   UNL d   1      25.994 -16.154  -1.261  0.00  0.00     0.078 A 
ATOM      2  S   UNL d   1      26.257 -14.655  -2.035  0.00  0.00    -0.053 SA
ATOM      3  C   UNL d   1      27.179 -13.969  -0.710  0.00  0.00     0.168 A 
ATOM      4  S   UNL d   1      27.675 -12.410  -1.014  0.00  0.00    -0.050 SA
ATOM      5  N   UNL d   1      27.280 -14.913   0.318  0.00  0.00    -0.198 N 
ATOM      6  C   UNL d   1      26.637 -16.144   0.094  0.00  0.00     0.285 A 
ATOM      7  O   UNL d   1      26.595 -17.088   0.878  0.00  0.00    -0.265 OA
ENDROOT
BRANCH   5   8
ATOM      8  N   UNL d   1      27.949 -14.774   1.610  0.00  0.00    -0.255 N 
ATOM      9  C   UNL d   1      27.721 -13.759   2.513  0.00  0.00     0.270 C 
ATOM     10  O   UNL d   1      26.989 -12.782   2.368  0.00  0.00    -0.266 OA
ATOM     11  H   UNL d   1      28.585 -15.544   1.832  0.00  0.00     0.191 HD
BRANCH   9  12
ATOM     12  C   UNL d   1      28.423 -13.707   3.797  0.00  0.00     0.036 A 
ATOM     13  C   UNL d   1      29.524 -14.566   3.976  0.00  0.00     0.020 A 
ATOM     14  C   UNL d   1      30.019 -14.821   5.250  0.00  0.00     0.040 A 
ATOM     15  C   UNL d   1      29.453 -14.160   6.337  0.00  0.00     0.099 A 
ATOM     16  C   UNL d   1      28.337 -13.319   6.171  0.00  0.00     0.102 A 
ATOM     17  C   UNL d   1      27.821 -13.102   4.890  0.00  0.00     0.056 A 
BRANCH  15  18
ATOM     18  O   UNL d   1      29.988 -14.334   7.585  0.00  0.00    -0.358 OA
ATOM     19  H   UNL d   1      30.956 -14.277   7.529  0.00  0.00     0.217 HD
ENDBRANCH  15  18
BRANCH  16  20
ATOM     20  O   UNL d   1      27.784 -12.779   7.305  0.00  0.00    -0.353 OA
ATOM     21  C   UNL d   1      28.543 -11.752   7.933  0.00  0.00     0.210 C 
ENDBRANCH  16  20
ENDBRANCH   9  12
ENDBRANCH   5   8
BRANCH   1  22
ATOM     22  C   UNL d   1      25.290 -17.152  -1.821  0.00  0.00     0.036 C 
BRANCH  22  23
ATOM     23  C   UNL d   1      24.056 -17.737  -1.240  0.00  0.00    -0.035 A 
ATOM     24  C   UNL d   1      23.239 -18.572  -2.000  0.00  0.00     0.013 A 
ATOM     25  C   UNL d   1      22.022 -19.061  -1.478  0.00  0.00     0.030 A 
ATOM     26  C   UNL d   1      21.611 -18.812  -0.156  0.00  0.00     0.030 A 
ATOM     27  C   UNL d   1      22.463 -17.992   0.601  0.00  0.00     0.030 A 
ATOM     28  C   UNL d   1      23.655 -17.460   0.072  0.00  0.00     0.013 A 
BRANCH  26  29
ATOM     29  N   UNL d   1      20.425 -19.377   0.376  0.00  0.00    -0.382 N 
BRANCH  29  30
ATOM     30  C   UNL d   1      19.301 -19.553  -0.567  0.00  0.00     0.118 C 
ATOM     31  C   UNL d   1      18.265 -20.622  -0.278  0.00  0.00     0.026 C 
ENDBRANCH  29  30
BRANCH  29  32
ATOM     32  C   UNL d   1      20.407 -19.513   1.852  0.00  0.00     0.118 C 
ATOM     33  C   UNL d   1      19.326 -20.363   2.493  0.00  0.00     0.026 C 
ENDBRANCH  29  32
ENDBRANCH  26  29
ENDBRANCH  22  23
ENDBRANCH   1  22
TORSDOF 9
ENDMDL
MODEL 2
REMARK VINA RESULT:    -7.867      5.541      8.547
REMARK INTER + INTRA:         -12.021
REMARK INTER:                 -10.552
REMARK INTRA:                  -1.469
REMARK CONF_INDEPENDENT:        2.685
REMARK UNBOUND:                -1.469
REMARK  9 active torsions:
REMARK  status: ('A' for Active; 'I' for Inactive)
REMARK    1  A    between atoms: C_2  and  N_3 
REMARK    2  A    between atoms: N_3  and  C_4 
REMARK    3  A    between atoms: N_3  and  C_6 
REMARK    4  A    between atoms: C_9  and  C_10 
REMARK    5  A    between atoms: C_10  and  C_11 
REMARK    6  A    between atoms: N_15  and  N_16 
REMARK       I    between atoms: N_16  and  C_17 
REMARK    7  A    between atoms: C_17  and  C_19 
REMARK    8  A    between atoms: C_22  and  O_23 
REMARK    9  A    between atoms: C_24  and  O_25 
ROOT
ATOM      1  C   UNL d   1      26.450 -15.796  -1.871  0.00  0.00     0.078 A 
ATOM      2  S   UNL d   1      25.666 -14.621  -2.829  0.00  0.00    -0.053 SA
ATOM      3  C   UNL d   1      26.860 -14.662  -4.114  0.00  0.00     0.168 A 
ATOM      4  S   UNL d   1      26.510 -13.603  -5.349  0.00  0.00    -0.050 SA
ATOM      5  N   UNL d   1      27.852 -15.593  -3.790  0.00  0.00    -0.198 N 
ATOM      6  C   UNL d   1      27.703 -16.253  -2.556  0.00  0.00     0.285 A 
ATOM      7  O   UNL d   1      28.474 -17.087  -2.087  0.00  0.00    -0.265 OA
ENDROOT
BRANCH   5   8
ATOM      8  N   UNL d   1      29.042 -15.952  -4.560  0.00  0.00    -0.255 N 
ATOM      9  C   UNL d   1      29.266 -15.606  -5.874  0.00  0.00     0.270 C 
ATOM     10  O   UNL d   1      28.500 -15.013  -6.631  0.00  0.00    -0.266 OA
ATOM     11  H   UNL d   1      29.751 -16.452  -4.017  0.00  0.00     0.191 HD
BRANCH   9  12
ATOM     12  C   UNL d   1      30.498 -15.990  -6.566  0.00  0.00     0.036 A 
ATOM     13  C   UNL d   1      31.192 -14.989  -7.271  0.00  0.00     0.020 A 
ATOM     14  C   UNL d   1      32.156 -15.330  -8.214  0.00  0.00     0.040 A 
ATOM     15  C   UNL d   1      32.472 -16.674  -8.398  0.00  0.00     0.099 A 
ATOM     16  C   UNL d   1      31.768 -17.682  -7.715  0.00  0.00     0.102 A 
ATOM     17  C   UNL d   1      30.771 -17.329  -6.800  0.00  0.00     0.056 A 
BRANCH  15  18
ATOM     18  O   UNL d   1      33.481 -17.017  -9.257  0.00  0.00    -0.358 OA
ATOM     19  H   UNL d   1      34.175 -16.339  -9.223  0.00  0.00     0.217 HD
ENDBRANCH  15  18
BRANCH  16  20
ATOM     20  O   UNL d   1      32.079 -18.983  -8.021  0.00  0.00    -0.353 OA
ATOM     21  C   UNL d   1      31.191 -19.968  -7.506  0.00  0.00     0.210 C 
ENDBRANCH  16  20
ENDBRANCH   9  12
ENDBRANCH   5   8
BRANCH   1  22
ATOM     22  C   UNL d   1      25.980 -16.199  -0.680  0.00  0.00     0.036 C 
BRANCH  22  23
ATOM     23  C   UNL d   1      24.721 -16.962  -0.489  0.00  0.00    -0.035 A 
ATOM     24  C   UNL d   1      23.486 -16.317  -0.527  0.00  0.00     0.013 A 
ATOM     25  C   UNL d   1      22.294 -17.025  -0.261  0.00  0.00     0.030 A 
ATOM     26  C   UNL d   1      22.272 -18.413  -0.033  0.00  0.00     0.030 A 
ATOM     27  C   UNL d   1      23.524 -19.047  -0.027  0.00  0.00     0.030 A 
ATOM     28  C   UNL d   1      24.723 -18.339  -0.243  0.00  0.00     0.013 A 
BRANCH  26  29
ATOM     29  N   UNL d   1      21.058 -19.120   0.153  0.00  0.00    -0.382 N 
BRANCH  29  30
ATOM     30  C   UNL d   1      20.250 -19.370  -1.060  0.00  0.00     0.118 C 
ATOM     31  C   UNL d   1      18.780 -19.704  -0.903  0.00  0.00     0.026 C 
ENDBRANCH  29  30
BRANCH  29  32
ATOM     32  C   UNL d   1      20.665 -19.322   1.567  0.00  0.00     0.118 C 
ATOM     33  C   UNL d   1      19.705 -20.448   1.905  0.00  0.00     0.026 C 
ENDBRANCH  29  32
ENDBRANCH  26  29
ENDBRANCH  22  23
ENDBRANCH   1  22
TORSDOF 9
ENDMDL
MODEL 3
REMARK VINA RESULT:    -7.840      5.204      7.884
REMARK INTER + INTRA:         -12.626
REMARK INTER:                 -10.525
REMARK INTRA:                  -2.101
REMARK CONF_INDEPENDENT:        2.685
REMARK UNBOUND:                -2.101
REMARK  9 active torsions:
REMARK  status: ('A' for Active; 'I' for Inactive)
REMARK    1  A    between atoms: C_2  and  N_3 
REMARK    2  A    between atoms: N_3  and  C_4 
REMARK    3  A    between atoms: N_3  and  C_6 
REMARK    4  A    between atoms: C_9  and  C_10 
REMARK    5  A    between atoms: C_10  and  C_11 
REMARK    6  A    between atoms: N_15  and  N_16 
REMARK       I    between atoms: N_16  and  C_17 
REMARK    7  A    between atoms: C_17  and  C_19 
REMARK    8  A    between atoms: C_22  and  O_23 
REMARK    9  A    between atoms: C_24  and  O_25 
ROOT
ATOM      1  C   UNL d   1      26.023 -15.161  -1.674  0.00  0.00     0.078 A 
ATOM      2  S   UNL d   1      26.917 -14.226  -0.560  0.00  0.00    -0.053 SA
ATOM      3  C   UNL d   1      26.710 -12.721  -1.436  0.00  0.00     0.168 A 
ATOM      4  S   UNL d   1      27.469 -11.439  -0.695  0.00  0.00    -0.050 SA
ATOM      5  N   UNL d   1      25.944 -12.957  -2.582  0.00  0.00    -0.198 N 
ATOM      6  C   UNL d   1      25.536 -14.287  -2.791  0.00  0.00     0.285 A 
ATOM      7  O   UNL d   1      24.877 -14.697  -3.743  0.00  0.00    -0.265 OA
ENDROOT
BRANCH   5   8
ATOM      8  N   UNL d   1      25.531 -11.999  -3.606  0.00  0.00    -0.255 N 
ATOM      9  C   UNL d   1      26.251 -10.887  -3.984  0.00  0.00     0.270 C 
ATOM     10  O   UNL d   1      27.301 -10.476  -3.496  0.00  0.00    -0.266 OA
ATOM     11  H   UNL d   1      24.660 -12.251  -4.082  0.00  0.00     0.191 HD
BRANCH   9  12
ATOM     12  C   UNL d   1      25.772  -9.989  -5.037  0.00  0.00     0.036 A 
ATOM     13  C   UNL d   1      26.563  -9.857  -6.194  0.00  0.00     0.020 A 
ATOM     14  C   UNL d   1      26.363  -8.793  -7.067  0.00  0.00     0.040 A 
ATOM     15  C   UNL d   1      25.322  -7.902  -6.815  0.00  0.00     0.099 A 
ATOM     16  C   UNL d   1      24.542  -8.012  -5.650  0.00  0.00     0.102 A 
ATOM     17  C   UNL d   1      24.780  -9.062  -4.757  0.00  0.00     0.056 A 
BRANCH  15  18
ATOM     18  O   UNL d   1      25.059  -6.903  -7.714  0.00  0.00    -0.358 OA
ATOM     19  H   UNL d   1      24.535  -6.211  -7.279  0.00  0.00     0.217 HD
ENDBRANCH  15  18
BRANCH  16  20
ATOM     20  O   UNL d   1      23.598  -7.041  -5.432  0.00  0.00    -0.353 OA
ATOM     21  C   UNL d   1      24.094  -5.795  -4.956  0.00  0.00     0.210 C 
ENDBRANCH  16  20
ENDBRANCH   9  12
ENDBRANCH   5   8
BRANCH   1  22
ATOM     22  C   UNL d   1      25.833 -16.482  -1.532  0.00  0.00     0.036 C 
BRANCH  22  23
ATOM     23  C   UNL d   1      24.571 -17.102  -1.057  0.00  0.00    -0.035 A 
ATOM     24  C   UNL d   1      24.560 -18.407  -0.566  0.00  0.00     0.013 A 
ATOM     25  C   UNL d   1      23.348 -19.027  -0.192  0.00  0.00     0.030 A 
ATOM     26  C   UNL d   1      22.114 -18.351  -0.210  0.00  0.00     0.030 A 
ATOM     27  C   UNL d   1      22.153 -17.030  -0.681  0.00  0.00     0.030 A 
ATOM     28  C   UNL d   1      23.350 -16.419  -1.102  0.00  0.00     0.013 A 
BRANCH  26  29
ATOM     29  N   UNL d   1      20.920 -18.965   0.244  0.00  0.00    -0.382 N 
BRANCH  29  30
ATOM     30  C   UNL d   1      19.935 -19.334  -0.795  0.00  0.00     0.118 C 
ATOM     31  C   UNL d   1      18.768 -20.222  -0.413  0.00  0.00     0.026 C 
ENDBRANCH  29  30
BRANCH  29  32
ATOM     32  C   UNL d   1      20.734 -18.956   1.714  0.00  0.00     0.118 C 
ATOM     33  C   UNL d   1      19.951 -20.085   2.358  0.00  0.00     0.026 C 
ENDBRANCH  29  32
ENDBRANCH  26  29
ENDBRANCH  22  23
ENDBRANCH   1  22
TORSDOF 9
ENDMDL
MODEL 4
REMARK VINA RESULT:    -7.695      5.531      8.323
REMARK INTER + INTRA:         -12.436
REMARK INTER:                 -10.380
REMARK INTRA:                  -2.056
REMARK CONF_INDEPENDENT:        2.685
REMARK UNBOUND:                -2.056
REMARK  9 active torsions:
REMARK  status: ('A' for Active; 'I' for Inactive)
REMARK    1  A    between atoms: C_2  and  N_3 
REMARK    2  A    between atoms: N_3  and  C_4 
REMARK    3  A    between atoms: N_3  and  C_6 
REMARK    4  A    between atoms: C_9  and  C_10 
REMARK    5  A    between atoms: C_10  and  C_11 
REMARK    6  A    between atoms: N_15  and  N_16 
REMARK       I    between atoms: N_16  and  C_17 
REMARK    7  A    between atoms: C_17  and  C_19 
REMARK    8  A    between atoms: C_22  and  O_23 
REMARK    9  A    between atoms: C_24  and  O_25 
ROOT
ATOM      1  C   UNL d   1      26.428 -15.679  -1.880  0.00  0.00     0.078 A 
ATOM      2  S   UNL d   1      25.524 -14.436  -2.623  0.00  0.00    -0.053 SA
ATOM      3  C   UNL d   1      26.642 -14.224  -3.958  0.00  0.00     0.168 A 
ATOM      4  S   UNL d   1      26.162 -13.030  -5.012  0.00  0.00    -0.050 SA
ATOM      5  N   UNL d   1      27.703 -15.126  -3.818  0.00  0.00    -0.198 N 
ATOM      6  C   UNL d   1      27.663 -15.957  -2.683  0.00  0.00     0.285 A 
ATOM      7  O   UNL d   1      28.506 -16.796  -2.375  0.00  0.00    -0.265 OA
ENDROOT
BRANCH   5   8
ATOM      8  N   UNL d   1      28.864 -15.297  -4.689  0.00  0.00    -0.255 N 
ATOM      9  C   UNL d   1      28.828 -15.285  -6.065  0.00  0.00     0.270 C 
ATOM     10  O   UNL d   1      27.836 -15.199  -6.785  0.00  0.00    -0.266 OA
ATOM     11  H   UNL d   1      29.752 -15.377  -4.184  0.00  0.00     0.191 HD
BRANCH   9  12
ATOM     12  C   UNL d   1      30.046 -15.445  -6.863  0.00  0.00     0.036 A 
ATOM     13  C   UNL d   1      30.660 -16.712  -6.872  0.00  0.00     0.020 A 
ATOM     14  C   UNL d   1      31.971 -16.857  -7.312  0.00  0.00     0.040 A 
ATOM     15  C   UNL d   1      32.642 -15.741  -7.807  0.00  0.00     0.099 A 
ATOM     16  C   UNL d   1      32.046 -14.467  -7.779  0.00  0.00     0.102 A 
ATOM     17  C   UNL d   1      30.741 -14.327  -7.296  0.00  0.00     0.056 A 
BRANCH  15  18
ATOM     18  O   UNL d   1      33.901 -15.887  -8.325  0.00  0.00    -0.358 OA
ATOM     19  H   UNL d   1      34.195 -15.039  -8.695  0.00  0.00     0.217 HD
ENDBRANCH  15  18
BRANCH  16  20
ATOM     20  O   UNL d   1      32.808 -13.407  -8.201  0.00  0.00    -0.353 OA
ATOM     21  C   UNL d   1      32.092 -12.220  -8.521  0.00  0.00     0.210 C 
ENDBRANCH  16  20
ENDBRANCH   9  12
ENDBRANCH   5   8
BRANCH   1  22
ATOM     22  C   UNL d   1      26.051 -16.272  -0.735  0.00  0.00     0.036 C 
BRANCH  22  23
ATOM     23  C   UNL d   1      24.759 -16.975  -0.540  0.00  0.00    -0.035 A 
ATOM     24  C   UNL d   1      23.553 -16.280  -0.615  0.00  0.00     0.013 A 
ATOM     25  C   UNL d   1      22.328 -16.928  -0.346  0.00  0.00     0.030 A 
ATOM     26  C   UNL d   1      22.244 -18.307  -0.077  0.00  0.00     0.030 A 
ATOM     27  C   UNL d   1      23.468 -18.992  -0.034  0.00  0.00     0.030 A 
ATOM     28  C   UNL d   1      24.699 -18.343  -0.253  0.00  0.00     0.013 A 
BRANCH  26  29
ATOM     29  N   UNL d   1      20.999 -18.956   0.113  0.00  0.00    -0.382 N 
BRANCH  29  30
ATOM     30  C   UNL d   1      20.656 -19.328   1.502  0.00  0.00     0.118 C 
ATOM     31  C   UNL d   1      19.573 -20.363   1.736  0.00  0.00     0.026 C 
ENDBRANCH  29  30
BRANCH  29  32
ATOM     32  C   UNL d   1      20.312 -19.363  -1.136  0.00  0.00     0.118 C 
ATOM     33  C   UNL d   1      18.834 -19.700  -1.079  0.00  0.00     0.026 C 
ENDBRANCH  29  32
ENDBRANCH  26  29
ENDBRANCH  22  23
ENDBRANCH   1  22
TORSDOF 9
ENDMDL
MODEL 5
REMARK VINA RESULT:    -7.351      6.457      9.803
REMARK INTER + INTRA:         -12.077
REMARK INTER:                 -10.036
REMARK INTRA:                  -2.041
REMARK CONF_INDEPENDENT:        2.685
REMARK UNBOUND:                -2.041
REMARK  9 active torsions:
REMARK  status: ('A' for Active; 'I' for Inactive)
REMARK    1  A    between atoms: C_2  and  N_3 
REMARK    2  A    between atoms: N_3  and  C_4 
REMARK    3  A    between atoms: N_3  and  C_6 
REMARK    4  A    between atoms: C_9  and  C_10 
REMARK    5  A    between atoms: C_10  and  C_11 
REMARK    6  A    between atoms: N_15  and  N_16 
REMARK       I    between atoms: N_16  and  C_17 
REMARK    7  A    between atoms: C_17  and  C_19 
REMARK    8  A    between atoms: C_22  and  O_23 
REMARK    9  A    between atoms: C_24  and  O_25 
ROOT
ATOM      1  C   UNL d   1      26.935 -13.242  -5.103  0.00  0.00     0.078 A 
ATOM      2  S   UNL d   1      27.694 -11.771  -5.521  0.00  0.00    -0.053 SA
ATOM      3  C   UNL d   1      28.987 -12.530  -6.431  0.00  0.00     0.168 A 
ATOM      4  S   UNL d   1      30.059 -11.425  -7.063  0.00  0.00    -0.050 SA
ATOM      5  N   UNL d   1      28.814 -13.918  -6.408  0.00  0.00    -0.198 N 
ATOM      6  C   UNL d   1      27.707 -14.391  -5.681  0.00  0.00     0.285 A 
ATOM      7  O   UNL d   1      27.396 -15.570  -5.527  0.00  0.00    -0.265 OA
ENDROOT
BRANCH   5   8
ATOM      8  N   UNL d   1      29.653 -14.944  -7.025  0.00  0.00    -0.255 N 
ATOM      9  C   UNL d   1      30.357 -15.907  -6.337  0.00  0.00     0.270 C 
ATOM     10  O   UNL d   1      30.459 -16.030  -5.118  0.00  0.00    -0.266 OA
ATOM     11  H   UNL d   1      29.637 -14.931  -8.048  0.00  0.00     0.191 HD
BRANCH   9  12
ATOM     12  C   UNL d   1      31.159 -16.912  -7.037  0.00  0.00     0.036 A 
ATOM     13  C   UNL d   1      32.085 -16.458  -7.996  0.00  0.00     0.020 A 
ATOM     14  C   UNL d   1      32.626 -17.339  -8.926  0.00  0.00     0.040 A 
ATOM     15  C   UNL d   1      32.290 -18.689  -8.850  0.00  0.00     0.099 A 
ATOM     16  C   UNL d   1      31.347 -19.147  -7.911  0.00  0.00     0.102 A 
ATOM     17  C   UNL d   1      30.778 -18.245  -7.007  0.00  0.00     0.056 A 
BRANCH  15  18
ATOM     18  O   UNL d   1      32.883 -19.580  -9.703  0.00  0.00    -0.358 OA
ATOM     19  H   UNL d   1      32.433 -20.438  -9.634  0.00  0.00     0.217 HD
ENDBRANCH  15  18
BRANCH  16  20
ATOM     20  O   UNL d   1      31.004 -20.475  -7.963  0.00  0.00    -0.353 OA
ATOM     21  C   UNL d   1      31.553 -21.294  -6.937  0.00  0.00     0.210 C 
ENDBRANCH  16  20
ENDBRANCH   9  12
ENDBRANCH   5   8
BRANCH   1  22
ATOM     22  C   UNL d   1      25.825 -13.304  -4.350  0.00  0.00     0.036 C 
BRANCH  22  23
ATOM     23  C   UNL d   1      25.558 -14.352  -3.334  0.00  0.00    -0.035 A 
ATOM     24  C   UNL d   1      26.581 -15.188  -2.888  0.00  0.00     0.013 A 
ATOM     25  C   UNL d   1      26.311 -16.240  -1.986  0.00  0.00     0.030 A 
ATOM     26  C   UNL d   1      25.038 -16.450  -1.426  0.00  0.00     0.030 A 
ATOM     27  C   UNL d   1      24.029 -15.579  -1.867  0.00  0.00     0.030 A 
ATOM     28  C   UNL d   1      24.279 -14.557  -2.804  0.00  0.00     0.013 A 
BRANCH  26  29
ATOM     29  N   UNL d   1      24.804 -17.461  -0.461  0.00  0.00    -0.382 N 
BRANCH  29  30
ATOM     30  C   UNL d   1      25.973 -18.275  -0.066  0.00  0.00     0.118 C 
ATOM     31  C   UNL d   1      27.027 -17.655   0.829  0.00  0.00     0.026 C 
ENDBRANCH  29  30
BRANCH  29  32
ATOM     32  C   UNL d   1      23.377 -17.701  -0.143  0.00  0.00     0.118 C 
ATOM     33  C   UNL d   1      22.708 -18.951  -0.684  0.00  0.00     0.026 C 
ENDBRANCH  29  32
ENDBRANCH  26  29
ENDBRANCH  22  23
ENDBRANCH   1  22
TORSDOF 9
ENDMDL
MODEL 6
REMARK VINA RESULT:    -7.268      6.534      9.831
REMARK INTER + INTRA:         -12.069
REMARK INTER:                  -9.953
REMARK INTRA:                  -2.116
REMARK CONF_INDEPENDENT:        2.685
REMARK UNBOUND:                -2.116
REMARK  9 active torsions:
REMARK  status: ('A' for Active; 'I' for Inactive)
REMARK    1  A    between atoms: C_2  and  N_3 
REMARK    2  A    between atoms: N_3  and  C_4 
REMARK    3  A    between atoms: N_3  and  C_6 
REMARK    4  A    between atoms: C_9  and  C_10 
REMARK    5  A    between atoms: C_10  and  C_11 
REMARK    6  A    between atoms: N_15  and  N_16 
REMARK       I    between atoms: N_16  and  C_17 
REMARK    7  A    between atoms: C_17  and  C_19 
REMARK    8  A    between atoms: C_22  and  O_23 
REMARK    9  A    between atoms: C_24  and  O_25 
ROOT
ATOM      1  C   UNL d   1      26.774 -13.251  -5.164  0.00  0.00     0.078 A 
ATOM      2  S   UNL d   1      27.416 -11.769  -5.719  0.00  0.00    -0.053 SA
ATOM      3  C   UNL d   1      28.696 -12.512  -6.661  0.00  0.00     0.168 A 
ATOM      4  S   UNL d   1      29.660 -11.392  -7.427  0.00  0.00    -0.050 SA
ATOM      5  N   UNL d   1      28.608 -13.903  -6.541  0.00  0.00    -0.198 N 
ATOM      6  C   UNL d   1      27.577 -14.390  -5.717  0.00  0.00     0.285 A 
ATOM      7  O   UNL d   1      27.348 -15.571  -5.471  0.00  0.00    -0.265 OA
ENDROOT
BRANCH   5   8
ATOM      8  N   UNL d   1      29.469 -14.918  -7.145  0.00  0.00    -0.255 N 
ATOM      9  C   UNL d   1      30.414 -15.657  -6.468  0.00  0.00     0.270 C 
ATOM     10  O   UNL d   1      30.741 -15.550  -5.288  0.00  0.00    -0.266 OA
ATOM     11  H   UNL d   1      29.276 -15.088  -8.136  0.00  0.00     0.191 HD
BRANCH   9  12
ATOM     12  C   UNL d   1      31.222 -16.671  -7.149  0.00  0.00     0.036 A 
ATOM     13  C   UNL d   1      32.240 -16.224  -8.014  0.00  0.00     0.020 A 
ATOM     14  C   UNL d   1      32.811 -17.092  -8.938  0.00  0.00     0.040 A 
ATOM     15  C   UNL d   1      32.409 -18.426  -8.947  0.00  0.00     0.099 A 
ATOM     16  C   UNL d   1      31.376 -18.876  -8.103  0.00  0.00     0.102 A 
ATOM     17  C   UNL d   1      30.780 -17.983  -7.206  0.00  0.00     0.056 A 
BRANCH  15  18
ATOM     18  O   UNL d   1      33.025 -19.310  -9.791  0.00  0.00    -0.358 OA
ATOM     19  H   UNL d   1      32.640 -20.193  -9.667  0.00  0.00     0.217 HD
ENDBRANCH  15  18
BRANCH  16  20
ATOM     20  O   UNL d   1      30.979 -20.182  -8.239  0.00  0.00    -0.353 OA
ATOM     21  C   UNL d   1      31.450 -21.077  -7.238  0.00  0.00     0.210 C 
ENDBRANCH  16  20
ENDBRANCH   9  12
ENDBRANCH   5   8
BRANCH   1  22
ATOM     22  C   UNL d   1      25.717 -13.325  -4.339  0.00  0.00     0.036 C 
BRANCH  22  23
ATOM     23  C   UNL d   1      25.551 -14.349  -3.278  0.00  0.00    -0.035 A 
ATOM     24  C   UNL d   1      26.655 -15.029  -2.767  0.00  0.00     0.013 A 
ATOM     25  C   UNL d   1      26.491 -16.063  -1.819  0.00  0.00     0.030 A 
ATOM     26  C   UNL d   1      25.237 -16.403  -1.280  0.00  0.00     0.030 A 
ATOM     27  C   UNL d   1      24.142 -15.687  -1.789  0.00  0.00     0.030 A 
ATOM     28  C   UNL d   1      24.291 -14.688  -2.770  0.00  0.00     0.013 A 
BRANCH  26  29
ATOM     29  N   UNL d   1      25.101 -17.390  -0.271  0.00  0.00    -0.382 N 
BRANCH  29  30
ATOM     30  C   UNL d   1      23.751 -17.964  -0.090  0.00  0.00     0.118 C 
ATOM     31  C   UNL d   1      23.201 -18.889  -1.157  0.00  0.00     0.026 C 
ENDBRANCH  29  30
BRANCH  29  32
ATOM     32  C   UNL d   1      26.285 -17.552   0.605  0.00  0.00     0.118 C 
ATOM     33  C   UNL d   1      27.029 -18.875   0.589  0.00  0.00     0.026 C 
ENDBRANCH  29  32
ENDBRANCH  26  29
ENDBRANCH  22  23
ENDBRANCH   1  22
TORSDOF 9
ENDMDL
MODEL 7
REMARK VINA RESULT:    -7.212      6.585      9.666
REMARK INTER + INTRA:         -11.897
REMARK INTER:                  -9.897
REMARK INTRA:                  -2.000
REMARK CONF_INDEPENDENT:        2.685
REMARK UNBOUND:                -2.000
REMARK  9 active torsions:
REMARK  status: ('A' for Active; 'I' for Inactive)
REMARK    1  A    between atoms: C_2  and  N_3 
REMARK    2  A    between atoms: N_3  and  C_4 
REMARK    3  A    between atoms: N_3  and  C_6 
REMARK    4  A    between atoms: C_9  and  C_10 
REMARK    5  A    between atoms: C_10  and  C_11 
REMARK    6  A    between atoms: N_15  and  N_16 
REMARK       I    between atoms: N_16  and  C_17 
REMARK    7  A    between atoms: C_17  and  C_19 
REMARK    8  A    between atoms: C_22  and  O_23 
REMARK    9  A    between atoms: C_24  and  O_25 
ROOT
ATOM      1  C   UNL d   1      26.549 -13.336  -4.833  0.00  0.00     0.078 A 
ATOM      2  S   UNL d   1      27.301 -11.817  -5.031  0.00  0.00    -0.053 SA
ATOM      3  C   UNL d   1      28.596 -12.429  -6.044  0.00  0.00     0.168 A 
ATOM      4  S   UNL d   1      29.664 -11.239  -6.507  0.00  0.00    -0.050 SA
ATOM      5  N   UNL d   1      28.428 -13.806  -6.224  0.00  0.00    -0.198 N 
ATOM      6  C   UNL d   1      27.324 -14.385  -5.573  0.00  0.00     0.285 A 
ATOM      7  O   UNL d   1      27.018 -15.575  -5.594  0.00  0.00    -0.265 OA
ENDROOT
BRANCH   5   8
ATOM      8  N   UNL d   1      29.270 -14.727  -6.985  0.00  0.00    -0.255 N 
ATOM      9  C   UNL d   1      30.082 -15.693  -6.434  0.00  0.00     0.270 C 
ATOM     10  O   UNL d   1      30.291 -15.902  -5.241  0.00  0.00    -0.266 OA
ATOM     11  H   UNL d   1      29.170 -14.637  -8.000  0.00  0.00     0.191 HD
BRANCH   9  12
ATOM     12  C   UNL d   1      30.880 -16.590  -7.274  0.00  0.00     0.036 A 
ATOM     13  C   UNL d   1      30.740 -17.976  -7.068  0.00  0.00     0.020 A 
ATOM     14  C   UNL d   1      31.687 -18.862  -7.569  0.00  0.00     0.040 A 
ATOM     15  C   UNL d   1      32.737 -18.363  -8.336  0.00  0.00     0.099 A 
ATOM     16  C   UNL d   1      32.898 -16.978  -8.527  0.00  0.00     0.102 A 
ATOM     17  C   UNL d   1      31.962 -16.093  -7.983  0.00  0.00     0.056 A 
BRANCH  15  18
ATOM     18  O   UNL d   1      33.625 -19.233  -8.908  0.00  0.00    -0.358 OA
ATOM     19  H   UNL d   1      34.169 -18.755  -9.556  0.00  0.00     0.217 HD
ENDBRANCH  15  18
BRANCH  16  20
ATOM     20  O   UNL d   1      34.009 -16.565  -9.218  0.00  0.00    -0.353 OA
ATOM     21  C   UNL d   1      34.069 -15.175  -9.516  0.00  0.00     0.210 C 
ENDBRANCH  16  20
ENDBRANCH   9  12
ENDBRANCH   5   8
BRANCH   1  22
ATOM     22  C   UNL d   1      25.440 -13.512  -4.096  0.00  0.00     0.036 C 
BRANCH  22  23
ATOM     23  C   UNL d   1      25.235 -14.631  -3.142  0.00  0.00    -0.035 A 
ATOM     24  C   UNL d   1      26.256 -15.545  -2.888  0.00  0.00     0.013 A 
ATOM     25  C   UNL d   1      26.036 -16.657  -2.047  0.00  0.00     0.030 A 
ATOM     26  C   UNL d   1      24.825 -16.859  -1.360  0.00  0.00     0.030 A 
ATOM     27  C   UNL d   1      23.820 -15.912  -1.610  0.00  0.00     0.030 A 
ATOM     28  C   UNL d   1      24.015 -14.826  -2.485  0.00  0.00     0.013 A 
BRANCH  26  29
ATOM     29  N   UNL d   1      24.649 -17.938  -0.458  0.00  0.00    -0.382 N 
BRANCH  29  30
ATOM     30  C   UNL d   1      25.666 -18.079   0.605  0.00  0.00     0.118 C 
ATOM     31  C   UNL d   1      27.052 -18.566   0.231  0.00  0.00     0.026 C 
ENDBRANCH  29  30
BRANCH  29  32
ATOM     32  C   UNL d   1      23.588 -18.901  -0.838  0.00  0.00     0.118 C 
ATOM     33  C   UNL d   1      22.244 -18.821  -0.136  0.00  0.00     0.026 C 
ENDBRANCH  29  32
ENDBRANCH  26  29
ENDBRANCH  22  23
ENDBRANCH   1  22
TORSDOF 9
ENDMDL
MODEL 8
REMARK VINA RESULT:    -7.155      5.314      7.117
REMARK INTER + INTRA:         -11.964
REMARK INTER:                  -9.839
REMARK INTRA:                  -2.125
REMARK CONF_INDEPENDENT:        2.685
REMARK UNBOUND:                -2.125
REMARK  9 active torsions:
REMARK  status: ('A' for Active; 'I' for Inactive)
REMARK    1  A    between atoms: C_2  and  N_3 
REMARK    2  A    between atoms: N_3  and  C_4 
REMARK    3  A    between atoms: N_3  and  C_6 
REMARK    4  A    between atoms: C_9  and  C_10 
REMARK    5  A    between atoms: C_10  and  C_11 
REMARK    6  A    between atoms: N_15  and  N_16 
REMARK       I    between atoms: N_16  and  C_17 
REMARK    7  A    between atoms: C_17  and  C_19 
REMARK    8  A    between atoms: C_22  and  O_23 
REMARK    9  A    between atoms: C_24  and  O_25 
ROOT
ATOM      1  C   UNL d   1      26.084 -11.859  -4.892  0.00  0.00     0.078 A 
ATOM      2  S   UNL d   1      25.883 -10.847  -6.252  0.00  0.00    -0.053 SA
ATOM      3  C   UNL d   1      25.493  -9.418  -5.312  0.00  0.00     0.168 A 
ATOM      4  S   UNL d   1      25.183  -8.089  -6.265  0.00  0.00    -0.050 SA
ATOM      5  N   UNL d   1      25.530  -9.739  -3.951  0.00  0.00    -0.198 N 
ATOM      6  C   UNL d   1      25.836 -11.076  -3.638  0.00  0.00     0.285 A 
ATOM      7  O   UNL d   1      25.898 -11.555  -2.509  0.00  0.00    -0.265 OA
ENDROOT
BRANCH   5   8
ATOM      8  N   UNL d   1      25.264  -8.865  -2.810  0.00  0.00    -0.255 N 
ATOM      9  C   UNL d   1      26.098  -8.707  -1.725  0.00  0.00     0.270 C 
ATOM     10  O   UNL d   1      27.148  -9.304  -1.497  0.00  0.00    -0.266 OA
ATOM     11  H   UNL d   1      24.406  -8.315  -2.900  0.00  0.00     0.191 HD
BRANCH   9  12
ATOM     12  C   UNL d   1      25.764  -7.792  -0.631  0.00  0.00     0.036 A 
ATOM     13  C   UNL d   1      25.372  -6.483  -0.970  0.00  0.00     0.020 A 
ATOM     14  C   UNL d   1      25.370  -5.477  -0.010  0.00  0.00     0.040 A 
ATOM     15  C   UNL d   1      25.695  -5.801   1.306  0.00  0.00     0.099 A 
ATOM     16  C   UNL d   1      26.110  -7.101   1.648  0.00  0.00     0.102 A 
ATOM     17  C   UNL d   1      26.149  -8.095   0.665  0.00  0.00     0.056 A 
BRANCH  15  18
ATOM     18  O   UNL d   1      25.611  -4.840   2.276  0.00  0.00    -0.358 OA
ATOM     19  H   UNL d   1      25.803  -5.240   3.140  0.00  0.00     0.217 HD
ENDBRANCH  15  18
BRANCH  16  20
ATOM     20  O   UNL d   1      26.500  -7.314   2.947  0.00  0.00    -0.353 OA
ATOM     21  C   UNL d   1      27.062  -8.592   3.220  0.00  0.00     0.210 C 
ENDBRANCH  16  20
ENDBRANCH   9  12
ENDBRANCH   5   8
BRANCH   1  22
ATOM     22  C   UNL d   1      26.398 -13.161  -4.990  0.00  0.00     0.036 C 
BRANCH  22  23
ATOM     23  C   UNL d   1      26.099 -14.177  -3.951  0.00  0.00    -0.035 A 
ATOM     24  C   UNL d   1      24.808 -14.316  -3.443  0.00  0.00     0.013 A 
ATOM     25  C   UNL d   1      24.538 -15.223  -2.396  0.00  0.00     0.030 A 
ATOM     26  C   UNL d   1      25.518 -16.086  -1.870  0.00  0.00     0.030 A 
ATOM     27  C   UNL d   1      26.804 -15.948  -2.415  0.00  0.00     0.030 A 
ATOM     28  C   UNL d   1      27.092 -15.012  -3.427  0.00  0.00     0.013 A 
BRANCH  26  29
ATOM     29  N   UNL d   1      25.210 -17.045  -0.873  0.00  0.00    -0.382 N 
BRANCH  29  30
ATOM     30  C   UNL d   1      26.194 -17.196   0.219  0.00  0.00     0.118 C 
ATOM     31  C   UNL d   1      26.733 -18.578   0.532  0.00  0.00     0.026 C 
ENDBRANCH  29  30
BRANCH  29  32
ATOM     32  C   UNL d   1      24.049 -17.912  -1.180  0.00  0.00     0.118 C 
ATOM     33  C   UNL d   1      22.736 -17.656  -0.463  0.00  0.00     0.026 C 
ENDBRANCH  29  32
ENDBRANCH  26  29
ENDBRANCH  22  23
ENDBRANCH   1  22
TORSDOF 9
ENDMDL
MODEL 9
REMARK VINA RESULT:    -6.788      5.249      9.901
REMARK INTER + INTRA:         -11.556
REMARK INTER:                  -9.472
REMARK INTRA:                  -2.084
REMARK CONF_INDEPENDENT:        2.685
REMARK UNBOUND:                -2.084
REMARK  9 active torsions:
REMARK  status: ('A' for Active; 'I' for Inactive)
REMARK    1  A    between atoms: C_2  and  N_3 
REMARK    2  A    between atoms: N_3  and  C_4 
REMARK    3  A    between atoms: N_3  and  C_6 
REMARK    4  A    between atoms: C_9  and  C_10 
REMARK    5  A    between atoms: C_10  and  C_11 
REMARK    6  A    between atoms: N_15  and  N_16 
REMARK       I    between atoms: N_16  and  C_17 
REMARK    7  A    between atoms: C_17  and  C_19 
REMARK    8  A    between atoms: C_22  and  O_23 
REMARK    9  A    between atoms: C_24  and  O_25 
ROOT
ATOM      1  C   UNL d   1      24.891 -15.568  -1.270  0.00  0.00     0.078 A 
ATOM      2  S   UNL d   1      26.233 -16.297  -0.508  0.00  0.00    -0.053 SA
ATOM      3  C   UNL d   1      25.292 -17.557   0.268  0.00  0.00     0.168 A 
ATOM      4  S   UNL d   1      26.226 -18.575   1.196  0.00  0.00    -0.050 SA
ATOM      5  N   UNL d   1      23.945 -17.405  -0.078  0.00  0.00    -0.198 N 
ATOM      6  C   UNL d   1      23.640 -16.317  -0.916  0.00  0.00     0.285 A 
ATOM      7  O   UNL d   1      22.521 -16.006  -1.314  0.00  0.00    -0.265 OA
ENDROOT
BRANCH   5   8
ATOM      8  N   UNL d   1      22.807 -18.219   0.343  0.00  0.00    -0.255 N 
ATOM      9  C   UNL d   1      21.924 -18.843  -0.510  0.00  0.00     0.270 C 
ATOM     10  O   UNL d   1      21.894 -18.773  -1.737  0.00  0.00    -0.266 OA
ATOM     11  H   UNL d   1      22.739 -18.344   1.357  0.00  0.00     0.191 HD
BRANCH   9  12
ATOM     12  C   UNL d   1      20.819 -19.660  -0.003  0.00  0.00     0.036 A 
ATOM     13  C   UNL d   1      19.786 -19.993  -0.900  0.00  0.00     0.020 A 
ATOM     14  C   UNL d   1      18.565 -20.459  -0.426  0.00  0.00     0.040 A 
ATOM     15  C   UNL d   1      18.404 -20.657   0.943  0.00  0.00     0.099 A 
ATOM     16  C   UNL d   1      19.422 -20.305   1.849  0.00  0.00     0.102 A 
ATOM     17  C   UNL d   1      20.631 -19.797   1.364  0.00  0.00     0.056 A 
BRANCH  15  18
ATOM     18  O   UNL d   1      17.239 -21.200   1.413  0.00  0.00    -0.358 OA
ATOM     19  H   UNL d   1      17.218 -21.125   2.381  0.00  0.00     0.217 HD
ENDBRANCH  15  18
BRANCH  16  20
ATOM     20  O   UNL d   1      19.149 -20.446   3.186  0.00  0.00    -0.353 OA
ATOM     21  C   UNL d   1      20.280 -20.450   4.049  0.00  0.00     0.210 C 
ENDBRANCH  16  20
ENDBRANCH   9  12
ENDBRANCH   5   8
BRANCH   1  22
ATOM     22  C   UNL d   1      24.994 -14.477  -2.045  0.00  0.00     0.036 C 
BRANCH  22  23
ATOM     23  C   UNL d   1      25.968 -14.324  -3.155  0.00  0.00    -0.035 A 
ATOM     24  C   UNL d   1      26.082 -15.303  -4.141  0.00  0.00     0.013 A 
ATOM     25  C   UNL d   1      27.065 -15.201  -5.149  0.00  0.00     0.030 A 
ATOM     26  C   UNL d   1      27.915 -14.085  -5.267  0.00  0.00     0.030 A 
ATOM     27  C   UNL d   1      27.764 -13.099  -4.280  0.00  0.00     0.030 A 
ATOM     28  C   UNL d   1      26.818 -13.216  -3.243  0.00  0.00     0.013 A 
BRANCH  26  29
ATOM     29  N   UNL d   1      28.842 -13.964  -6.332  0.00  0.00    -0.382 N 
BRANCH  29  30
ATOM     30  C   UNL d   1      29.018 -12.610  -6.899  0.00  0.00     0.118 C 
ATOM     31  C   UNL d   1      27.789 -11.818  -7.297  0.00  0.00     0.026 C 
ENDBRANCH  29  30
BRANCH  29  32
ATOM     32  C   UNL d   1      29.346 -15.249  -6.870  0.00  0.00     0.118 C 
ATOM     33  C   UNL d   1      30.835 -15.403  -7.118  0.00  0.00     0.026 C 
ENDBRANCH  29  32
ENDBRANCH  26  29
ENDBRANCH  22  23
ENDBRANCH   1  22
TORSDOF 9
ENDMDL
