MODEL 1
REMARK VINA RESULT:    -8.200      0.000      0.000
REMARK INTER + INTRA:          -9.867
REMARK INTER:                  -9.095
REMARK INTRA:                  -0.772
REMARK CONF_INDEPENDENT:        0.895
REMARK UNBOUND:                -0.772
REMARK  3 active torsions:
REMARK  status: ('A' for Active; 'I' for Inactive)
REMARK    1  A    between atoms: C_4  and  C_5 
REMARK       I    between atoms: C_5  and  N_7 
REMARK    2  A    between atoms: N_7  and  N_8 
REMARK       I    between atoms: N_8  and  C_9 
REMARK    3  A    between atoms: C_9  and  C_11 
ROOT
ATOM      1  N   UNL d   1      22.917 -18.696   0.219  0.00  0.00    -0.263 N 
ATOM      2  C   UNL d   1      23.646 -18.389  -0.927  0.00  0.00     0.277 C 
ATOM      3  O   UNL d   1      23.266 -18.799  -2.031  0.00  0.00    -0.265 OA
ATOM      4  H   UNL d   1      23.126 -18.295   1.131  0.00  0.00     0.190 HD
ENDROOT
BRANCH   1   5
ATOM      5  N   UNL d   1      21.731 -19.495   0.160  0.00  0.00    -0.264 N 
ATOM      6  C   UNL d   1      20.630 -18.954  -0.478  0.00  0.00     0.259 C 
ATOM      7  O   UNL d   1      20.687 -17.830  -0.976  0.00  0.00    -0.267 OA
ATOM      8  H   UNL d   1      21.770 -20.410   0.603  0.00  0.00     0.190 HD
BRANCH   6   9
ATOM      9  C   UNL d   1      19.385 -19.808  -0.521  0.00  0.00     0.077 C 
ATOM     10  C   UNL d   1      18.900 -20.486   0.550  0.00  0.00    -0.082 C 
ATOM     11  C   UNL d   1      17.647 -21.335   0.477  0.00  0.00     0.043 C 
ATOM     12  C   UNL d   1      19.569 -20.450   1.901  0.00  0.00     0.043 C 
ENDBRANCH   6   9
ENDBRANCH   1   5
BRANCH   2  13
ATOM     13  C   UNL d   1      24.864 -17.587  -0.728  0.00  0.00     0.080 A 
ATOM     14  S   UNL d   1      26.120 -18.193   0.285  0.00  0.00    -0.096 SA
ATOM     15  C   UNL d   1      27.084 -16.793   0.080  0.00  0.00     0.051 A 
ATOM     16  C   UNL d   1      26.461 -15.865  -0.718  0.00  0.00     0.015 A 
ATOM     17  C   UNL d   1      25.178 -16.311  -1.190  0.00  0.00    -0.039 A 
ATOM     18  C   UNL d   1      24.284 -15.458  -2.019  0.00  0.00     0.050 C 
ENDBRANCH   2  13
TORSDOF 3
ENDMDL
MODEL 2
REMARK VINA RESULT:    -7.832      1.328      1.829
REMARK INTER + INTRA:         -10.349
REMARK INTER:                  -8.727
REMARK INTRA:                  -1.622
REMARK CONF_INDEPENDENT:        0.895
REMARK UNBOUND:                -1.622
REMARK  3 active torsions:
REMARK  status: ('A' for Active; 'I' for Inactive)
REMARK    1  A    between atoms: C_4  and  C_5 
REMARK       I    between atoms: C_5  and  N_7 
REMARK    2  A    between atoms: N_7  and  N_8 
REMARK       I    between atoms: N_8  and  C_9 
REMARK    3  A    between atoms: C_9  and  C_11 
ROOT
ATOM      1  N   UNL d   1      22.800 -18.031  -0.578  0.00  0.00    -0.263 N 
ATOM      2  C   UNL d   1      24.176 -18.224  -0.486  0.00  0.00     0.277 C 
ATOM      3  O   UNL d   1      24.625 -19.325  -0.145  0.00  0.00    -0.265 OA
ATOM      4  H   UNL d   1      22.386 -17.181  -0.956  0.00  0.00     0.190 HD
ENDROOT
BRANCH   1   5
ATOM      5  N   UNL d   1      21.875 -19.079  -0.272  0.00  0.00    -0.264 N 
ATOM      6  C   UNL d   1      20.562 -18.904  -0.671  0.00  0.00     0.259 C 
ATOM      7  O   UNL d   1      20.221 -17.885  -1.270  0.00  0.00    -0.267 OA
ATOM      8  H   UNL d   1      22.241 -19.884   0.230  0.00  0.00     0.190 HD
BRANCH   6   9
ATOM      9  C   UNL d   1      19.598 -20.017  -0.332  0.00  0.00     0.077 C 
ATOM     10  C   UNL d   1      19.304 -20.397   0.938  0.00  0.00    -0.082 C 
ATOM     11  C   UNL d   1      18.331 -21.516   1.248  0.00  0.00     0.043 C 
ATOM     12  C   UNL d   1      19.921 -19.735   2.144  0.00  0.00     0.043 C 
ENDBRANCH   6   9
ENDBRANCH   1   5
BRANCH   2  13
ATOM     13  C   UNL d   1      25.019 -17.057  -0.795  0.00  0.00     0.080 A 
ATOM     14  S   UNL d   1      24.476 -15.904  -1.955  0.00  0.00    -0.096 SA
ATOM     15  C   UNL d   1      25.899 -14.961  -1.819  0.00  0.00     0.051 A 
ATOM     16  C   UNL d   1      26.788 -15.519  -0.933  0.00  0.00     0.015 A 
ATOM     17  C   UNL d   1      26.293 -16.729  -0.335  0.00  0.00    -0.039 A 
ATOM     18  C   UNL d   1      27.099 -17.550   0.609  0.00  0.00     0.050 C 
ENDBRANCH   2  13
TORSDOF 3
ENDMDL
MODEL 3
REMARK VINA RESULT:    -7.127      1.255      1.313
REMARK INTER + INTRA:          -9.109
REMARK INTER:                  -8.022
REMARK INTRA:                  -1.087
REMARK CONF_INDEPENDENT:        0.895
REMARK UNBOUND:                -1.087
REMARK  3 active torsions:
REMARK  status: ('A' for Active; 'I' for Inactive)
REMARK    1  A    between atoms: C_4  and  C_5 
REMARK       I    between atoms: C_5  and  N_7 
REMARK    2  A    between atoms: N_7  and  N_8 
REMARK       I    between atoms: N_8  and  C_9 
REMARK    3  A    between atoms: C_9  and  C_11 
ROOT
ATOM      1  N   UNL d   1      23.447 -18.316  -0.882  0.00  0.00    -0.263 N 
ATOM      2  C   UNL d   1      24.510 -18.037  -0.027  0.00  0.00     0.277 C 
ATOM      3  O   UNL d   1      24.567 -18.575   1.086  0.00  0.00    -0.265 OA
ATOM      4  H   UNL d   1      23.411 -17.985  -1.844  0.00  0.00     0.190 HD
ENDROOT
BRANCH   1   5
ATOM      5  N   UNL d   1      22.395 -19.209  -0.503  0.00  0.00    -0.264 N 
ATOM      6  C   UNL d   1      21.096 -18.798  -0.742  0.00  0.00     0.259 C 
ATOM      7  O   UNL d   1      20.871 -17.708  -1.266  0.00  0.00    -0.267 OA
ATOM      8  H   UNL d   1      22.670 -20.087  -0.070  0.00  0.00     0.190 HD
BRANCH   6   9
ATOM      9  C   UNL d   1      19.999 -19.749  -0.326  0.00  0.00     0.077 C 
ATOM     10  C   UNL d   1      19.666 -19.996   0.967  0.00  0.00    -0.082 C 
ATOM     11  C   UNL d   1      18.559 -20.956   1.354  0.00  0.00     0.043 C 
ATOM     12  C   UNL d   1      20.372 -19.335   2.124  0.00  0.00     0.043 C 
ENDBRANCH   6   9
ENDBRANCH   1   5
BRANCH   2  13
ATOM     13  C   UNL d   1      25.510 -17.077  -0.523  0.00  0.00     0.080 A 
ATOM     14  S   UNL d   1      27.128 -17.161   0.065  0.00  0.00    -0.096 SA
ATOM     15  C   UNL d   1      27.628 -15.805  -0.854  0.00  0.00     0.051 A 
ATOM     16  C   UNL d   1      26.586 -15.274  -1.574  0.00  0.00     0.015 A 
ATOM     17  C   UNL d   1      25.358 -15.999  -1.392  0.00  0.00    -0.039 A 
ATOM     18  C   UNL d   1      24.074 -15.580  -2.018  0.00  0.00     0.050 C 
ENDBRANCH   2  13
TORSDOF 3
ENDMDL
MODEL 4
REMARK VINA RESULT:    -6.844      2.458      6.841
REMARK INTER + INTRA:          -9.065
REMARK INTER:                  -7.738
REMARK INTRA:                  -1.326
REMARK CONF_INDEPENDENT:        0.895
REMARK UNBOUND:                -1.326
REMARK  3 active torsions:
REMARK  status: ('A' for Active; 'I' for Inactive)
REMARK    1  A    between atoms: C_4  and  C_5 
REMARK       I    between atoms: C_5  and  N_7 
REMARK    2  A    between atoms: N_7  and  N_8 
REMARK       I    between atoms: N_8  and  C_9 
REMARK    3  A    between atoms: C_9  and  C_11 
ROOT
ATOM      1  N   UNL d   1      21.761 -18.899  -0.166  0.00  0.00    -0.263 N 
ATOM      2  C   UNL d   1      20.557 -19.394  -0.661  0.00  0.00     0.277 C 
ATOM      3  O   UNL d   1      20.311 -19.326  -1.872  0.00  0.00    -0.265 OA
ATOM      4  H   UNL d   1      22.056 -19.027   0.800  0.00  0.00     0.190 HD
ENDROOT
BRANCH   1   5
ATOM      5  N   UNL d   1      22.731 -18.292  -1.025  0.00  0.00    -0.264 N 
ATOM      6  C   UNL d   1      23.905 -17.848  -0.445  0.00  0.00     0.259 C 
ATOM      7  O   UNL d   1      24.096 -17.983   0.763  0.00  0.00    -0.267 OA
ATOM      8  H   UNL d   1      22.490 -18.216  -2.011  0.00  0.00     0.190 HD
BRANCH   6   9
ATOM      9  C   UNL d   1      24.913 -17.201  -1.366  0.00  0.00     0.077 C 
ATOM     10  C   UNL d   1      26.229 -17.059  -1.063  0.00  0.00    -0.082 C 
ATOM     11  C   UNL d   1      27.216 -16.407  -2.009  0.00  0.00     0.043 C 
ATOM     12  C   UNL d   1      26.814 -17.540   0.241  0.00  0.00     0.043 C 
ENDBRANCH   6   9
ENDBRANCH   1   5
BRANCH   2  13
ATOM     13  C   UNL d   1      19.631 -19.964   0.331  0.00  0.00     0.080 A 
ATOM     14  S   UNL d   1      18.238 -20.825  -0.208  0.00  0.00    -0.096 SA
ATOM     15  C   UNL d   1      17.681 -21.102   1.386  0.00  0.00     0.051 A 
ATOM     16  C   UNL d   1      18.514 -20.532   2.317  0.00  0.00     0.015 A 
ATOM     17  C   UNL d   1      19.644 -19.871   1.721  0.00  0.00    -0.039 A 
ATOM     18  C   UNL d   1      20.655 -19.125   2.518  0.00  0.00     0.050 C 
ENDBRANCH   2  13
TORSDOF 3
ENDMDL
MODEL 5
REMARK VINA RESULT:    -6.139      2.802      3.722
REMARK INTER + INTRA:          -8.548
REMARK INTER:                  -7.034
REMARK INTRA:                  -1.514
REMARK CONF_INDEPENDENT:        0.895
REMARK UNBOUND:                -1.514
REMARK  3 active torsions:
REMARK  status: ('A' for Active; 'I' for Inactive)
REMARK    1  A    between atoms: C_4  and  C_5 
REMARK       I    between atoms: C_5  and  N_7 
REMARK    2  A    between atoms: N_7  and  N_8 
REMARK       I    between atoms: N_8  and  C_9 
REMARK    3  A    between atoms: C_9  and  C_11 
ROOT
ATOM      1  N   UNL d   1      24.630 -16.851  -1.805  0.00  0.00    -0.263 N 
ATOM      2  C   UNL d   1      25.660 -15.933  -1.621  0.00  0.00     0.277 C 
ATOM      3  O   UNL d   1      25.897 -15.487  -0.492  0.00  0.00    -0.265 OA
ATOM      4  H   UNL d   1      24.466 -17.328  -2.690  0.00  0.00     0.190 HD
ENDROOT
BRANCH   1   5
ATOM      5  N   UNL d   1      23.814 -17.290  -0.715  0.00  0.00    -0.264 N 
ATOM      6  C   UNL d   1      22.996 -18.384  -0.932  0.00  0.00     0.259 C 
ATOM      7  O   UNL d   1      22.987 -18.950  -2.025  0.00  0.00    -0.267 OA
ATOM      8  H   UNL d   1      23.880 -16.762   0.152  0.00  0.00     0.190 HD
BRANCH   6   9
ATOM      9  C   UNL d   1      22.135 -18.827   0.227  0.00  0.00     0.077 C 
ATOM     10  C   UNL d   1      20.864 -19.285   0.091  0.00  0.00    -0.082 C 
ATOM     11  C   UNL d   1      20.025 -19.723   1.273  0.00  0.00     0.043 C 
ATOM     12  C   UNL d   1      20.185 -19.395  -1.251  0.00  0.00     0.043 C 
ENDBRANCH   6   9
ENDBRANCH   1   5
BRANCH   2  13
ATOM     13  C   UNL d   1      26.404 -15.538  -2.828  0.00  0.00     0.080 A 
ATOM     14  S   UNL d   1      25.539 -14.965  -4.205  0.00  0.00    -0.096 SA
ATOM     15  C   UNL d   1      26.964 -14.779  -5.135  0.00  0.00     0.051 A 
ATOM     16  C   UNL d   1      28.078 -15.170  -4.434  0.00  0.00     0.015 A 
ATOM     17  C   UNL d   1      27.768 -15.611  -3.100  0.00  0.00    -0.039 A 
ATOM     18  C   UNL d   1      28.799 -16.142  -2.167  0.00  0.00     0.050 C 
ENDBRANCH   2  13
TORSDOF 3
ENDMDL
MODEL 6
REMARK VINA RESULT:    -5.889      1.987      6.661
REMARK INTER + INTRA:          -8.327
REMARK INTER:                  -6.784
REMARK INTRA:                  -1.543
REMARK CONF_INDEPENDENT:        0.895
REMARK UNBOUND:                -1.543
REMARK  3 active torsions:
REMARK  status: ('A' for Active; 'I' for Inactive)
REMARK    1  A    between atoms: C_4  and  C_5 
REMARK       I    between atoms: C_5  and  N_7 
REMARK    2  A    between atoms: N_7  and  N_8 
REMARK       I    between atoms: N_8  and  C_9 
REMARK    3  A    between atoms: C_9  and  C_11 
ROOT
ATOM      1  N   UNL d   1      22.496 -18.932   0.167  0.00  0.00    -0.263 N 
ATOM      2  C   UNL d   1      21.141 -18.900  -0.154  0.00  0.00     0.277 C 
ATOM      3  O   UNL d   1      20.764 -18.345  -1.193  0.00  0.00    -0.265 OA
ATOM      4  H   UNL d   1      22.865 -19.467   0.951  0.00  0.00     0.190 HD
ENDROOT
BRANCH   1   5
ATOM      5  N   UNL d   1      23.479 -18.322  -0.674  0.00  0.00    -0.264 N 
ATOM      6  C   UNL d   1      24.732 -18.101  -0.131  0.00  0.00     0.259 C 
ATOM      7  O   UNL d   1      24.976 -18.428   1.030  0.00  0.00    -0.267 OA
ATOM      8  H   UNL d   1      23.191 -18.079  -1.619  0.00  0.00     0.190 HD
BRANCH   6   9
ATOM      9  C   UNL d   1      25.754 -17.447  -1.031  0.00  0.00     0.077 C 
ATOM     10  C   UNL d   1      25.511 -16.326  -1.756  0.00  0.00    -0.082 C 
ATOM     11  C   UNL d   1      26.557 -15.692  -2.650  0.00  0.00     0.043 C 
ATOM     12  C   UNL d   1      24.180 -15.619  -1.731  0.00  0.00     0.043 C 
ENDBRANCH   6   9
ENDBRANCH   1   5
BRANCH   2  13
ATOM     13  C   UNL d   1      20.228 -19.535   0.811  0.00  0.00     0.080 A 
ATOM     14  S   UNL d   1      20.655 -19.573   2.480  0.00  0.00    -0.096 SA
ATOM     15  C   UNL d   1      19.248 -20.448   2.912  0.00  0.00     0.051 A 
ATOM     16  C   UNL d   1      18.476 -20.736   1.813  0.00  0.00     0.015 A 
ATOM     17  C   UNL d   1      19.032 -20.215   0.593  0.00  0.00    -0.039 A 
ATOM     18  C   UNL d   1      18.412 -20.450  -0.739  0.00  0.00     0.050 C 
ENDBRANCH   2  13
TORSDOF 3
ENDMDL
MODEL 7
REMARK VINA RESULT:    -5.806     11.691     13.860
REMARK INTER + INTRA:          -8.190
REMARK INTER:                  -6.701
REMARK INTRA:                  -1.489
REMARK CONF_INDEPENDENT:        0.895
REMARK UNBOUND:                -1.489
REMARK  3 active torsions:
REMARK  status: ('A' for Active; 'I' for Inactive)
REMARK    1  A    between atoms: C_4  and  C_5 
REMARK       I    between atoms: C_5  and  N_7 
REMARK    2  A    between atoms: N_7  and  N_8 
REMARK       I    between atoms: N_8  and  C_9 
REMARK    3  A    between atoms: C_9  and  C_11 
ROOT
ATOM      1  N   UNL d   1      33.342 -21.822   6.998  0.00  0.00    -0.263 N 
ATOM      2  C   UNL d   1      34.691 -22.166   7.005  0.00  0.00     0.277 C 
ATOM      3  O   UNL d   1      35.229 -22.582   5.971  0.00  0.00    -0.265 OA
ATOM      4  H   UNL d   1      32.882 -21.376   7.789  0.00  0.00     0.190 HD
ENDROOT
BRANCH   1   5
ATOM      5  N   UNL d   1      32.543 -21.948   5.818  0.00  0.00    -0.264 N 
ATOM      6  C   UNL d   1      31.206 -21.605   5.916  0.00  0.00     0.259 C 
ATOM      7  O   UNL d   1      30.740 -21.203   6.981  0.00  0.00    -0.267 OA
ATOM      8  H   UNL d   1      33.007 -22.293   4.982  0.00  0.00     0.190 HD
BRANCH   6   9
ATOM      9  C   UNL d   1      30.376 -21.754   4.663  0.00  0.00     0.077 C 
ATOM     10  C   UNL d   1      30.816 -21.419   3.423  0.00  0.00    -0.082 C 
ATOM     11  C   UNL d   1      29.961 -21.581   2.183  0.00  0.00     0.043 C 
ATOM     12  C   UNL d   1      32.194 -20.857   3.179  0.00  0.00     0.043 C 
ENDBRANCH   6   9
ENDBRANCH   1   5
BRANCH   2  13
ATOM     13  C   UNL d   1      35.394 -22.022   8.290  0.00  0.00     0.080 A 
ATOM     14  S   UNL d   1      35.650 -23.412   9.277  0.00  0.00    -0.096 SA
ATOM     15  C   UNL d   1      36.409 -22.505  10.515  0.00  0.00     0.051 A 
ATOM     16  C   UNL d   1      36.447 -21.167  10.208  0.00  0.00     0.015 A 
ATOM     17  C   UNL d   1      35.864 -20.875   8.926  0.00  0.00    -0.039 A 
ATOM     18  C   UNL d   1      35.730 -19.489   8.400  0.00  0.00     0.050 C 
ENDBRANCH   2  13
TORSDOF 3
ENDMDL
MODEL 8
REMARK VINA RESULT:    -5.747      4.392      8.120
REMARK INTER + INTRA:          -8.177
REMARK INTER:                  -6.642
REMARK INTRA:                  -1.535
REMARK CONF_INDEPENDENT:        0.895
REMARK UNBOUND:                -1.535
REMARK  3 active torsions:
REMARK  status: ('A' for Active; 'I' for Inactive)
REMARK    1  A    between atoms: C_4  and  C_5 
REMARK       I    between atoms: C_5  and  N_7 
REMARK    2  A    between atoms: N_7  and  N_8 
REMARK       I    between atoms: N_8  and  C_9 
REMARK    3  A    between atoms: C_9  and  C_11 
ROOT
ATOM      1  N   UNL d   1      25.600 -15.811  -2.931  0.00  0.00    -0.263 N 
ATOM      2  C   UNL d   1      25.375 -15.679  -1.564  0.00  0.00     0.277 C 
ATOM      3  O   UNL d   1      25.896 -14.747  -0.938  0.00  0.00    -0.265 OA
ATOM      4  H   UNL d   1      25.111 -16.493  -3.508  0.00  0.00     0.190 HD
ENDROOT
BRANCH   1   5
ATOM      5  N   UNL d   1      26.439 -14.897  -3.644  0.00  0.00    -0.264 N 
ATOM      6  C   UNL d   1      26.531 -15.055  -5.015  0.00  0.00     0.259 C 
ATOM      7  O   UNL d   1      25.906 -15.949  -5.585  0.00  0.00    -0.267 OA
ATOM      8  H   UNL d   1      26.924 -14.192  -3.094  0.00  0.00     0.190 HD
BRANCH   6   9
ATOM      9  C   UNL d   1      27.429 -14.087  -5.749  0.00  0.00     0.077 C 
ATOM     10  C   UNL d   1      28.687 -14.390  -6.160  0.00  0.00    -0.082 C 
ATOM     11  C   UNL d   1      29.564 -13.397  -6.896  0.00  0.00     0.043 C 
ATOM     12  C   UNL d   1      29.314 -15.739  -5.917  0.00  0.00     0.043 C 
ENDBRANCH   6   9
ENDBRANCH   1   5
BRANCH   2  13
ATOM     13  C   UNL d   1      24.519 -16.703  -0.943  0.00  0.00     0.080 A 
ATOM     14  S   UNL d   1      22.813 -16.465  -0.895  0.00  0.00    -0.096 SA
ATOM     15  C   UNL d   1      22.542 -17.926  -0.044  0.00  0.00     0.051 A 
ATOM     16  C   UNL d   1      23.721 -18.575   0.229  0.00  0.00     0.015 A 
ATOM     17  C   UNL d   1      24.870 -17.879  -0.284  0.00  0.00    -0.039 A 
ATOM     18  C   UNL d   1      26.264 -18.352  -0.061  0.00  0.00     0.050 C 
ENDBRANCH   2  13
TORSDOF 3
ENDMDL
MODEL 9
REMARK VINA RESULT:    -5.695      4.142      5.451
REMARK INTER + INTRA:          -8.223
REMARK INTER:                  -6.590
REMARK INTRA:                  -1.633
REMARK CONF_INDEPENDENT:        0.895
REMARK UNBOUND:                -1.633
REMARK  3 active torsions:
REMARK  status: ('A' for Active; 'I' for Inactive)
REMARK    1  A    between atoms: C_4  and  C_5 
REMARK       I    between atoms: C_5  and  N_7 
REMARK    2  A    between atoms: N_7  and  N_8 
REMARK       I    between atoms: N_8  and  C_9 
REMARK    3  A    between atoms: C_9  and  C_11 
ROOT
ATOM      1  N   UNL d   1      25.729 -15.505  -2.895  0.00  0.00    -0.263 N 
ATOM      2  C   UNL d   1      25.521 -14.588  -3.922  0.00  0.00     0.277 C 
ATOM      3  O   UNL d   1      24.405 -14.076  -4.077  0.00  0.00    -0.265 OA
ATOM      4  H   UNL d   1      26.649 -15.871  -2.659  0.00  0.00     0.190 HD
ENDROOT
BRANCH   1   5
ATOM      5  N   UNL d   1      24.673 -15.890  -2.009  0.00  0.00    -0.264 N 
ATOM      6  C   UNL d   1      24.957 -16.860  -1.064  0.00  0.00     0.259 C 
ATOM      7  O   UNL d   1      26.080 -17.358  -0.998  0.00  0.00    -0.267 OA
ATOM      8  H   UNL d   1      23.774 -15.431  -2.137  0.00  0.00     0.190 HD
BRANCH   6   9
ATOM      9  C   UNL d   1      23.828 -17.260  -0.145  0.00  0.00     0.077 C 
ATOM     10  C   UNL d   1      22.902 -18.204  -0.454  0.00  0.00    -0.082 C 
ATOM     11  C   UNL d   1      21.780 -18.585   0.490  0.00  0.00     0.043 C 
ATOM     12  C   UNL d   1      22.916 -18.950  -1.764  0.00  0.00     0.043 C 
ENDBRANCH   6   9
ENDBRANCH   1   5
BRANCH   2  13
ATOM     13  C   UNL d   1      26.679 -14.302  -4.784  0.00  0.00     0.080 A 
ATOM     14  S   UNL d   1      27.879 -15.517  -5.020  0.00  0.00    -0.096 SA
ATOM     15  C   UNL d   1      28.842 -14.502  -6.006  0.00  0.00     0.051 A 
ATOM     16  C   UNL d   1      28.287 -13.252  -6.136  0.00  0.00     0.015 A 
ATOM     17  C   UNL d   1      27.038 -13.124  -5.435  0.00  0.00    -0.039 A 
ATOM     18  C   UNL d   1      26.276 -11.847  -5.374  0.00  0.00     0.050 C 
ENDBRANCH   2  13
TORSDOF 3
ENDMDL
