MODEL 1
REMARK VINA RESULT:    -9.742      0.000      0.000
REMARK INTER + INTRA:         -14.518
REMARK INTER:                 -12.725
REMARK INTRA:                  -1.793
REMARK CONF_INDEPENDENT:        2.983
REMARK UNBOUND:                -1.793
REMARK  10 active torsions:
REMARK  status: ('A' for Active; 'I' for Inactive)
REMARK    1  A    between atoms: C_2  and  C_3 
REMARK       I    between atoms: C_2  and  N_18 
REMARK    2  A    between atoms: C_3  and  N_4 
REMARK    3  A    between atoms: N_4  and  C_5 
REMARK    4  A    between atoms: C_8  and  O_9 
REMARK    5  A    between atoms: O_9  and  C_10 
REMARK    6  A    between atoms: C_11  and  C_10 
REMARK    7  A    between atoms: N_18  and  C_19 
REMARK    8  A    between atoms: C_23  and  C_24 
REMARK       I    between atoms: C_24  and  N_26 
REMARK    9  A    between atoms: N_26  and  C_27 
REMARK   10  A    between atoms: C_31  and  C_32 
ROOT
ATOM      1  C   UNL d   1      26.888 -14.171  -2.233  0.00  0.00     0.035 A 
ATOM      2  C   UNL d   1      25.556 -13.923  -2.558  0.00  0.00     0.029 A 
ATOM      3  C   UNL d   1      25.127 -14.081  -3.880  0.00  0.00     0.003 A 
ATOM      4  C   UNL d   1      26.036 -14.443  -4.878  0.00  0.00     0.017 A 
ATOM      5  C   UNL d   1      27.365 -14.734  -4.550  0.00  0.00     0.034 A 
ATOM      6  C   UNL d   1      27.757 -14.627  -3.221  0.00  0.00     0.046 A 
ENDROOT
BRANCH   1   7
ATOM      7  N   UNL d   1      27.336 -14.051  -0.909  0.00  0.00    -0.326 N 
ATOM      8  C   UNL d   1      27.516 -15.065   0.017  0.00  0.00     0.239 C 
ATOM      9  O   UNL d   1      27.783 -14.772   1.185  0.00  0.00    -0.271 OA
ATOM     10  H   UNL d   1      27.585 -13.127  -0.571  0.00  0.00     0.169 HD
BRANCH   8  11
ATOM     11  C   UNL d   1      27.457 -16.528  -0.475  0.00  0.00     0.223 C 
BRANCH  11  12
ATOM     12  N   UNL d   1      26.579 -17.364   0.340  0.00  0.00    -0.381 N 
ATOM     13  H   UNL d   1      26.858 -17.492   1.308  0.00  0.00     0.160 HD
BRANCH  12  14
ATOM     14  C   UNL d   1      25.242 -17.484  -0.017  0.00  0.00     0.028 A 
ATOM     15  C   UNL d   1      24.464 -18.575   0.382  0.00  0.00     0.032 A 
ATOM     16  C   UNL d   1      23.135 -18.725  -0.070  0.00  0.00     0.039 A 
ATOM     17  C   UNL d   1      22.532 -17.740  -0.856  0.00  0.00     0.069 A 
ATOM     18  C   UNL d   1      23.295 -16.628  -1.213  0.00  0.00     0.039 A 
ATOM     19  C   UNL d   1      24.619 -16.497  -0.780  0.00  0.00     0.032 A 
BRANCH  17  20
ATOM     20  O   UNL d   1      21.216 -17.936  -1.222  0.00  0.00    -0.349 OA
BRANCH  20  21
ATOM     21  C   UNL d   1      20.687 -19.228  -0.881  0.00  0.00     0.207 C 
BRANCH  21  22
ATOM     22  C   UNL d   1      19.374 -19.207  -0.074  0.00  0.00     0.145 C 
ATOM     23  C   UNL d   1      18.512 -20.448  -0.167  0.00  0.00     0.036 C 
ATOM     24  C   UNL d   1      19.011 -21.294   0.975  0.00  0.00     0.029 C 
ATOM     25  C   UNL d   1      19.378 -20.266   2.023  0.00  0.00     0.168 C 
ATOM     26  O   UNL d   1      19.707 -19.052   1.328  0.00  0.00    -0.384 OA
ENDBRANCH  21  22
ENDBRANCH  20  21
ENDBRANCH  17  20
ENDBRANCH  12  14
ENDBRANCH  11  12
ENDBRANCH   8  11
ENDBRANCH   1   7
BRANCH   5  27
ATOM     27  C   UNL d   1      28.306 -15.197  -5.605  0.00  0.00     0.256 C 
ATOM     28  O   UNL d   1      28.047 -14.881  -6.772  0.00  0.00    -0.267 OA
ATOM     29  N   UNL d   1      29.384 -15.997  -5.235  0.00  0.00    -0.323 N 
ATOM     30  H   UNL d   1      29.472 -16.386  -4.307  0.00  0.00     0.169 HD
BRANCH  29  31
ATOM     31  C   UNL d   1      30.340 -16.447  -6.162  0.00  0.00     0.035 A 
ATOM     32  C   UNL d   1      31.184 -15.548  -6.817  0.00  0.00     0.029 A 
ATOM     33  C   UNL d   1      32.115 -16.022  -7.747  0.00  0.00     0.003 A 
ATOM     34  C   UNL d   1      32.204 -17.390  -8.013  0.00  0.00     0.016 A 
ATOM     35  C   UNL d   1      31.327 -18.288  -7.391  0.00  0.00     0.050 A 
ATOM     36  C   UNL d   1      30.405 -17.803  -6.465  0.00  0.00     0.045 A 
BRANCH  35  37
ATOM     37  C   UNL d   1      31.333 -19.751  -7.728  0.00  0.00     0.417 C 
ATOM     38  F   UNL d   1      30.335 -20.075  -8.597  0.00  0.00    -0.166 F 
ATOM     39  F   UNL d   1      32.492 -20.152  -8.315  0.00  0.00    -0.166 F 
ATOM     40  F   UNL d   1      31.155 -20.564  -6.648  0.00  0.00    -0.166 F 
ENDBRANCH  35  37
ENDBRANCH  29  31
ENDBRANCH   5  27
TORSDOF 10
ENDMDL
MODEL 2
REMARK VINA RESULT:    -9.695      6.676     10.964
REMARK INTER + INTRA:         -13.643
REMARK INTER:                 -12.678
REMARK INTRA:                  -0.965
REMARK CONF_INDEPENDENT:        2.983
REMARK UNBOUND:                -0.965
REMARK  10 active torsions:
REMARK  status: ('A' for Active; 'I' for Inactive)
REMARK    1  A    between atoms: C_2  and  C_3 
REMARK       I    between atoms: C_2  and  N_18 
REMARK    2  A    between atoms: C_3  and  N_4 
REMARK    3  A    between atoms: N_4  and  C_5 
REMARK    4  A    between atoms: C_8  and  O_9 
REMARK    5  A    between atoms: O_9  and  C_10 
REMARK    6  A    between atoms: C_11  and  C_10 
REMARK    7  A    between atoms: N_18  and  C_19 
REMARK    8  A    between atoms: C_23  and  C_24 
REMARK       I    between atoms: C_24  and  N_26 
REMARK    9  A    between atoms: N_26  and  C_27 
REMARK   10  A    between atoms: C_31  and  C_32 
ROOT
ATOM      1  C   UNL d   1      26.613 -15.427  -0.102  0.00  0.00     0.035 A 
ATOM      2  C   UNL d   1      27.714 -16.248   0.130  0.00  0.00     0.029 A 
ATOM      3  C   UNL d   1      27.562 -17.638   0.080  0.00  0.00     0.003 A 
ATOM      4  C   UNL d   1      26.304 -18.201  -0.158  0.00  0.00     0.017 A 
ATOM      5  C   UNL d   1      25.204 -17.382  -0.433  0.00  0.00     0.034 A 
ATOM      6  C   UNL d   1      25.390 -16.004  -0.436  0.00  0.00     0.046 A 
ENDROOT
BRANCH   1   7
ATOM      7  N   UNL d   1      26.746 -14.030  -0.090  0.00  0.00    -0.326 N 
ATOM      8  C   UNL d   1      27.593 -13.268   0.696  0.00  0.00     0.239 C 
ATOM      9  O   UNL d   1      27.484 -12.040   0.682  0.00  0.00    -0.271 OA
ATOM     10  H   UNL d   1      26.181 -13.492  -0.740  0.00  0.00     0.169 HD
BRANCH   8  11
ATOM     11  C   UNL d   1      28.700 -13.990   1.497  0.00  0.00     0.223 C 
BRANCH  11  12
ATOM     12  N   UNL d   1      28.182 -14.705   2.660  0.00  0.00    -0.381 N 
ATOM     13  H   UNL d   1      28.252 -15.718   2.628  0.00  0.00     0.160 HD
BRANCH  12  14
ATOM     14  C   UNL d   1      28.134 -14.053   3.885  0.00  0.00     0.028 A 
ATOM     15  C   UNL d   1      27.807 -12.698   3.991  0.00  0.00     0.032 A 
ATOM     16  C   UNL d   1      27.855 -12.032   5.235  0.00  0.00     0.039 A 
ATOM     17  C   UNL d   1      28.147 -12.732   6.409  0.00  0.00     0.069 A 
ATOM     18  C   UNL d   1      28.426 -14.095   6.307  0.00  0.00     0.039 A 
ATOM     19  C   UNL d   1      28.398 -14.744   5.068  0.00  0.00     0.032 A 
BRANCH  17  20
ATOM     20  O   UNL d   1      28.133 -12.022   7.591  0.00  0.00    -0.349 OA
BRANCH  20  21
ATOM     21  C   UNL d   1      29.391 -11.991   8.287  0.00  0.00     0.207 C 
BRANCH  21  22
ATOM     22  C   UNL d   1      29.600 -13.121   9.314  0.00  0.00     0.145 C 
ATOM     23  C   UNL d   1      29.831 -12.688  10.746  0.00  0.00     0.036 C 
ATOM     24  C   UNL d   1      28.437 -12.646  11.316  0.00  0.00     0.029 C 
ATOM     25  C   UNL d   1      27.740 -13.777  10.592  0.00  0.00     0.168 C 
ATOM     26  O   UNL d   1      28.408 -13.945   9.330  0.00  0.00    -0.384 OA
ENDBRANCH  21  22
ENDBRANCH  20  21
ENDBRANCH  17  20
ENDBRANCH  12  14
ENDBRANCH  11  12
ENDBRANCH   8  11
ENDBRANCH   1   7
BRANCH   5  27
ATOM     27  C   UNL d   1      23.889 -17.991  -0.765  0.00  0.00     0.256 C 
ATOM     28  O   UNL d   1      23.639 -18.179  -1.962  0.00  0.00    -0.267 OA
ATOM     29  N   UNL d   1      22.997 -18.262   0.270  0.00  0.00    -0.323 N 
ATOM     30  H   UNL d   1      23.152 -17.936   1.213  0.00  0.00     0.169 HD
BRANCH  29  31
ATOM     31  C   UNL d   1      21.749 -18.869   0.047  0.00  0.00     0.035 A 
ATOM     32  C   UNL d   1      21.222 -18.974  -1.242  0.00  0.00     0.029 A 
ATOM     33  C   UNL d   1      19.970 -19.569  -1.433  0.00  0.00     0.003 A 
ATOM     34  C   UNL d   1      19.256 -20.064  -0.339  0.00  0.00     0.016 A 
ATOM     35  C   UNL d   1      19.763 -19.918   0.958  0.00  0.00     0.050 A 
ATOM     36  C   UNL d   1      21.012 -19.324   1.134  0.00  0.00     0.045 A 
BRANCH  35  37
ATOM     37  C   UNL d   1      18.976 -20.351   2.161  0.00  0.00     0.417 C 
ATOM     38  F   UNL d   1      19.758 -20.441   3.272  0.00  0.00    -0.166 F 
ATOM     39  F   UNL d   1      17.972 -19.488   2.472  0.00  0.00    -0.166 F 
ATOM     40  F   UNL d   1      18.392 -21.575   2.023  0.00  0.00    -0.166 F 
ENDBRANCH  35  37
ENDBRANCH  29  31
ENDBRANCH   5  27
TORSDOF 10
ENDMDL
MODEL 3
REMARK VINA RESULT:    -9.358      1.814      2.534
REMARK INTER + INTRA:         -13.641
REMARK INTER:                 -12.341
REMARK INTRA:                  -1.300
REMARK CONF_INDEPENDENT:        2.983
REMARK UNBOUND:                -1.300
REMARK  10 active torsions:
REMARK  status: ('A' for Active; 'I' for Inactive)
REMARK    1  A    between atoms: C_2  and  C_3 
REMARK       I    between atoms: C_2  and  N_18 
REMARK    2  A    between atoms: C_3  and  N_4 
REMARK    3  A    between atoms: N_4  and  C_5 
REMARK    4  A    between atoms: C_8  and  O_9 
REMARK    5  A    between atoms: O_9  and  C_10 
REMARK    6  A    between atoms: C_11  and  C_10 
REMARK    7  A    between atoms: N_18  and  C_19 
REMARK    8  A    between atoms: C_23  and  C_24 
REMARK       I    between atoms: C_24  and  N_26 
REMARK    9  A    between atoms: N_26  and  C_27 
REMARK   10  A    between atoms: C_31  and  C_32 
ROOT
ATOM      1  C   UNL d   1      26.441 -13.075  -4.933  0.00  0.00     0.035 A 
ATOM      2  C   UNL d   1      26.845 -11.753  -5.106  0.00  0.00     0.029 A 
ATOM      3  C   UNL d   1      28.179 -11.474  -5.421  0.00  0.00     0.003 A 
ATOM      4  C   UNL d   1      29.112 -12.511  -5.519  0.00  0.00     0.017 A 
ATOM      5  C   UNL d   1      28.704 -13.842  -5.388  0.00  0.00     0.034 A 
ATOM      6  C   UNL d   1      27.362 -14.101  -5.133  0.00  0.00     0.046 A 
ENDROOT
BRANCH   1   7
ATOM      7  N   UNL d   1      25.102 -13.383  -4.649  0.00  0.00    -0.326 N 
ATOM      8  C   UNL d   1      24.605 -14.051  -3.543  0.00  0.00     0.239 C 
ATOM      9  O   UNL d   1      23.413 -14.365  -3.516  0.00  0.00    -0.271 OA
ATOM     10  H   UNL d   1      24.392 -13.073  -5.305  0.00  0.00     0.169 HD
BRANCH   8  11
ATOM     11  C   UNL d   1      25.553 -14.301  -2.348  0.00  0.00     0.223 C 
BRANCH  11  12
ATOM     12  N   UNL d   1      25.828 -15.719  -2.131  0.00  0.00    -0.381 N 
ATOM     13  H   UNL d   1      26.808 -15.983  -2.103  0.00  0.00     0.160 HD
BRANCH  12  14
ATOM     14  C   UNL d   1      24.882 -16.495  -1.474  0.00  0.00     0.028 A 
ATOM     15  C   UNL d   1      25.181 -17.770  -0.983  0.00  0.00     0.032 A 
ATOM     16  C   UNL d   1      24.181 -18.580  -0.403  0.00  0.00     0.039 A 
ATOM     17  C   UNL d   1      22.883 -18.094  -0.223  0.00  0.00     0.069 A 
ATOM     18  C   UNL d   1      22.599 -16.804  -0.671  0.00  0.00     0.039 A 
ATOM     19  C   UNL d   1      23.589 -16.015  -1.265  0.00  0.00     0.032 A 
BRANCH  17  20
ATOM     20  O   UNL d   1      21.972 -18.928   0.391  0.00  0.00    -0.349 OA
BRANCH  20  21
ATOM     21  C   UNL d   1      20.905 -19.379  -0.460  0.00  0.00     0.207 C 
BRANCH  21  22
ATOM     22  C   UNL d   1      19.494 -19.287   0.154  0.00  0.00     0.145 C 
ATOM     23  C   UNL d   1      18.558 -20.439  -0.146  0.00  0.00     0.036 C 
ATOM     24  C   UNL d   1      18.816 -21.390   0.994  0.00  0.00     0.029 C 
ATOM     25  C   UNL d   1      19.106 -20.461   2.152  0.00  0.00     0.168 C 
ATOM     26  O   UNL d   1      19.630 -19.243   1.596  0.00  0.00    -0.384 OA
ENDBRANCH  21  22
ENDBRANCH  20  21
ENDBRANCH  17  20
ENDBRANCH  12  14
ENDBRANCH  11  12
ENDBRANCH   8  11
ENDBRANCH   1   7
BRANCH   5  27
ATOM     27  C   UNL d   1      29.686 -14.943  -5.575  0.00  0.00     0.256 C 
ATOM     28  O   UNL d   1      30.363 -15.269  -4.592  0.00  0.00    -0.267 OA
ATOM     29  N   UNL d   1      29.831 -15.502  -6.842  0.00  0.00    -0.323 N 
ATOM     30  H   UNL d   1      29.398 -15.100  -7.660  0.00  0.00     0.169 HD
BRANCH  29  31
ATOM     31  C   UNL d   1      30.710 -16.569  -7.097  0.00  0.00     0.035 A 
ATOM     32  C   UNL d   1      31.798 -16.413  -7.958  0.00  0.00     0.029 A 
ATOM     33  C   UNL d   1      32.648 -17.497  -8.205  0.00  0.00     0.003 A 
ATOM     34  C   UNL d   1      32.412 -18.726  -7.587  0.00  0.00     0.016 A 
ATOM     35  C   UNL d   1      31.296 -18.897  -6.759  0.00  0.00     0.050 A 
ATOM     36  C   UNL d   1      30.457 -17.809  -6.519  0.00  0.00     0.045 A 
BRANCH  35  37
ATOM     37  C   UNL d   1      30.961 -20.232  -6.158  0.00  0.00     0.417 C 
ATOM     38  F   UNL d   1      31.947 -20.677  -5.331  0.00  0.00    -0.166 F 
ATOM     39  F   UNL d   1      29.825 -20.203  -5.411  0.00  0.00    -0.166 F 
ATOM     40  F   UNL d   1      30.782 -21.219  -7.080  0.00  0.00    -0.166 F 
ENDBRANCH  35  37
ENDBRANCH  29  31
ENDBRANCH   5  27
TORSDOF 10
ENDMDL
MODEL 4
REMARK VINA RESULT:    -9.058      5.818      7.506
REMARK INTER + INTRA:         -13.676
REMARK INTER:                 -12.041
REMARK INTRA:                  -1.635
REMARK CONF_INDEPENDENT:        2.983
REMARK UNBOUND:                -1.635
REMARK  10 active torsions:
REMARK  status: ('A' for Active; 'I' for Inactive)
REMARK    1  A    between atoms: C_2  and  C_3 
REMARK       I    between atoms: C_2  and  N_18 
REMARK    2  A    between atoms: C_3  and  N_4 
REMARK    3  A    between atoms: N_4  and  C_5 
REMARK    4  A    between atoms: C_8  and  O_9 
REMARK    5  A    between atoms: O_9  and  C_10 
REMARK    6  A    between atoms: C_11  and  C_10 
REMARK    7  A    between atoms: N_18  and  C_19 
REMARK    8  A    between atoms: C_23  and  C_24 
REMARK       I    between atoms: C_24  and  N_26 
REMARK    9  A    between atoms: N_26  and  C_27 
REMARK   10  A    between atoms: C_31  and  C_32 
ROOT
ATOM      1  C   UNL d   1      27.277 -14.457  -2.616  0.00  0.00     0.035 A 
ATOM      2  C   UNL d   1      26.266 -15.209  -3.208  0.00  0.00     0.029 A 
ATOM      3  C   UNL d   1      25.182 -14.559  -3.808  0.00  0.00     0.003 A 
ATOM      4  C   UNL d   1      25.091 -13.164  -3.777  0.00  0.00     0.017 A 
ATOM      5  C   UNL d   1      26.125 -12.402  -3.221  0.00  0.00     0.034 A 
ATOM      6  C   UNL d   1      27.221 -13.066  -2.682  0.00  0.00     0.046 A 
ENDROOT
BRANCH   1   7
ATOM      7  N   UNL d   1      28.391 -15.083  -2.037  0.00  0.00    -0.326 N 
ATOM      8  C   UNL d   1      28.459 -15.722  -0.811  0.00  0.00     0.239 C 
ATOM      9  O   UNL d   1      29.555 -16.098  -0.388  0.00  0.00    -0.271 OA
ATOM     10  H   UNL d   1      29.256 -15.103  -2.568  0.00  0.00     0.169 HD
BRANCH   8  11
ATOM     11  C   UNL d   1      27.140 -16.012  -0.059  0.00  0.00     0.223 C 
BRANCH  11  12
ATOM     12  N   UNL d   1      26.575 -17.317  -0.388  0.00  0.00    -0.381 N 
ATOM     13  H   UNL d   1      27.160 -18.121  -0.181  0.00  0.00     0.160 HD
BRANCH  12  14
ATOM     14  C   UNL d   1      25.195 -17.461  -0.439  0.00  0.00     0.028 A 
ATOM     15  C   UNL d   1      24.566 -18.683  -0.184  0.00  0.00     0.032 A 
ATOM     16  C   UNL d   1      23.170 -18.830  -0.333  0.00  0.00     0.039 A 
ATOM     17  C   UNL d   1      22.367 -17.732  -0.654  0.00  0.00     0.069 A 
ATOM     18  C   UNL d   1      22.991 -16.502  -0.861  0.00  0.00     0.039 A 
ATOM     19  C   UNL d   1      24.377 -16.369  -0.734  0.00  0.00     0.032 A 
BRANCH  17  20
ATOM     20  O   UNL d   1      21.007 -17.945  -0.739  0.00  0.00    -0.349 OA
BRANCH  20  21
ATOM     21  C   UNL d   1      20.626 -19.316  -0.941  0.00  0.00     0.207 C 
BRANCH  21  22
ATOM     22  C   UNL d   1      20.548 -20.169   0.340  0.00  0.00     0.145 C 
ATOM     23  C   UNL d   1      20.277 -19.419   1.628  0.00  0.00     0.036 C 
ATOM     24  C   UNL d   1      18.773 -19.435   1.718  0.00  0.00     0.029 C 
ATOM     25  C   UNL d   1      18.410 -20.771   1.109  0.00  0.00     0.168 C 
ATOM     26  O   UNL d   1      19.459 -21.115   0.189  0.00  0.00    -0.384 OA
ENDBRANCH  21  22
ENDBRANCH  20  21
ENDBRANCH  17  20
ENDBRANCH  12  14
ENDBRANCH  11  12
ENDBRANCH   8  11
ENDBRANCH   1   7
BRANCH   5  27
ATOM     27  C   UNL d   1      26.059 -10.917  -3.265  0.00  0.00     0.256 C 
ATOM     28  O   UNL d   1      26.393 -10.306  -2.243  0.00  0.00    -0.267 OA
ATOM     29  N   UNL d   1      25.580 -10.302  -4.419  0.00  0.00    -0.323 N 
ATOM     30  H   UNL d   1      25.150 -10.826  -5.168  0.00  0.00     0.169 HD
BRANCH  29  31
ATOM     31  C   UNL d   1      25.519  -8.905  -4.557  0.00  0.00     0.035 A 
ATOM     32  C   UNL d   1      26.619  -8.104  -4.242  0.00  0.00     0.029 A 
ATOM     33  C   UNL d   1      26.525  -6.714  -4.374  0.00  0.00     0.003 A 
ATOM     34  C   UNL d   1      25.338  -6.133  -4.825  0.00  0.00     0.016 A 
ATOM     35  C   UNL d   1      24.220  -6.931  -5.097  0.00  0.00     0.050 A 
ATOM     36  C   UNL d   1      24.328  -8.315  -4.963  0.00  0.00     0.045 A 
BRANCH  35  37
ATOM     37  C   UNL d   1      22.902  -6.328  -5.490  0.00  0.00     0.417 C 
ATOM     38  F   UNL d   1      23.063  -5.185  -6.212  0.00  0.00    -0.166 F 
ATOM     39  F   UNL d   1      22.151  -7.161  -6.259  0.00  0.00    -0.166 F 
ATOM     40  F   UNL d   1      22.119  -5.984  -4.429  0.00  0.00    -0.166 F 
ENDBRANCH  35  37
ENDBRANCH  29  31
ENDBRANCH   5  27
TORSDOF 10
ENDMDL
MODEL 5
REMARK VINA RESULT:    -8.532      5.699     10.265
REMARK INTER + INTRA:         -13.601
REMARK INTER:                 -11.515
REMARK INTRA:                  -2.086
REMARK CONF_INDEPENDENT:        2.983
REMARK UNBOUND:                -2.086
REMARK  10 active torsions:
REMARK  status: ('A' for Active; 'I' for Inactive)
REMARK    1  A    between atoms: C_2  and  C_3 
REMARK       I    between atoms: C_2  and  N_18 
REMARK    2  A    between atoms: C_3  and  N_4 
REMARK    3  A    between atoms: N_4  and  C_5 
REMARK    4  A    between atoms: C_8  and  O_9 
REMARK    5  A    between atoms: O_9  and  C_10 
REMARK    6  A    between atoms: C_11  and  C_10 
REMARK    7  A    between atoms: N_18  and  C_19 
REMARK    8  A    between atoms: C_23  and  C_24 
REMARK       I    between atoms: C_24  and  N_26 
REMARK    9  A    between atoms: N_26  and  C_27 
REMARK   10  A    between atoms: C_31  and  C_32 
ROOT
ATOM      1  C   UNL d   1      26.595 -16.539  -1.531  0.00  0.00     0.035 A 
ATOM      2  C   UNL d   1      27.367 -17.025  -0.479  0.00  0.00     0.029 A 
ATOM      3  C   UNL d   1      26.751 -17.724   0.564  0.00  0.00     0.003 A 
ATOM      4  C   UNL d   1      25.363 -17.898   0.575  0.00  0.00     0.017 A 
ATOM      5  C   UNL d   1      24.588 -17.449  -0.501  0.00  0.00     0.034 A 
ATOM      6  C   UNL d   1      25.228 -16.808  -1.555  0.00  0.00     0.046 A 
ENDROOT
BRANCH   1   7
ATOM      7  N   UNL d   1      27.193 -15.864  -2.606  0.00  0.00    -0.326 N 
ATOM      8  C   UNL d   1      26.869 -14.613  -3.103  0.00  0.00     0.239 C 
ATOM      9  O   UNL d   1      27.401 -14.224  -4.146  0.00  0.00    -0.271 OA
ATOM     10  H   UNL d   1      27.970 -16.314  -3.079  0.00  0.00     0.169 HD
BRANCH   8  11
ATOM     11  C   UNL d   1      25.913 -13.720  -2.281  0.00  0.00     0.223 C 
BRANCH  11  12
ATOM     12  N   UNL d   1      26.608 -12.650  -1.571  0.00  0.00    -0.381 N 
ATOM     13  H   UNL d   1      26.254 -11.711  -1.722  0.00  0.00     0.160 HD
BRANCH  12  14
ATOM     14  C   UNL d   1      27.290 -12.952  -0.398  0.00  0.00     0.028 A 
ATOM     15  C   UNL d   1      26.842 -13.938   0.487  0.00  0.00     0.032 A 
ATOM     16  C   UNL d   1      27.497 -14.163   1.717  0.00  0.00     0.039 A 
ATOM     17  C   UNL d   1      28.663 -13.467   2.044  0.00  0.00     0.069 A 
ATOM     18  C   UNL d   1      29.135 -12.518   1.137  0.00  0.00     0.039 A 
ATOM     19  C   UNL d   1      28.469 -12.284  -0.070  0.00  0.00     0.032 A 
BRANCH  17  20
ATOM     20  O   UNL d   1      29.271 -13.774   3.244  0.00  0.00    -0.349 OA
BRANCH  20  21
ATOM     21  C   UNL d   1      28.629 -14.824   3.988  0.00  0.00     0.207 C 
BRANCH  21  22
ATOM     22  C   UNL d   1      27.866 -14.363   5.245  0.00  0.00     0.145 C 
ATOM     23  C   UNL d   1      28.701 -14.135   6.488  0.00  0.00     0.036 C 
ATOM     24  C   UNL d   1      29.078 -12.681   6.381  0.00  0.00     0.029 C 
ATOM     25  C   UNL d   1      27.863 -12.062   5.725  0.00  0.00     0.168 C 
ATOM     26  O   UNL d   1      27.230 -13.094   4.950  0.00  0.00    -0.384 OA
ENDBRANCH  21  22
ENDBRANCH  20  21
ENDBRANCH  17  20
ENDBRANCH  12  14
ENDBRANCH  11  12
ENDBRANCH   8  11
ENDBRANCH   1   7
BRANCH   5  27
ATOM     27  C   UNL d   1      23.125 -17.709  -0.521  0.00  0.00     0.256 C 
ATOM     28  O   UNL d   1      22.387 -16.768  -0.838  0.00  0.00    -0.267 OA
ATOM     29  N   UNL d   1      22.663 -18.965  -0.133  0.00  0.00    -0.323 N 
ATOM     30  H   UNL d   1      23.269 -19.653   0.289  0.00  0.00     0.169 HD
BRANCH  29  31
ATOM     31  C   UNL d   1      21.299 -19.305  -0.158  0.00  0.00     0.035 A 
ATOM     32  C   UNL d   1      20.512 -19.034  -1.279  0.00  0.00     0.029 A 
ATOM     33  C   UNL d   1      19.154 -19.369  -1.270  0.00  0.00     0.003 A 
ATOM     34  C   UNL d   1      18.591 -19.980  -0.147  0.00  0.00     0.016 A 
ATOM     35  C   UNL d   1      19.369 -20.211   0.994  0.00  0.00     0.050 A 
ATOM     36  C   UNL d   1      20.722 -19.873   0.972  0.00  0.00     0.045 A 
BRANCH  35  37
ATOM     37  C   UNL d   1      18.771 -20.775   2.251  0.00  0.00     0.417 C 
ATOM     38  F   UNL d   1      19.662 -20.776   3.281  0.00  0.00    -0.166 F 
ATOM     39  F   UNL d   1      17.692 -20.071   2.683  0.00  0.00    -0.166 F 
ATOM     40  F   UNL d   1      18.354 -22.067   2.127  0.00  0.00    -0.166 F 
ENDBRANCH  35  37
ENDBRANCH  29  31
ENDBRANCH   5  27
TORSDOF 10
ENDMDL
MODEL 6
REMARK VINA RESULT:    -8.338      5.295      8.375
REMARK INTER + INTRA:         -13.898
REMARK INTER:                 -11.321
REMARK INTRA:                  -2.577
REMARK CONF_INDEPENDENT:        2.983
REMARK UNBOUND:                -2.577
REMARK  10 active torsions:
REMARK  status: ('A' for Active; 'I' for Inactive)
REMARK    1  A    between atoms: C_2  and  C_3 
REMARK       I    between atoms: C_2  and  N_18 
REMARK    2  A    between atoms: C_3  and  N_4 
REMARK    3  A    between atoms: N_4  and  C_5 
REMARK    4  A    between atoms: C_8  and  O_9 
REMARK    5  A    between atoms: O_9  and  C_10 
REMARK    6  A    between atoms: C_11  and  C_10 
REMARK    7  A    between atoms: N_18  and  C_19 
REMARK    8  A    between atoms: C_23  and  C_24 
REMARK       I    between atoms: C_24  and  N_26 
REMARK    9  A    between atoms: N_26  and  C_27 
REMARK   10  A    between atoms: C_31  and  C_32 
ROOT
ATOM      1  C   UNL d   1      25.621 -10.145  -3.802  0.00  0.00     0.035 A 
ATOM      2  C   UNL d   1      26.054 -10.028  -5.120  0.00  0.00     0.029 A 
ATOM      3  C   UNL d   1      26.357 -11.180  -5.853  0.00  0.00     0.003 A 
ATOM      4  C   UNL d   1      26.268 -12.441  -5.254  0.00  0.00     0.017 A 
ATOM      5  C   UNL d   1      25.793 -12.567  -3.944  0.00  0.00     0.034 A 
ATOM      6  C   UNL d   1      25.442 -11.413  -3.253  0.00  0.00     0.046 A 
ENDROOT
BRANCH   1   7
ATOM      7  N   UNL d   1      25.279  -9.007  -3.055  0.00  0.00    -0.326 N 
ATOM      8  C   UNL d   1      25.912  -8.515  -1.927  0.00  0.00     0.239 C 
ATOM      9  O   UNL d   1      25.397  -7.580  -1.308  0.00  0.00    -0.271 OA
ATOM     10  H   UNL d   1      24.492  -8.449  -3.371  0.00  0.00     0.169 HD
BRANCH   8  11
ATOM     11  C   UNL d   1      27.285  -9.106  -1.538  0.00  0.00     0.223 C 
BRANCH  11  12
ATOM     12  N   UNL d   1      27.464  -9.220  -0.093  0.00  0.00    -0.381 N 
ATOM     13  H   UNL d   1      27.225  -8.397   0.452  0.00  0.00     0.160 HD
BRANCH  12  14
ATOM     14  C   UNL d   1      27.414 -10.478   0.495  0.00  0.00     0.028 A 
ATOM     15  C   UNL d   1      26.981 -10.664   1.811  0.00  0.00     0.032 A 
ATOM     16  C   UNL d   1      27.028 -11.937   2.419  0.00  0.00     0.039 A 
ATOM     17  C   UNL d   1      27.424 -13.063   1.692  0.00  0.00     0.069 A 
ATOM     18  C   UNL d   1      27.810 -12.882   0.364  0.00  0.00     0.039 A 
ATOM     19  C   UNL d   1      27.783 -11.614  -0.226  0.00  0.00     0.032 A 
BRANCH  17  20
ATOM     20  O   UNL d   1      27.402 -14.279   2.342  0.00  0.00    -0.349 OA
BRANCH  20  21
ATOM     21  C   UNL d   1      28.430 -14.448   3.332  0.00  0.00     0.207 C 
BRANCH  21  22
ATOM     22  C   UNL d   1      27.925 -14.690   4.768  0.00  0.00     0.145 C 
ATOM     23  C   UNL d   1      28.988 -14.825   5.837  0.00  0.00     0.036 C 
ATOM     24  C   UNL d   1      29.171 -13.408   6.313  0.00  0.00     0.029 C 
ATOM     25  C   UNL d   1      27.780 -12.826   6.191  0.00  0.00     0.168 C 
ATOM     26  O   UNL d   1      27.105 -13.559   5.156  0.00  0.00    -0.384 OA
ENDBRANCH  21  22
ENDBRANCH  20  21
ENDBRANCH  17  20
ENDBRANCH  12  14
ENDBRANCH  11  12
ENDBRANCH   8  11
ENDBRANCH   1   7
BRANCH   5  27
ATOM     27  C   UNL d   1      25.625 -13.917  -3.342  0.00  0.00     0.256 C 
ATOM     28  O   UNL d   1      25.154 -14.803  -4.065  0.00  0.00    -0.267 OA
ATOM     29  N   UNL d   1      25.948 -14.096  -1.999  0.00  0.00    -0.323 N 
ATOM     30  H   UNL d   1      26.159 -13.319  -1.389  0.00  0.00     0.169 HD
BRANCH  29  31
ATOM     31  C   UNL d   1      25.852 -15.346  -1.363  0.00  0.00     0.035 A 
ATOM     32  C   UNL d   1      26.985 -15.976  -0.845  0.00  0.00     0.029 A 
ATOM     33  C   UNL d   1      26.863 -17.227  -0.231  0.00  0.00     0.003 A 
ATOM     34  C   UNL d   1      25.611 -17.838  -0.130  0.00  0.00     0.016 A 
ATOM     35  C   UNL d   1      24.482 -17.227  -0.690  0.00  0.00     0.050 A 
ATOM     36  C   UNL d   1      24.617 -15.980  -1.298  0.00  0.00     0.045 A 
BRANCH  35  37
ATOM     37  C   UNL d   1      23.141 -17.903  -0.684  0.00  0.00     0.417 C 
ATOM     38  F   UNL d   1      22.917 -18.575   0.480  0.00  0.00    -0.166 F 
ATOM     39  F   UNL d   1      22.109 -17.028  -0.822  0.00  0.00    -0.166 F 
ATOM     40  F   UNL d   1      22.988 -18.827  -1.675  0.00  0.00    -0.166 F 
ENDBRANCH  35  37
ENDBRANCH  29  31
ENDBRANCH   5  27
TORSDOF 10
ENDMDL
