MODEL 1
REMARK VINA RESULT:   -31.134      0.000      0.000
REMARK INTER + INTRA:         -34.032
REMARK INTER:                 -33.520
REMARK INTRA:                  -0.511
REMARK CONF_INDEPENDENT:        2.386
REMARK UNBOUND:                -0.511
REMARK  8 active torsions:
REMARK  status: ('A' for Active; 'I' for Inactive)
REMARK    1  A    between atoms: C_2  and  C_3 
REMARK       I    between atoms: C_2  and  N_16 
REMARK    2  A    between atoms: C_3  and  S_4 
REMARK    3  A    between atoms: S_4  and  C_5 
REMARK    4  A    between atoms: C_5  and  C_6 
REMARK       I    between atoms: C_6  and  N_8 
REMARK    5  A    between atoms: N_8  and  N_9 
REMARK    6  A    between atoms: N_9  and  C_10 
REMARK    7  A    between atoms: N_16  and  N_17 
REMARK    8  A    between atoms: N_17  and  C_18 
ROOT
ATOM      1  S   UNL d   1      24.401 -17.276  -1.325  0.00  0.00    -0.150 SA
ENDROOT
BRANCH   1   2
ATOM      2  C   UNL d   1      25.567 -16.450  -0.155  0.00  0.00     0.178 C 
BRANCH   2   3
ATOM      3  C   UNL d   1      26.694 -17.436   0.251  0.00  0.00     0.245 C 
ATOM      4  O   UNL d   1      26.490 -18.604   0.605  0.00  0.00    -0.271 OA
ATOM      5  N   UNL d   1      28.011 -17.017   0.201  0.00  0.00    -0.269 N 
ATOM      6  H   UNL d   1      28.691 -17.663   0.600  0.00  0.00     0.190 HD
BRANCH   5   7
ATOM      7  N   UNL d   1      28.393 -15.700   0.066  0.00  0.00    -0.298 N 
ATOM      8  H   UNL d   1      29.099 -15.414  -0.601  0.00  0.00     0.187 HD
BRANCH   7   9
ATOM      9  C   UNL d   1      27.912 -14.729   0.958  0.00  0.00     0.048 A 
ATOM     10  C   UNL d   1      28.370 -14.781   2.284  0.00  0.00     0.031 A 
ATOM     11  C   UNL d   1      27.903 -13.894   3.257  0.00  0.00     0.002 A 
ATOM     12  C   UNL d   1      27.010 -12.889   2.904  0.00  0.00     0.000 A 
ATOM     13  C   UNL d   1      26.569 -12.793   1.584  0.00  0.00     0.002 A 
ATOM     14  C   UNL d   1      27.024 -13.701   0.614  0.00  0.00     0.031 A 
ENDBRANCH   7   9
ENDBRANCH   5   7
ENDBRANCH   2   3
ENDBRANCH   1   2
BRANCH   1  15
ATOM     15  C   UNL d   1      22.721 -17.145  -0.558  0.00  0.00     0.178 C 
BRANCH  15  16
ATOM     16  C   UNL d   1      21.875 -18.392  -0.953  0.00  0.00     0.241 C 
ATOM     17  O   UNL d   1      22.325 -19.545  -1.000  0.00  0.00    -0.271 OA
ATOM     18  N   UNL d   1      20.533 -18.152  -1.270  0.00  0.00    -0.286 N 
ATOM     19  H   UNL d   1      20.080 -17.290  -0.986  0.00  0.00     0.184 HD
BRANCH  18  20
ATOM     20  N   UNL d   1      19.685 -19.299  -1.195  0.00  0.00    -0.203 NA
ATOM     21  H   UNL d   1      18.824 -19.158  -1.746  0.00  0.00     0.153 HD
BRANCH  20  22
ATOM     22  C   UNL d   1      19.392 -19.837   0.084  0.00  0.00     0.027 A 
ATOM     23  C   UNL d   1      20.140 -19.375   1.183  0.00  0.00     0.025 A 
ATOM     24  C   UNL d   1      19.939 -19.881   2.475  0.00  0.00     0.002 A 
ATOM     25  C   UNL d   1      18.945 -20.826   2.700  0.00  0.00     0.000 A 
ATOM     26  C   UNL d   1      18.179 -21.282   1.629  0.00  0.00     0.002 A 
ATOM     27  C   UNL d   1      18.405 -20.796   0.331  0.00  0.00     0.025 A 
ENDBRANCH  20  22
ENDBRANCH  18  20
ENDBRANCH  15  16
ENDBRANCH   1  15
TORSDOF 8
ENDMDL
MODEL 2
REMARK VINA RESULT:   -30.999      2.166      3.111
REMARK INTER + INTRA:         -34.183
REMARK INTER:                 -33.385
REMARK INTRA:                  -0.797
REMARK CONF_INDEPENDENT:        2.386
REMARK UNBOUND:                -0.797
REMARK  8 active torsions:
REMARK  status: ('A' for Active; 'I' for Inactive)
REMARK    1  A    between atoms: C_2  and  C_3 
REMARK       I    between atoms: C_2  and  N_16 
REMARK    2  A    between atoms: C_3  and  S_4 
REMARK    3  A    between atoms: S_4  and  C_5 
REMARK    4  A    between atoms: C_5  and  C_6 
REMARK       I    between atoms: C_6  and  N_8 
REMARK    5  A    between atoms: N_8  and  N_9 
REMARK    6  A    between atoms: N_9  and  C_10 
REMARK    7  A    between atoms: N_16  and  N_17 
REMARK    8  A    between atoms: N_17  and  C_18 
ROOT
ATOM      1  S   UNL d   1      24.501 -17.058  -1.348  0.00  0.00    -0.150 SA
ENDROOT
BRANCH   1   2
ATOM      2  C   UNL d   1      25.741 -16.549  -0.077  0.00  0.00     0.178 C 
BRANCH   2   3
ATOM      3  C   UNL d   1      27.090 -17.269  -0.339  0.00  0.00     0.245 C 
ATOM      4  O   UNL d   1      27.380 -18.376   0.131  0.00  0.00    -0.271 OA
ATOM      5  N   UNL d   1      28.030 -16.670  -1.158  0.00  0.00    -0.269 N 
ATOM      6  H   UNL d   1      28.940 -17.128  -1.187  0.00  0.00     0.190 HD
BRANCH   5   7
ATOM      7  N   UNL d   1      27.971 -15.353  -1.559  0.00  0.00    -0.298 N 
ATOM      8  H   UNL d   1      28.490 -14.625  -1.082  0.00  0.00     0.187 HD
BRANCH   7   9
ATOM      9  C   UNL d   1      27.068 -14.957  -2.558  0.00  0.00     0.048 A 
ATOM     10  C   UNL d   1      26.183 -13.910  -2.257  0.00  0.00     0.031 A 
ATOM     11  C   UNL d   1      25.211 -13.487  -3.166  0.00  0.00     0.002 A 
ATOM     12  C   UNL d   1      25.148 -14.065  -4.429  0.00  0.00     0.000 A 
ATOM     13  C   UNL d   1      26.041 -15.081  -4.766  0.00  0.00     0.002 A 
ATOM     14  C   UNL d   1      27.003 -15.519  -3.840  0.00  0.00     0.031 A 
ENDBRANCH   7   9
ENDBRANCH   5   7
ENDBRANCH   2   3
ENDBRANCH   1   2
BRANCH   1  15
ATOM     15  C   UNL d   1      22.864 -17.098  -0.484  0.00  0.00     0.178 C 
BRANCH  15  16
ATOM     16  C   UNL d   1      22.062 -18.347  -0.957  0.00  0.00     0.241 C 
ATOM     17  O   UNL d   1      22.551 -19.480  -1.067  0.00  0.00    -0.271 OA
ATOM     18  N   UNL d   1      20.714 -18.133  -1.270  0.00  0.00    -0.286 N 
ATOM     19  H   UNL d   1      20.231 -17.305  -0.939  0.00  0.00     0.184 HD
BRANCH  18  20
ATOM     20  N   UNL d   1      19.905 -19.310  -1.267  0.00  0.00    -0.203 NA
ATOM     21  H   UNL d   1      19.106 -19.210  -1.912  0.00  0.00     0.153 HD
BRANCH  20  22
ATOM     22  C   UNL d   1      19.491 -19.840  -0.019  0.00  0.00     0.027 A 
ATOM     23  C   UNL d   1      20.214 -19.468   1.131  0.00  0.00     0.025 A 
ATOM     24  C   UNL d   1      19.894 -19.975   2.397  0.00  0.00     0.002 A 
ATOM     25  C   UNL d   1      18.807 -20.829   2.545  0.00  0.00     0.000 A 
ATOM     26  C   UNL d   1      18.065 -21.194   1.424  0.00  0.00     0.002 A 
ATOM     27  C   UNL d   1      18.408 -20.709   0.152  0.00  0.00     0.025 A 
ENDBRANCH  20  22
ENDBRANCH  18  20
ENDBRANCH  15  16
ENDBRANCH   1  15
TORSDOF 8
ENDMDL
MODEL 3
REMARK VINA RESULT:   -30.915      1.407      2.356
REMARK INTER + INTRA:         -33.999
REMARK INTER:                 -33.302
REMARK INTRA:                  -0.697
REMARK CONF_INDEPENDENT:        2.386
REMARK UNBOUND:                -0.697
REMARK  8 active torsions:
REMARK  status: ('A' for Active; 'I' for Inactive)
REMARK    1  A    between atoms: C_2  and  C_3 
REMARK       I    between atoms: C_2  and  N_16 
REMARK    2  A    between atoms: C_3  and  S_4 
REMARK    3  A    between atoms: S_4  and  C_5 
REMARK    4  A    between atoms: C_5  and  C_6 
REMARK       I    between atoms: C_6  and  N_8 
REMARK    5  A    between atoms: N_8  and  N_9 
REMARK    6  A    between atoms: N_9  and  C_10 
REMARK    7  A    between atoms: N_16  and  N_17 
REMARK    8  A    between atoms: N_17  and  C_18 
ROOT
ATOM      1  S   UNL d   1      24.400 -16.829  -1.306  0.00  0.00    -0.150 SA
ENDROOT
BRANCH   1   2
ATOM      2  C   UNL d   1      25.588 -16.630   0.095  0.00  0.00     0.178 C 
BRANCH   2   3
ATOM      3  C   UNL d   1      26.567 -17.833   0.131  0.00  0.00     0.245 C 
ATOM      4  O   UNL d   1      26.203 -19.014   0.204  0.00  0.00    -0.271 OA
ATOM      5  N   UNL d   1      27.929 -17.601   0.056  0.00  0.00    -0.269 N 
ATOM      6  H   UNL d   1      28.520 -18.416   0.213  0.00  0.00     0.190 HD
BRANCH   5   7
ATOM      7  N   UNL d   1      28.505 -16.360   0.213  0.00  0.00    -0.298 N 
ATOM      8  H   UNL d   1      29.097 -16.143   1.005  0.00  0.00     0.187 HD
BRANCH   7   9
ATOM      9  C   UNL d   1      28.168 -15.308  -0.654  0.00  0.00     0.048 A 
ATOM     10  C   UNL d   1      27.996 -15.616  -2.012  0.00  0.00     0.031 A 
ATOM     11  C   UNL d   1      27.717 -14.627  -2.958  0.00  0.00     0.002 A 
ATOM     12  C   UNL d   1      27.540 -13.310  -2.550  0.00  0.00     0.000 A 
ATOM     13  C   UNL d   1      27.668 -12.985  -1.200  0.00  0.00     0.002 A 
ATOM     14  C   UNL d   1      27.970 -13.980  -0.254  0.00  0.00     0.031 A 
ENDBRANCH   7   9
ENDBRANCH   5   7
ENDBRANCH   2   3
ENDBRANCH   1   2
BRANCH   1  15
ATOM     15  C   UNL d   1      22.711 -16.864  -0.548  0.00  0.00     0.178 C 
BRANCH  15  16
ATOM     16  C   UNL d   1      21.995 -18.188  -0.949  0.00  0.00     0.241 C 
ATOM     17  O   UNL d   1      22.542 -19.299  -0.944  0.00  0.00    -0.271 OA
ATOM     18  N   UNL d   1      20.654 -18.071  -1.336  0.00  0.00    -0.286 N 
ATOM     19  H   UNL d   1      20.116 -17.245  -1.097  0.00  0.00     0.184 HD
BRANCH  18  20
ATOM     20  N   UNL d   1      19.903 -19.284  -1.270  0.00  0.00    -0.203 NA
ATOM     21  H   UNL d   1      19.072 -19.238  -1.880  0.00  0.00     0.153 HD
BRANCH  20  22
ATOM     22  C   UNL d   1      19.572 -19.803   0.007  0.00  0.00     0.027 A 
ATOM     23  C   UNL d   1      18.460 -20.662   0.104  0.00  0.00     0.025 A 
ATOM     24  C   UNL d   1      18.042 -21.188   1.333  0.00  0.00     0.002 A 
ATOM     25  C   UNL d   1      18.764 -20.906   2.488  0.00  0.00     0.000 A 
ATOM     26  C   UNL d   1      19.879 -20.074   2.411  0.00  0.00     0.002 A 
ATOM     27  C   UNL d   1      20.276 -19.523   1.182  0.00  0.00     0.025 A 
ENDBRANCH  20  22
ENDBRANCH  18  20
ENDBRANCH  15  16
ENDBRANCH   1  15
TORSDOF 8
ENDMDL
