MODEL 1
REMARK VINA RESULT:    -9.428      0.000      0.000
REMARK INTER + INTRA:         -12.971
REMARK INTER:                 -12.113
REMARK INTRA:                  -0.859
REMARK CONF_INDEPENDENT:        2.685
REMARK UNBOUND:                -0.859
REMARK  9 active torsions:
REMARK  status: ('A' for Active; 'I' for Inactive)
REMARK       I    between atoms: C_2  and  N_3 
REMARK       I    between atoms: C_2  and  N_12 
REMARK    1  A    between atoms: N_3  and  C_4 
REMARK    2  A    between atoms: C_4  and  C_5 
REMARK    3  A    between atoms: C_5  and  C_6 
REMARK    4  A    between atoms: C_6  and  N_7 
REMARK    5  A    between atoms: N_12  and  C_13 
REMARK    6  A    between atoms: C_15  and  C_16 
REMARK    7  A    between atoms: N_26  and  C_27 
REMARK    8  A    between atoms: C_27  and  C_28 
REMARK    9  A    between atoms: C_28  and  O_29 
ROOT
ATOM      1  C   UNL d   1      25.914 -16.763  -0.694  0.00  0.00     0.130 C 
ATOM      2  C   UNL d   1      24.919 -17.569  -0.196  0.00  0.00     0.086 C 
ATOM      3  C   UNL d   1      23.795 -17.378  -1.033  0.00  0.00     0.114 C 
ATOM      4  N   UNL d   1      24.046 -16.429  -1.951  0.00  0.00    -0.168 NA
ATOM      5  N   UNL d   1      25.316 -16.006  -1.685  0.00  0.00    -0.251 N 
ENDROOT
BRANCH   1   6
ATOM      6  N   UNL d   1      27.217 -16.732  -0.229  0.00  0.00    -0.293 N 
ATOM      7  C   UNL d   1      27.968 -15.587   0.147  0.00  0.00     0.321 C 
ATOM      8  O   UNL d   1      29.057 -15.769   0.621  0.00  0.00    -0.247 OA
ATOM      9  N   UNL d   1      27.335 -14.387  -0.029  0.00  0.00    -0.343 N 
ATOM     10  H   UNL d   1      26.380 -14.360  -0.335  0.00  0.00     0.164 HD
ATOM     11  H   UNL d   1      27.725 -17.586  -0.021  0.00  0.00     0.172 HD
BRANCH   9  12
ATOM     12  C   UNL d   1      28.014 -13.154   0.277  0.00  0.00     0.126 C 
BRANCH  12  13
ATOM     13  C   UNL d   1      27.554 -12.596   1.617  0.00  0.00     0.040 C 
BRANCH  13  14
ATOM     14  C   UNL d   1      27.150 -13.719   2.561  0.00  0.00     0.130 C 
BRANCH  14  15
ATOM     15  N   UNL d   1      28.225 -14.071   3.497  0.00  0.00    -0.352 N 
ATOM     16  C   UNL d   1      28.041 -14.731   4.709  0.00  0.00     0.108 A 
ATOM     17  C   UNL d   1      29.267 -14.824   5.303  0.00  0.00     0.106 A 
ATOM     18  N   UNL d   1      30.155 -14.225   4.444  0.00  0.00    -0.361 N 
ATOM     19  C   UNL d   1      29.526 -13.760   3.361  0.00  0.00     0.182 A 
ATOM     20  H   UNL d   1      31.156 -14.132   4.609  0.00  0.00     0.166 HD
ENDBRANCH  14  15
ENDBRANCH  13  14
ENDBRANCH  12  13
ENDBRANCH   9  12
ENDBRANCH   1   6
BRANCH   5  21
ATOM     21  C   UNL d   1      25.934 -14.997  -2.543  0.00  0.00     0.179 C 
BRANCH  21  22
ATOM     22  C   UNL d   1      24.930 -14.111  -3.272  0.00  0.00     0.186 C 
BRANCH  22  23
ATOM     23  O   UNL d   1      24.776 -14.416  -4.640  0.00  0.00    -0.399 OA
ATOM     24  H   UNL d   1      24.377 -13.655  -5.094  0.00  0.00     0.209 HD
ENDBRANCH  22  23
ENDBRANCH  21  22
ENDBRANCH   5  21
BRANCH   3  25
ATOM     25  C   UNL d   1      22.428 -17.931  -0.708  0.00  0.00     0.107 C 
ATOM     26  C   UNL d   1      22.314 -19.006   0.150  0.00  0.00     0.050 C 
ATOM     27  C   UNL d   1      20.992 -18.950   0.630  0.00  0.00    -0.016 C 
ATOM     28  C   UNL d   1      20.186 -19.705   1.504  0.00  0.00     0.039 C 
ATOM     29  C   UNL d   1      20.348 -18.634  -0.563  0.00  0.00     0.082 C 
ATOM     30  C   UNL d   1      20.253 -20.929   0.937  0.00  0.00     0.026 C 
ATOM     31  C   UNL d   1      19.383 -20.811  -0.143  0.00  0.00    -0.018 C 
ATOM     32  C   UNL d   1      19.277 -19.496  -0.886  0.00  0.00     0.034 C 
ATOM     33  O   UNL d   1      21.141 -17.707  -1.243  0.00  0.00    -0.308 OA
ENDBRANCH   3  25
TORSDOF 9
ENDMDL
MODEL 2
REMARK VINA RESULT:    -8.304      1.321      2.240
REMARK INTER + INTRA:         -12.468
REMARK INTER:                 -10.988
REMARK INTRA:                  -1.480
REMARK CONF_INDEPENDENT:        2.685
REMARK UNBOUND:                -1.480
REMARK  9 active torsions:
REMARK  status: ('A' for Active; 'I' for Inactive)
REMARK       I    between atoms: C_2  and  N_3 
REMARK       I    between atoms: C_2  and  N_12 
REMARK    1  A    between atoms: N_3  and  C_4 
REMARK    2  A    between atoms: C_4  and  C_5 
REMARK    3  A    between atoms: C_5  and  C_6 
REMARK    4  A    between atoms: C_6  and  N_7 
REMARK    5  A    between atoms: N_12  and  C_13 
REMARK    6  A    between atoms: C_15  and  C_16 
REMARK    7  A    between atoms: N_26  and  C_27 
REMARK    8  A    between atoms: C_27  and  C_28 
REMARK    9  A    between atoms: C_28  and  O_29 
ROOT
ATOM      1  C   UNL d   1      25.253 -16.772  -1.365  0.00  0.00     0.130 C 
ATOM      2  C   UNL d   1      23.880 -16.769  -1.399  0.00  0.00     0.086 C 
ATOM      3  C   UNL d   1      23.457 -17.752  -0.475  0.00  0.00     0.114 C 
ATOM      4  N   UNL d   1      24.514 -18.403   0.040  0.00  0.00    -0.168 NA
ATOM      5  N   UNL d   1      25.603 -17.848  -0.569  0.00  0.00    -0.251 N 
ENDROOT
BRANCH   1   6
ATOM      6  N   UNL d   1      26.066 -15.881  -2.045  0.00  0.00    -0.293 N 
ATOM      7  C   UNL d   1      26.692 -14.718  -1.523  0.00  0.00     0.321 C 
ATOM      8  O   UNL d   1      27.441 -14.120  -2.246  0.00  0.00    -0.247 OA
ATOM      9  N   UNL d   1      26.403 -14.434  -0.217  0.00  0.00    -0.343 N 
ATOM     10  H   UNL d   1      25.843 -15.065   0.326  0.00  0.00     0.164 HD
ATOM     11  H   UNL d   1      26.367 -16.060  -2.998  0.00  0.00     0.172 HD
BRANCH   9  12
ATOM     12  C   UNL d   1      26.945 -13.255   0.409  0.00  0.00     0.126 C 
BRANCH  12  13
ATOM     13  C   UNL d   1      28.009 -13.622   1.433  0.00  0.00     0.040 C 
BRANCH  13  14
ATOM     14  C   UNL d   1      27.386 -13.865   2.800  0.00  0.00     0.130 C 
BRANCH  14  15
ATOM     15  N   UNL d   1      28.388 -13.881   3.873  0.00  0.00    -0.352 N 
ATOM     16  C   UNL d   1      28.098 -13.896   5.235  0.00  0.00     0.108 A 
ATOM     17  C   UNL d   1      29.290 -13.855   5.898  0.00  0.00     0.106 A 
ATOM     18  N   UNL d   1      30.266 -13.819   4.931  0.00  0.00    -0.361 N 
ATOM     19  C   UNL d   1      29.722 -13.821   3.711  0.00  0.00     0.182 A 
ATOM     20  H   UNL d   1      31.267 -13.780   5.112  0.00  0.00     0.166 HD
ENDBRANCH  14  15
ENDBRANCH  13  14
ENDBRANCH  12  13
ENDBRANCH   9  12
ENDBRANCH   1   6
BRANCH   5  21
ATOM     21  C   UNL d   1      26.943 -18.294  -0.195  0.00  0.00     0.179 C 
BRANCH  21  22
ATOM     22  C   UNL d   1      27.875 -17.162   0.222  0.00  0.00     0.186 C 
BRANCH  22  23
ATOM     23  O   UNL d   1      27.382 -16.367   1.278  0.00  0.00    -0.399 OA
ATOM     24  H   UNL d   1      28.130 -16.022   1.793  0.00  0.00     0.209 HD
ENDBRANCH  22  23
ENDBRANCH  21  22
ENDBRANCH   5  21
BRANCH   3  25
ATOM     25  C   UNL d   1      22.020 -18.203  -0.359  0.00  0.00     0.107 C 
ATOM     26  C   UNL d   1      21.671 -19.126   0.605  0.00  0.00     0.050 C 
ATOM     27  C   UNL d   1      20.286 -18.953   0.790  0.00  0.00    -0.016 C 
ATOM     28  C   UNL d   1      19.277 -19.536   1.581  0.00  0.00     0.039 C 
ATOM     29  C   UNL d   1      19.912 -18.806  -0.542  0.00  0.00     0.082 C 
ATOM     30  C   UNL d   1      19.377 -20.835   1.225  0.00  0.00     0.026 C 
ATOM     31  C   UNL d   1      18.747 -20.859  -0.015  0.00  0.00    -0.018 C 
ATOM     32  C   UNL d   1      18.873 -19.673  -0.949  0.00  0.00     0.034 C 
ATOM     33  O   UNL d   1      20.881 -18.023  -1.174  0.00  0.00    -0.308 OA
ENDBRANCH   3  25
TORSDOF 9
ENDMDL
MODEL 3
REMARK VINA RESULT:    -7.686      3.093      5.087
REMARK INTER + INTRA:         -12.331
REMARK INTER:                 -10.371
REMARK INTRA:                  -1.961
REMARK CONF_INDEPENDENT:        2.685
REMARK UNBOUND:                -1.961
REMARK  9 active torsions:
REMARK  status: ('A' for Active; 'I' for Inactive)
REMARK       I    between atoms: C_2  and  N_3 
REMARK       I    between atoms: C_2  and  N_12 
REMARK    1  A    between atoms: N_3  and  C_4 
REMARK    2  A    between atoms: C_4  and  C_5 
REMARK    3  A    between atoms: C_5  and  C_6 
REMARK    4  A    between atoms: C_6  and  N_7 
REMARK    5  A    between atoms: N_12  and  C_13 
REMARK    6  A    between atoms: C_15  and  C_16 
REMARK    7  A    between atoms: N_26  and  C_27 
REMARK    8  A    between atoms: C_27  and  C_28 
REMARK    9  A    between atoms: C_28  and  O_29 
ROOT
ATOM      1  C   UNL d   1      25.783 -16.791  -0.606  0.00  0.00     0.130 C 
ATOM      2  C   UNL d   1      24.800 -17.673  -0.226  0.00  0.00     0.086 C 
ATOM      3  C   UNL d   1      23.628 -17.283  -0.914  0.00  0.00     0.114 C 
ATOM      4  N   UNL d   1      23.844 -16.157  -1.616  0.00  0.00    -0.168 NA
ATOM      5  N   UNL d   1      25.143 -15.823  -1.358  0.00  0.00    -0.251 N 
ENDROOT
BRANCH   1   6
ATOM      6  N   UNL d   1      27.116 -16.884  -0.243  0.00  0.00    -0.293 N 
ATOM      7  C   UNL d   1      28.250 -16.696  -1.077  0.00  0.00     0.321 C 
ATOM      8  O   UNL d   1      29.331 -16.724  -0.557  0.00  0.00    -0.247 OA
ATOM      9  N   UNL d   1      27.973 -16.450  -2.394  0.00  0.00    -0.343 N 
ATOM     10  H   UNL d   1      27.023 -16.344  -2.700  0.00  0.00     0.164 HD
ATOM     11  H   UNL d   1      27.392 -17.007   0.726  0.00  0.00     0.172 HD
BRANCH   9  12
ATOM     12  C   UNL d   1      29.043 -16.286  -3.345  0.00  0.00     0.126 C 
BRANCH  12  13
ATOM     13  C   UNL d   1      30.045 -17.427  -3.241  0.00  0.00     0.040 C 
BRANCH  13  14
ATOM     14  C   UNL d   1      30.823 -17.585  -4.539  0.00  0.00     0.130 C 
BRANCH  14  15
ATOM     15  N   UNL d   1      30.656 -16.430  -5.430  0.00  0.00    -0.352 N 
ATOM     16  C   UNL d   1      31.351 -15.229  -5.315  0.00  0.00     0.108 A 
ATOM     17  C   UNL d   1      30.878 -14.399  -6.291  0.00  0.00     0.106 A 
ATOM     18  N   UNL d   1      29.918 -15.112  -6.968  0.00  0.00    -0.361 N 
ATOM     19  C   UNL d   1      29.775 -16.331  -6.441  0.00  0.00     0.182 A 
ATOM     20  H   UNL d   1      29.375 -14.760  -7.755  0.00  0.00     0.166 HD
ENDBRANCH  14  15
ENDBRANCH  13  14
ENDBRANCH  12  13
ENDBRANCH   9  12
ENDBRANCH   1   6
BRANCH   5  21
ATOM     21  C   UNL d   1      25.731 -14.658  -2.015  0.00  0.00     0.179 C 
BRANCH  21  22
ATOM     22  C   UNL d   1      25.582 -14.666  -3.533  0.00  0.00     0.186 C 
BRANCH  22  23
ATOM     23  O   UNL d   1      25.524 -15.956  -4.101  0.00  0.00    -0.399 OA
ATOM     24  H   UNL d   1      24.942 -16.516  -3.561  0.00  0.00     0.209 HD
ENDBRANCH  22  23
ENDBRANCH  21  22
ENDBRANCH   5  21
BRANCH   3  25
ATOM     25  C   UNL d   1      22.270 -17.873  -0.619  0.00  0.00     0.107 C 
ATOM     26  C   UNL d   1      22.169 -18.964   0.220  0.00  0.00     0.050 C 
ATOM     27  C   UNL d   1      20.839 -18.948   0.681  0.00  0.00    -0.016 C 
ATOM     28  C   UNL d   1      20.039 -19.736   1.530  0.00  0.00     0.039 C 
ATOM     29  C   UNL d   1      20.206 -18.628  -0.516  0.00  0.00     0.082 C 
ATOM     30  C   UNL d   1      20.143 -20.949   0.945  0.00  0.00     0.026 C 
ATOM     31  C   UNL d   1      19.287 -20.834  -0.145  0.00  0.00    -0.018 C 
ATOM     32  C   UNL d   1      19.160 -19.509  -0.869  0.00  0.00     0.034 C 
ATOM     33  O   UNL d   1      20.986 -17.671  -1.170  0.00  0.00    -0.308 OA
ENDBRANCH   3  25
TORSDOF 9
ENDMDL
MODEL 4
REMARK VINA RESULT:    -7.412      2.116      3.667
REMARK INTER + INTRA:         -12.033
REMARK INTER:                 -10.097
REMARK INTRA:                  -1.936
REMARK CONF_INDEPENDENT:        2.685
REMARK UNBOUND:                -1.936
REMARK  9 active torsions:
REMARK  status: ('A' for Active; 'I' for Inactive)
REMARK       I    between atoms: C_2  and  N_3 
REMARK       I    between atoms: C_2  and  N_12 
REMARK    1  A    between atoms: N_3  and  C_4 
REMARK    2  A    between atoms: C_4  and  C_5 
REMARK    3  A    between atoms: C_5  and  C_6 
REMARK    4  A    between atoms: C_6  and  N_7 
REMARK    5  A    between atoms: N_12  and  C_13 
REMARK    6  A    between atoms: C_15  and  C_16 
REMARK    7  A    between atoms: N_26  and  C_27 
REMARK    8  A    between atoms: C_27  and  C_28 
REMARK    9  A    between atoms: C_28  and  O_29 
ROOT
ATOM      1  C   UNL d   1      24.660 -17.560  -1.399  0.00  0.00     0.130 C 
ATOM      2  C   UNL d   1      23.334 -17.835  -1.626  0.00  0.00     0.086 C 
ATOM      3  C   UNL d   1      22.756 -18.079  -0.358  0.00  0.00     0.114 C 
ATOM      4  N   UNL d   1      23.695 -18.051   0.602  0.00  0.00    -0.168 NA
ATOM      5  N   UNL d   1      24.867 -17.809  -0.055  0.00  0.00    -0.251 N 
ENDROOT
BRANCH   1   6
ATOM      6  N   UNL d   1      25.564 -17.160  -2.369  0.00  0.00    -0.293 N 
ATOM      7  C   UNL d   1      25.648 -15.887  -2.994  0.00  0.00     0.321 C 
ATOM      8  O   UNL d   1      26.565 -15.698  -3.746  0.00  0.00    -0.247 OA
ATOM      9  N   UNL d   1      24.686 -14.989  -2.623  0.00  0.00    -0.343 N 
ATOM     10  H   UNL d   1      24.027 -15.222  -1.902  0.00  0.00     0.164 HD
ATOM     11  H   UNL d   1      26.337 -17.755  -2.649  0.00  0.00     0.172 HD
BRANCH   9  12
ATOM     12  C   UNL d   1      24.642 -13.679  -3.222  0.00  0.00     0.126 C 
BRANCH  12  13
ATOM     13  C   UNL d   1      25.539 -12.706  -2.470  0.00  0.00     0.040 C 
BRANCH  13  14
ATOM     14  C   UNL d   1      26.970 -13.222  -2.411  0.00  0.00     0.130 C 
BRANCH  14  15
ATOM     15  N   UNL d   1      27.257 -13.915  -1.149  0.00  0.00    -0.352 N 
ATOM     16  C   UNL d   1      26.656 -13.627   0.074  0.00  0.00     0.108 A 
ATOM     17  C   UNL d   1      27.226 -14.449   1.003  0.00  0.00     0.106 A 
ATOM     18  N   UNL d   1      28.150 -15.209   0.327  0.00  0.00    -0.361 N 
ATOM     19  C   UNL d   1      28.178 -14.879  -0.966  0.00  0.00     0.182 A 
ATOM     20  H   UNL d   1      28.745 -15.919   0.751  0.00  0.00     0.166 HD
ENDBRANCH  14  15
ENDBRANCH  13  14
ENDBRANCH  12  13
ENDBRANCH   9  12
ENDBRANCH   1   6
BRANCH   5  21
ATOM     21  C   UNL d   1      26.104 -17.662   0.708  0.00  0.00     0.179 C 
BRANCH  21  22
ATOM     22  C   UNL d   1      27.235 -18.565   0.228  0.00  0.00     0.186 C 
BRANCH  22  23
ATOM     23  O   UNL d   1      28.393 -17.872  -0.183  0.00  0.00    -0.399 OA
ATOM     24  H   UNL d   1      28.905 -17.614   0.601  0.00  0.00     0.209 HD
ENDBRANCH  22  23
ENDBRANCH  21  22
ENDBRANCH   5  21
BRANCH   3  25
ATOM     25  C   UNL d   1      21.355 -18.616  -0.187  0.00  0.00     0.107 C 
ATOM     26  C   UNL d   1      21.032 -19.325   0.952  0.00  0.00     0.050 C 
ATOM     27  C   UNL d   1      19.630 -19.237   1.051  0.00  0.00    -0.016 C 
ATOM     28  C   UNL d   1      18.631 -19.712   1.923  0.00  0.00     0.039 C 
ATOM     29  C   UNL d   1      19.312 -19.427  -0.291  0.00  0.00     0.082 C 
ATOM     30  C   UNL d   1      18.850 -21.044   1.877  0.00  0.00     0.026 C 
ATOM     31  C   UNL d   1      18.286 -21.402   0.656  0.00  0.00    -0.018 C 
ATOM     32  C   UNL d   1      18.366 -20.451  -0.520  0.00  0.00     0.034 C 
ATOM     33  O   UNL d   1      20.247 -18.725  -1.055  0.00  0.00    -0.308 OA
ENDBRANCH   3  25
TORSDOF 9
ENDMDL
MODEL 5
REMARK VINA RESULT:    -7.104      3.904      6.089
REMARK INTER + INTRA:         -12.056
REMARK INTER:                  -9.789
REMARK INTRA:                  -2.267
REMARK CONF_INDEPENDENT:        2.685
REMARK UNBOUND:                -2.267
REMARK  9 active torsions:
REMARK  status: ('A' for Active; 'I' for Inactive)
REMARK       I    between atoms: C_2  and  N_3 
REMARK       I    between atoms: C_2  and  N_12 
REMARK    1  A    between atoms: N_3  and  C_4 
REMARK    2  A    between atoms: C_4  and  C_5 
REMARK    3  A    between atoms: C_5  and  C_6 
REMARK    4  A    between atoms: C_6  and  N_7 
REMARK    5  A    between atoms: N_12  and  C_13 
REMARK    6  A    between atoms: C_15  and  C_16 
REMARK    7  A    between atoms: N_26  and  C_27 
REMARK    8  A    between atoms: C_27  and  C_28 
REMARK    9  A    between atoms: C_28  and  O_29 
ROOT
ATOM      1  C   UNL d   1      28.013 -14.349  -6.111  0.00  0.00     0.130 C 
ATOM      2  C   UNL d   1      27.496 -15.199  -5.164  0.00  0.00     0.086 C 
ATOM      3  C   UNL d   1      26.412 -14.516  -4.565  0.00  0.00     0.114 C 
ATOM      4  N   UNL d   1      26.318 -13.265  -5.047  0.00  0.00    -0.168 NA
ATOM      5  N   UNL d   1      27.349 -13.149  -5.934  0.00  0.00    -0.251 N 
ENDROOT
BRANCH   1   6
ATOM      6  N   UNL d   1      29.022 -14.673  -7.002  0.00  0.00    -0.293 N 
ATOM      7  C   UNL d   1      30.234 -15.356  -6.718  0.00  0.00     0.321 C 
ATOM      8  O   UNL d   1      30.945 -15.632  -7.645  0.00  0.00    -0.247 OA
ATOM      9  N   UNL d   1      30.432 -15.673  -5.402  0.00  0.00    -0.343 N 
ATOM     10  H   UNL d   1      29.717 -15.486  -4.724  0.00  0.00     0.164 HD
ATOM     11  H   UNL d   1      28.916 -14.518  -8.000  0.00  0.00     0.172 HD
BRANCH   9  12
ATOM     12  C   UNL d   1      31.645 -16.330  -4.986  0.00  0.00     0.126 C 
BRANCH  12  13
ATOM     13  C   UNL d   1      31.371 -17.325  -3.867  0.00  0.00     0.040 C 
BRANCH  13  14
ATOM     14  C   UNL d   1      29.899 -17.311  -3.479  0.00  0.00     0.130 C 
BRANCH  14  15
ATOM     15  N   UNL d   1      29.682 -16.727  -2.149  0.00  0.00    -0.352 N 
ATOM     16  C   UNL d   1      29.480 -15.372  -1.897  0.00  0.00     0.108 A 
ATOM     17  C   UNL d   1      29.370 -15.230  -0.544  0.00  0.00     0.106 A 
ATOM     18  N   UNL d   1      29.506 -16.490  -0.014  0.00  0.00    -0.361 N 
ATOM     19  C   UNL d   1      29.706 -17.390  -0.980  0.00  0.00     0.182 A 
ATOM     20  H   UNL d   1      29.473 -16.713   0.980  0.00  0.00     0.166 HD
ENDBRANCH  14  15
ENDBRANCH  13  14
ENDBRANCH  12  13
ENDBRANCH   9  12
ENDBRANCH   1   6
BRANCH   5  21
ATOM     21  C   UNL d   1      27.511 -11.910  -6.692  0.00  0.00     0.179 C 
BRANCH  21  22
ATOM     22  C   UNL d   1      26.460 -10.852  -6.373  0.00  0.00     0.186 C 
BRANCH  22  23
ATOM     23  O   UNL d   1      25.129 -11.295  -6.520  0.00  0.00    -0.399 OA
ATOM     24  H   UNL d   1      24.867 -11.784  -5.722  0.00  0.00     0.209 HD
ENDBRANCH  22  23
ENDBRANCH  21  22
ENDBRANCH   5  21
BRANCH   3  25
ATOM     25  C   UNL d   1      25.701 -15.028  -3.335  0.00  0.00     0.107 C 
ATOM     26  C   UNL d   1      26.278 -16.030  -2.582  0.00  0.00     0.050 C 
ATOM     27  C   UNL d   1      25.677 -15.924  -1.313  0.00  0.00    -0.016 C 
ATOM     28  C   UNL d   1      25.759 -16.599  -0.080  0.00  0.00     0.039 C 
ATOM     29  C   UNL d   1      24.366 -15.697  -1.719  0.00  0.00     0.082 C 
ATOM     30  C   UNL d   1      25.467 -17.865  -0.450  0.00  0.00     0.026 C 
ATOM     31  C   UNL d   1      24.085 -17.825  -0.604  0.00  0.00    -0.018 C 
ATOM     32  C   UNL d   1      23.422 -16.571  -1.136  0.00  0.00     0.034 C 
ATOM     33  O   UNL d   1      24.402 -14.834  -2.818  0.00  0.00    -0.308 OA
ENDBRANCH   3  25
TORSDOF 9
ENDMDL
MODEL 6
REMARK VINA RESULT:    -6.488      4.140      6.675
REMARK INTER + INTRA:         -12.234
REMARK INTER:                  -9.172
REMARK INTRA:                  -3.062
REMARK CONF_INDEPENDENT:        2.685
REMARK UNBOUND:                -3.062
REMARK  9 active torsions:
REMARK  status: ('A' for Active; 'I' for Inactive)
REMARK       I    between atoms: C_2  and  N_3 
REMARK       I    between atoms: C_2  and  N_12 
REMARK    1  A    between atoms: N_3  and  C_4 
REMARK    2  A    between atoms: C_4  and  C_5 
REMARK    3  A    between atoms: C_5  and  C_6 
REMARK    4  A    between atoms: C_6  and  N_7 
REMARK    5  A    between atoms: N_12  and  C_13 
REMARK    6  A    between atoms: C_15  and  C_16 
REMARK    7  A    between atoms: N_26  and  C_27 
REMARK    8  A    between atoms: C_27  and  C_28 
REMARK    9  A    between atoms: C_28  and  O_29 
ROOT
ATOM      1  C   UNL d   1      25.769 -12.110  -4.010  0.00  0.00     0.130 C 
ATOM      2  C   UNL d   1      25.335 -13.404  -3.850  0.00  0.00     0.086 C 
ATOM      3  C   UNL d   1      25.638 -13.762  -2.515  0.00  0.00     0.114 C 
ATOM      4  N   UNL d   1      26.313 -12.775  -1.902  0.00  0.00    -0.168 NA
ATOM      5  N   UNL d   1      26.455 -11.802  -2.850  0.00  0.00    -0.251 N 
ENDROOT
BRANCH   1   6
ATOM      6  N   UNL d   1      25.567 -11.340  -5.143  0.00  0.00    -0.293 N 
ATOM      7  C   UNL d   1      26.289 -11.401  -6.364  0.00  0.00     0.321 C 
ATOM      8  O   UNL d   1      25.903 -10.716  -7.272  0.00  0.00    -0.247 OA
ATOM      9  N   UNL d   1      27.331 -12.287  -6.385  0.00  0.00    -0.343 N 
ATOM     10  H   UNL d   1      27.499 -12.888  -5.599  0.00  0.00     0.164 HD
ATOM     11  H   UNL d   1      24.778 -10.705  -5.217  0.00  0.00     0.172 HD
BRANCH   9  12
ATOM     12  C   UNL d   1      28.164 -12.406  -7.554  0.00  0.00     0.126 C 
BRANCH  12  13
ATOM     13  C   UNL d   1      29.323 -13.360  -7.304  0.00  0.00     0.040 C 
BRANCH  13  14
ATOM     14  C   UNL d   1      28.822 -14.688  -6.755  0.00  0.00     0.130 C 
BRANCH  14  15
ATOM     15  N   UNL d   1      28.802 -14.709  -5.287  0.00  0.00    -0.352 N 
ATOM     16  C   UNL d   1      29.556 -13.873  -4.468  0.00  0.00     0.108 A 
ATOM     17  C   UNL d   1      29.297 -14.237  -3.178  0.00  0.00     0.106 A 
ATOM     18  N   UNL d   1      28.399 -15.274  -3.245  0.00  0.00    -0.361 N 
ATOM     19  C   UNL d   1      28.110 -15.567  -4.516  0.00  0.00     0.182 A 
ATOM     20  H   UNL d   1      28.012 -15.766  -2.441  0.00  0.00     0.166 HD
ENDBRANCH  14  15
ENDBRANCH  13  14
ENDBRANCH  12  13
ENDBRANCH   9  12
ENDBRANCH   1   6
BRANCH   5  21
ATOM     21  C   UNL d   1      27.108 -10.543  -2.497  0.00  0.00     0.179 C 
BRANCH  21  22
ATOM     22  C   UNL d   1      26.161  -9.349  -2.451  0.00  0.00     0.186 C 
BRANCH  22  23
ATOM     23  O   UNL d   1      25.154  -9.372  -3.438  0.00  0.00    -0.399 OA
ATOM     24  H   UNL d   1      24.411  -8.818  -3.147  0.00  0.00     0.209 HD
ENDBRANCH  22  23
ENDBRANCH  21  22
ENDBRANCH   5  21
BRANCH   3  25
ATOM     25  C   UNL d   1      25.503 -15.174  -1.996  0.00  0.00     0.107 C 
ATOM     26  C   UNL d   1      24.252 -15.677  -1.707  0.00  0.00     0.050 C 
ATOM     27  C   UNL d   1      24.403 -17.076  -1.749  0.00  0.00    -0.016 C 
ATOM     28  C   UNL d   1      23.582 -18.203  -1.550  0.00  0.00     0.039 C 
ATOM     29  C   UNL d   1      25.626 -17.175  -1.091  0.00  0.00     0.082 C 
ATOM     30  C   UNL d   1      23.127 -17.983  -0.298  0.00  0.00     0.026 C 
ATOM     31  C   UNL d   1      24.216 -18.345   0.489  0.00  0.00    -0.018 C 
ATOM     32  C   UNL d   1      25.624 -18.075  -0.002  0.00  0.00     0.034 C 
ATOM     33  O   UNL d   1      26.436 -16.128  -1.535  0.00  0.00    -0.308 OA
ENDBRANCH   3  25
TORSDOF 9
ENDMDL
