MODEL 1
REMARK VINA RESULT:    -7.802      0.000      0.000
REMARK INTER + INTRA:         -10.968
REMARK INTER:                  -9.294
REMARK INTRA:                  -1.674
REMARK CONF_INDEPENDENT:        1.492
REMARK UNBOUND:                -1.674
REMARK  5 active torsions:
REMARK  status: ('A' for Active; 'I' for Inactive)
REMARK    1  A    between atoms: O_2  and  C_3 
REMARK    2  A    between atoms: C_9  and  N_10 
REMARK       I    between atoms: N_10  and  C_11 
REMARK    3  A    between atoms: C_11  and  C_13 
REMARK    4  A    between atoms: C_13  and  N_15 
REMARK       I    between atoms: N_15  and  C_16 
REMARK    5  A    between atoms: C_16  and  C_18 
ROOT
ATOM      1  N   UNL d   1      25.605 -14.675  -1.570  0.00  0.00    -0.323 N 
ATOM      2  C   UNL d   1      25.195 -14.037  -2.742  0.00  0.00     0.244 C 
ATOM      3  O   UNL d   1      24.411 -14.450  -3.604  0.00  0.00    -0.271 OA
ATOM      4  H   UNL d   1      26.264 -14.190  -0.971  0.00  0.00     0.169 HD
ENDROOT
BRANCH   2   5
ATOM      5  C   UNL d   1      25.759 -12.645  -3.030  0.00  0.00     0.173 C 
ATOM      6  C   UNL d   1      27.210 -12.675  -2.632  0.00  0.00     0.042 C 
BRANCH   5   7
ATOM      7  N   UNL d   1      25.537 -12.416  -4.505  0.00  0.00    -0.344 N 
ATOM      8  C   UNL d   1      26.461 -12.296  -5.521  0.00  0.00     0.252 C 
ATOM      9  O   UNL d   1      26.452 -11.324  -6.275  0.00  0.00    -0.268 OA
ATOM     10  H   UNL d   1      24.727 -11.810  -4.659  0.00  0.00     0.163 HD
BRANCH   8  11
ATOM     11  C   UNL d   1      27.404 -13.424  -5.767  0.00  0.00     0.032 C 
ATOM     12  C   UNL d   1      28.427 -13.349  -6.708  0.00  0.00     0.018 C 
ATOM     13  C   UNL d   1      29.341 -14.411  -6.818  0.00  0.00     0.025 C 
ATOM     14  C   UNL d   1      29.290 -15.485  -5.926  0.00  0.00     0.034 C 
ATOM     15 CL   UNL d   1      30.433 -16.764  -6.006  0.00  0.00    -0.084 Cl
ATOM     16  C   UNL d   1      28.251 -15.575  -5.021  0.00  0.00     0.025 C 
ATOM     17  C   UNL d   1      27.235 -14.629  -5.090  0.00  0.00     0.018 C 
ENDBRANCH   8  11
ENDBRANCH   5   7
ENDBRANCH   2   5
BRANCH   1  18
ATOM     18  C   UNL d   1      25.239 -15.987  -1.121  0.00  0.00     0.069 A 
ATOM     19  C   UNL d   1      23.879 -16.392  -1.219  0.00  0.00     0.039 A 
ATOM     20  C   UNL d   1      23.466 -17.679  -0.790  0.00  0.00    -0.060 A 
ATOM     21  C   UNL d   1      24.411 -18.554  -0.253  0.00  0.00     0.009 A 
ATOM     22  C   UNL d   1      22.043 -18.158  -0.895  0.00  0.00     0.048 C 
ATOM     23  C   UNL d   1      25.733 -18.168  -0.147  0.00  0.00     0.039 A 
ATOM     24  C   UNL d   1      26.146 -16.914  -0.579  0.00  0.00     0.095 A 
BRANCH  24  25
ATOM     25  O   UNL d   1      27.429 -16.611  -0.242  0.00  0.00    -0.354 OA
ATOM     26  C   UNL d   1      28.353 -16.722  -1.326  0.00  0.00     0.210 C 
ENDBRANCH  24  25
ENDBRANCH   1  18
TORSDOF 5
ENDMDL
MODEL 2
REMARK VINA RESULT:    -7.498      3.183      7.734
REMARK INTER + INTRA:         -10.933
REMARK INTER:                  -8.989
REMARK INTRA:                  -1.943
REMARK CONF_INDEPENDENT:        1.492
REMARK UNBOUND:                -1.943
REMARK  5 active torsions:
REMARK  status: ('A' for Active; 'I' for Inactive)
REMARK    1  A    between atoms: O_2  and  C_3 
REMARK    2  A    between atoms: C_9  and  N_10 
REMARK       I    between atoms: N_10  and  C_11 
REMARK    3  A    between atoms: C_11  and  C_13 
REMARK    4  A    between atoms: C_13  and  N_15 
REMARK       I    between atoms: N_15  and  C_16 
REMARK    5  A    between atoms: C_16  and  C_18 
ROOT
ATOM      1  N   UNL d   1      25.361 -12.407  -4.119  0.00  0.00    -0.323 N 
ATOM      2  C   UNL d   1      25.872 -13.269  -3.147  0.00  0.00     0.244 C 
ATOM      3  O   UNL d   1      26.620 -12.999  -2.202  0.00  0.00    -0.271 OA
ATOM      4  H   UNL d   1      24.758 -12.800  -4.834  0.00  0.00     0.169 HD
ENDROOT
BRANCH   2   5
ATOM      5  C   UNL d   1      25.471 -14.743  -3.223  0.00  0.00     0.173 C 
ATOM      6  C   UNL d   1      25.903 -15.241  -4.576  0.00  0.00     0.042 C 
BRANCH   5   7
ATOM      7  N   UNL d   1      26.183 -15.414  -2.073  0.00  0.00    -0.344 N 
ATOM      8  C   UNL d   1      25.696 -15.788  -0.839  0.00  0.00     0.252 C 
ATOM      9  O   UNL d   1      26.246 -15.421   0.198  0.00  0.00    -0.268 OA
ATOM     10  H   UNL d   1      27.154 -15.097  -2.015  0.00  0.00     0.163 HD
BRANCH   8  11
ATOM     11  C   UNL d   1      24.553 -16.743  -0.781  0.00  0.00     0.032 C 
ATOM     12  C   UNL d   1      24.735 -18.119  -0.671  0.00  0.00     0.018 C 
ATOM     13  C   UNL d   1      23.614 -18.953  -0.520  0.00  0.00     0.025 C 
ATOM     14  C   UNL d   1      22.337 -18.404  -0.378  0.00  0.00     0.034 C 
ATOM     15 CL   UNL d   1      20.961 -19.403  -0.134  0.00  0.00    -0.084 Cl
ATOM     16  C   UNL d   1      22.155 -17.044  -0.527  0.00  0.00     0.025 C 
ATOM     17  C   UNL d   1      23.248 -16.272  -0.903  0.00  0.00     0.018 C 
ENDBRANCH   8  11
ENDBRANCH   5   7
ENDBRANCH   2   5
BRANCH   1  18
ATOM     18  C   UNL d   1      25.631 -11.006  -4.266  0.00  0.00     0.069 A 
ATOM     19  C   UNL d   1      25.840 -10.220  -3.099  0.00  0.00     0.039 A 
ATOM     20  C   UNL d   1      26.111  -8.832  -3.190  0.00  0.00    -0.060 A 
ATOM     21  C   UNL d   1      26.161  -8.228  -4.447  0.00  0.00     0.009 A 
ATOM     22  C   UNL d   1      26.360  -7.967  -1.984  0.00  0.00     0.048 C 
ATOM     23  C   UNL d   1      25.952  -8.979  -5.587  0.00  0.00     0.039 A 
ATOM     24  C   UNL d   1      25.701 -10.344  -5.504  0.00  0.00     0.095 A 
BRANCH  24  25
ATOM     25  O   UNL d   1      25.336 -10.908  -6.688  0.00  0.00    -0.354 OA
ATOM     26  C   UNL d   1      26.280 -10.707  -7.739  0.00  0.00     0.210 C 
ENDBRANCH  24  25
ENDBRANCH   1  18
TORSDOF 5
ENDMDL
MODEL 3
REMARK VINA RESULT:    -7.291      4.180      6.985
REMARK INTER + INTRA:         -10.790
REMARK INTER:                  -8.782
REMARK INTRA:                  -2.008
REMARK CONF_INDEPENDENT:        1.492
REMARK UNBOUND:                -2.008
REMARK  5 active torsions:
REMARK  status: ('A' for Active; 'I' for Inactive)
REMARK    1  A    between atoms: O_2  and  C_3 
REMARK    2  A    between atoms: C_9  and  N_10 
REMARK       I    between atoms: N_10  and  C_11 
REMARK    3  A    between atoms: C_11  and  C_13 
REMARK    4  A    between atoms: C_13  and  N_15 
REMARK       I    between atoms: N_15  and  C_16 
REMARK    5  A    between atoms: C_16  and  C_18 
ROOT
ATOM      1  N   UNL d   1      27.589 -14.985   0.758  0.00  0.00    -0.323 N 
ATOM      2  C   UNL d   1      26.841 -14.159  -0.083  0.00  0.00     0.244 C 
ATOM      3  O   UNL d   1      26.742 -12.927  -0.054  0.00  0.00    -0.271 OA
ATOM      4  H   UNL d   1      27.553 -15.986   0.595  0.00  0.00     0.169 HD
ENDROOT
BRANCH   2   5
ATOM      5  C   UNL d   1      26.035 -14.822  -1.200  0.00  0.00     0.173 C 
ATOM      6  C   UNL d   1      26.393 -14.109  -2.476  0.00  0.00     0.042 C 
BRANCH   5   7
ATOM      7  N   UNL d   1      26.440 -16.276  -1.183  0.00  0.00    -0.344 N 
ATOM      8  C   UNL d   1      25.989 -17.302  -0.380  0.00  0.00     0.252 C 
ATOM      9  O   UNL d   1      26.774 -17.995   0.265  0.00  0.00    -0.268 OA
ATOM     10  H   UNL d   1      27.435 -16.376  -1.399  0.00  0.00     0.163 HD
BRANCH   8  11
ATOM     11  C   UNL d   1      24.536 -17.635  -0.394  0.00  0.00     0.032 C 
ATOM     12  C   UNL d   1      23.550 -16.664  -0.542  0.00  0.00     0.018 C 
ATOM     13  C   UNL d   1      22.205 -17.059  -0.648  0.00  0.00     0.025 C 
ATOM     14  C   UNL d   1      21.866 -18.413  -0.707  0.00  0.00     0.034 C 
ATOM     15 CL   UNL d   1      20.235 -18.915  -0.894  0.00  0.00    -0.084 Cl
ATOM     16  C   UNL d   1      22.841 -19.371  -0.520  0.00  0.00     0.025 C 
ATOM     17  C   UNL d   1      24.124 -18.950  -0.189  0.00  0.00     0.018 C 
ENDBRANCH   8  11
ENDBRANCH   5   7
ENDBRANCH   2   5
BRANCH   1  18
ATOM     18  C   UNL d   1      28.382 -14.589   1.885  0.00  0.00     0.069 A 
ATOM     19  C   UNL d   1      27.734 -14.334   3.125  0.00  0.00     0.039 A 
ATOM     20  C   UNL d   1      28.472 -13.942   4.270  0.00  0.00    -0.060 A 
ATOM     21  C   UNL d   1      29.856 -13.792   4.170  0.00  0.00     0.009 A 
ATOM     22  C   UNL d   1      27.832 -13.684   5.607  0.00  0.00     0.048 C 
ATOM     23  C   UNL d   1      30.495 -14.029   2.969  0.00  0.00     0.039 A 
ATOM     24  C   UNL d   1      29.778 -14.429   1.847  0.00  0.00     0.095 A 
BRANCH  24  25
ATOM     25  O   UNL d   1      30.513 -14.444   0.702  0.00  0.00    -0.354 OA
ATOM     26  C   UNL d   1      30.585 -15.727   0.079  0.00  0.00     0.210 C 
ENDBRANCH  24  25
ENDBRANCH   1  18
TORSDOF 5
ENDMDL
MODEL 4
REMARK VINA RESULT:    -7.275      2.806      6.977
REMARK INTER + INTRA:         -10.752
REMARK INTER:                  -8.767
REMARK INTRA:                  -1.985
REMARK CONF_INDEPENDENT:        1.492
REMARK UNBOUND:                -1.985
REMARK  5 active torsions:
REMARK  status: ('A' for Active; 'I' for Inactive)
REMARK    1  A    between atoms: O_2  and  C_3 
REMARK    2  A    between atoms: C_9  and  N_10 
REMARK       I    between atoms: N_10  and  C_11 
REMARK    3  A    between atoms: C_11  and  C_13 
REMARK    4  A    between atoms: C_13  and  N_15 
REMARK       I    between atoms: N_15  and  C_16 
REMARK    5  A    between atoms: C_16  and  C_18 
ROOT
ATOM      1  N   UNL d   1      28.132 -16.311  -2.686  0.00  0.00    -0.323 N 
ATOM      2  C   UNL d   1      29.316 -16.608  -2.009  0.00  0.00     0.244 C 
ATOM      3  O   UNL d   1      30.454 -16.182  -2.236  0.00  0.00    -0.271 OA
ATOM      4  H   UNL d   1      27.278 -16.757  -2.367  0.00  0.00     0.169 HD
ENDROOT
BRANCH   2   5
ATOM      5  C   UNL d   1      29.237 -17.572  -0.824  0.00  0.00     0.173 C 
ATOM      6  C   UNL d   1      30.647 -18.001  -0.520  0.00  0.00     0.042 C 
BRANCH   5   7
ATOM      7  N   UNL d   1      28.586 -16.790   0.290  0.00  0.00    -0.344 N 
ATOM      8  C   UNL d   1      27.432 -16.035   0.274  0.00  0.00     0.252 C 
ATOM      9  O   UNL d   1      27.434 -14.865   0.653  0.00  0.00    -0.268 OA
ATOM     10  H   UNL d   1      29.294 -16.382   0.907  0.00  0.00     0.163 HD
BRANCH   8  11
ATOM     11  C   UNL d   1      26.151 -16.696  -0.104  0.00  0.00     0.032 C 
ATOM     12  C   UNL d   1      25.901 -18.041   0.153  0.00  0.00     0.018 C 
ATOM     13  C   UNL d   1      24.634 -18.575  -0.139  0.00  0.00     0.025 C 
ATOM     14  C   UNL d   1      23.603 -17.747  -0.587  0.00  0.00     0.034 C 
ATOM     15 CL   UNL d   1      22.031 -18.369  -0.894  0.00  0.00    -0.084 Cl
ATOM     16  C   UNL d   1      23.864 -16.424  -0.879  0.00  0.00     0.025 C 
ATOM     17  C   UNL d   1      25.179 -15.980  -0.799  0.00  0.00     0.018 C 
ENDBRANCH   8  11
ENDBRANCH   5   7
ENDBRANCH   2   5
BRANCH   1  18
ATOM     18  C   UNL d   1      27.976 -15.473  -3.839  0.00  0.00     0.069 A 
ATOM     19  C   UNL d   1      29.129 -15.127  -4.597  0.00  0.00     0.039 A 
ATOM     20  C   UNL d   1      29.028 -14.302  -5.746  0.00  0.00    -0.060 A 
ATOM     21  C   UNL d   1      27.778 -13.814  -6.128  0.00  0.00     0.009 A 
ATOM     22  C   UNL d   1      30.217 -13.928  -6.590  0.00  0.00     0.048 C 
ATOM     23  C   UNL d   1      26.653 -14.137  -5.395  0.00  0.00     0.039 A 
ATOM     24  C   UNL d   1      26.743 -14.958  -4.276  0.00  0.00     0.095 A 
BRANCH  24  25
ATOM     25  O   UNL d   1      25.591 -15.036  -3.557  0.00  0.00    -0.354 OA
ATOM     26  C   UNL d   1      24.723 -13.916  -3.735  0.00  0.00     0.210 C 
ENDBRANCH  24  25
ENDBRANCH   1  18
TORSDOF 5
ENDMDL
MODEL 5
REMARK VINA RESULT:    -7.248      2.784      4.485
REMARK INTER + INTRA:         -10.706
REMARK INTER:                  -8.739
REMARK INTRA:                  -1.966
REMARK CONF_INDEPENDENT:        1.492
REMARK UNBOUND:                -1.966
REMARK  5 active torsions:
REMARK  status: ('A' for Active; 'I' for Inactive)
REMARK    1  A    between atoms: O_2  and  C_3 
REMARK    2  A    between atoms: C_9  and  N_10 
REMARK       I    between atoms: N_10  and  C_11 
REMARK    3  A    between atoms: C_11  and  C_13 
REMARK    4  A    between atoms: C_13  and  N_15 
REMARK       I    between atoms: N_15  and  C_16 
REMARK    5  A    between atoms: C_16  and  C_18 
ROOT
ATOM      1  N   UNL d   1      27.687 -15.391  -3.776  0.00  0.00    -0.323 N 
ATOM      2  C   UNL d   1      27.471 -15.200  -5.142  0.00  0.00     0.244 C 
ATOM      3  O   UNL d   1      26.412 -15.301  -5.770  0.00  0.00    -0.271 OA
ATOM      4  H   UNL d   1      28.630 -15.271  -3.423  0.00  0.00     0.169 HD
ENDROOT
BRANCH   2   5
ATOM      5  C   UNL d   1      28.671 -14.807  -6.004  0.00  0.00     0.173 C 
ATOM      6  C   UNL d   1      28.487 -13.358  -6.368  0.00  0.00     0.042 C 
BRANCH   5   7
ATOM      7  N   UNL d   1      29.887 -15.069  -5.149  0.00  0.00    -0.344 N 
ATOM      8  C   UNL d   1      30.359 -16.259  -4.639  0.00  0.00     0.252 C 
ATOM      9  O   UNL d   1      30.586 -16.389  -3.437  0.00  0.00    -0.268 OA
ATOM     10  H   UNL d   1      30.048 -14.291  -4.503  0.00  0.00     0.163 HD
BRANCH   8  11
ATOM     11  C   UNL d   1      30.704 -17.356  -5.587  0.00  0.00     0.032 C 
ATOM     12  C   UNL d   1      30.405 -18.690  -5.324  0.00  0.00     0.018 C 
ATOM     13  C   UNL d   1      30.668 -19.662  -6.306  0.00  0.00     0.025 C 
ATOM     14  C   UNL d   1      31.128 -19.285  -7.570  0.00  0.00     0.034 C 
ATOM     15 CL   UNL d   1      31.400 -20.450  -8.802  0.00  0.00    -0.084 Cl
ATOM     16  C   UNL d   1      31.461 -17.968  -7.813  0.00  0.00     0.025 C 
ATOM     17  C   UNL d   1      31.408 -17.069  -6.754  0.00  0.00     0.018 C 
ENDBRANCH   8  11
ENDBRANCH   5   7
ENDBRANCH   2   5
BRANCH   1  18
ATOM     18  C   UNL d   1      26.725 -15.797  -2.792  0.00  0.00     0.069 A 
ATOM     19  C   UNL d   1      27.144 -16.647  -1.732  0.00  0.00     0.039 A 
ATOM     20  C   UNL d   1      26.234 -17.075  -0.734  0.00  0.00    -0.060 A 
ATOM     21  C   UNL d   1      24.902 -16.663  -0.804  0.00  0.00     0.009 A 
ATOM     22  C   UNL d   1      26.638 -17.956   0.418  0.00  0.00     0.048 C 
ATOM     23  C   UNL d   1      24.482 -15.844  -1.833  0.00  0.00     0.039 A 
ATOM     24  C   UNL d   1      25.374 -15.408  -2.806  0.00  0.00     0.095 A 
BRANCH  24  25
ATOM     25  O   UNL d   1      24.780 -14.765  -3.848  0.00  0.00    -0.354 OA
ATOM     26  C   UNL d   1      24.977 -13.351  -3.841  0.00  0.00     0.210 C 
ENDBRANCH  24  25
ENDBRANCH   1  18
TORSDOF 5
ENDMDL
MODEL 6
REMARK VINA RESULT:    -7.246      1.988      2.681
REMARK INTER + INTRA:         -10.622
REMARK INTER:                  -8.738
REMARK INTRA:                  -1.884
REMARK CONF_INDEPENDENT:        1.492
REMARK UNBOUND:                -1.884
REMARK  5 active torsions:
REMARK  status: ('A' for Active; 'I' for Inactive)
REMARK    1  A    between atoms: O_2  and  C_3 
REMARK    2  A    between atoms: C_9  and  N_10 
REMARK       I    between atoms: N_10  and  C_11 
REMARK    3  A    between atoms: C_11  and  C_13 
REMARK    4  A    between atoms: C_13  and  N_15 
REMARK       I    between atoms: N_15  and  C_16 
REMARK    5  A    between atoms: C_16  and  C_18 
ROOT
ATOM      1  N   UNL d   1      26.071 -15.814  -2.451  0.00  0.00    -0.323 N 
ATOM      2  C   UNL d   1      25.471 -14.805  -3.206  0.00  0.00     0.244 C 
ATOM      3  O   UNL d   1      24.287 -14.452  -3.207  0.00  0.00    -0.271 OA
ATOM      4  H   UNL d   1      27.064 -15.976  -2.579  0.00  0.00     0.169 HD
ENDROOT
BRANCH   2   5
ATOM      5  C   UNL d   1      26.359 -14.006  -4.161  0.00  0.00     0.173 C 
ATOM      6  C   UNL d   1      26.738 -14.937  -5.281  0.00  0.00     0.042 C 
BRANCH   5   7
ATOM      7  N   UNL d   1      25.522 -12.831  -4.604  0.00  0.00    -0.344 N 
ATOM      8  C   UNL d   1      25.922 -11.600  -5.080  0.00  0.00     0.252 C 
ATOM      9  O   UNL d   1      25.515 -10.559  -4.567  0.00  0.00    -0.268 OA
ATOM     10  H   UNL d   1      24.673 -12.758  -4.038  0.00  0.00     0.163 HD
BRANCH   8  11
ATOM     11  C   UNL d   1      26.769 -11.549  -6.306  0.00  0.00     0.032 C 
ATOM     12  C   UNL d   1      27.983 -12.222  -6.402  0.00  0.00     0.018 C 
ATOM     13  C   UNL d   1      28.682 -12.212  -7.622  0.00  0.00     0.025 C 
ATOM     14  C   UNL d   1      28.118 -11.621  -8.756  0.00  0.00     0.034 C 
ATOM     15 CL   UNL d   1      28.929 -11.649 -10.270  0.00  0.00    -0.084 Cl
ATOM     16  C   UNL d   1      26.934 -10.921  -8.647  0.00  0.00     0.025 C 
ATOM     17  C   UNL d   1      26.383 -10.753  -7.382  0.00  0.00     0.018 C 
ENDBRANCH   8  11
ENDBRANCH   5   7
ENDBRANCH   2   5
BRANCH   1  18
ATOM     18  C   UNL d   1      25.431 -16.707  -1.530  0.00  0.00     0.069 A 
ATOM     19  C   UNL d   1      24.029 -16.917  -1.638  0.00  0.00     0.039 A 
ATOM     20  C   UNL d   1      23.349 -17.792  -0.753  0.00  0.00    -0.060 A 
ATOM     21  C   UNL d   1      24.070 -18.445   0.247  0.00  0.00     0.009 A 
ATOM     22  C   UNL d   1      21.871 -18.061  -0.844  0.00  0.00     0.048 C 
ATOM     23  C   UNL d   1      25.431 -18.243   0.366  0.00  0.00     0.039 A 
ATOM     24  C   UNL d   1      26.105 -17.399  -0.508  0.00  0.00     0.095 A 
BRANCH  24  25
ATOM     25  O   UNL d   1      27.397 -17.159  -0.154  0.00  0.00    -0.354 OA
ATOM     26  C   UNL d   1      27.565 -16.007   0.673  0.00  0.00     0.210 C 
ENDBRANCH  24  25
ENDBRANCH   1  18
TORSDOF 5
ENDMDL
MODEL 7
REMARK VINA RESULT:    -7.075      4.262      7.046
REMARK INTER + INTRA:         -10.601
REMARK INTER:                  -8.567
REMARK INTRA:                  -2.034
REMARK CONF_INDEPENDENT:        1.492
REMARK UNBOUND:                -2.034
REMARK  5 active torsions:
REMARK  status: ('A' for Active; 'I' for Inactive)
REMARK    1  A    between atoms: O_2  and  C_3 
REMARK    2  A    between atoms: C_9  and  N_10 
REMARK       I    between atoms: N_10  and  C_11 
REMARK    3  A    between atoms: C_11  and  C_13 
REMARK    4  A    between atoms: C_13  and  N_15 
REMARK       I    between atoms: N_15  and  C_16 
REMARK    5  A    between atoms: C_16  and  C_18 
ROOT
ATOM      1  N   UNL d   1      26.680 -14.018   0.601  0.00  0.00    -0.323 N 
ATOM      2  C   UNL d   1      26.607 -13.722  -0.761  0.00  0.00     0.244 C 
ATOM      3  O   UNL d   1      26.798 -12.636  -1.319  0.00  0.00    -0.271 OA
ATOM      4  H   UNL d   1      26.487 -14.970   0.891  0.00  0.00     0.169 HD
ENDROOT
BRANCH   2   5
ATOM      5  C   UNL d   1      26.255 -14.861  -1.719  0.00  0.00     0.173 C 
ATOM      6  C   UNL d   1      26.963 -14.570  -3.015  0.00  0.00     0.042 C 
BRANCH   5   7
ATOM      7  N   UNL d   1      26.728 -16.122  -1.038  0.00  0.00    -0.344 N 
ATOM      8  C   UNL d   1      26.103 -16.885  -0.076  0.00  0.00     0.252 C 
ATOM      9  O   UNL d   1      26.669 -17.164   0.980  0.00  0.00    -0.268 OA
ATOM     10  H   UNL d   1      27.742 -16.101  -0.903  0.00  0.00     0.163 HD
BRANCH   8  11
ATOM     11  C   UNL d   1      24.766 -17.469  -0.383  0.00  0.00     0.032 C 
ATOM     12  C   UNL d   1      24.507 -18.833  -0.285  0.00  0.00     0.018 C 
ATOM     13  C   UNL d   1      23.199 -19.303  -0.493  0.00  0.00     0.025 C 
ATOM     14  C   UNL d   1      22.147 -18.406  -0.694  0.00  0.00     0.034 C 
ATOM     15 CL   UNL d   1      20.533 -18.956  -0.891  0.00  0.00    -0.084 Cl
ATOM     16  C   UNL d   1      22.413 -17.058  -0.830  0.00  0.00     0.025 C 
ATOM     17  C   UNL d   1      23.741 -16.649  -0.849  0.00  0.00     0.018 C 
ENDBRANCH   8  11
ENDBRANCH   5   7
ENDBRANCH   2   5
BRANCH   1  18
ATOM     18  C   UNL d   1      26.953 -13.107   1.675  0.00  0.00     0.069 A 
ATOM     19  C   UNL d   1      26.643 -11.730   1.503  0.00  0.00     0.039 A 
ATOM     20  C   UNL d   1      26.891 -10.789   2.534  0.00  0.00    -0.060 A 
ATOM     21  C   UNL d   1      27.460 -11.225   3.732  0.00  0.00     0.009 A 
ATOM     22  C   UNL d   1      26.560  -9.327   2.404  0.00  0.00     0.048 C 
ATOM     23  C   UNL d   1      27.770 -12.559   3.908  0.00  0.00     0.039 A 
ATOM     24  C   UNL d   1      27.516 -13.488   2.906  0.00  0.00     0.095 A 
BRANCH  24  25
ATOM     25  O   UNL d   1      28.041 -14.719   3.151  0.00  0.00    -0.354 OA
ATOM     26  C   UNL d   1      28.172 -15.026   4.539  0.00  0.00     0.210 C 
ENDBRANCH  24  25
ENDBRANCH   1  18
TORSDOF 5
ENDMDL
MODEL 8
REMARK VINA RESULT:    -6.948      3.429      6.897
REMARK INTER + INTRA:         -10.658
REMARK INTER:                  -8.439
REMARK INTRA:                  -2.218
REMARK CONF_INDEPENDENT:        1.492
REMARK UNBOUND:                -2.218
REMARK  5 active torsions:
REMARK  status: ('A' for Active; 'I' for Inactive)
REMARK    1  A    between atoms: O_2  and  C_3 
REMARK    2  A    between atoms: C_9  and  N_10 
REMARK       I    between atoms: N_10  and  C_11 
REMARK    3  A    between atoms: C_11  and  C_13 
REMARK    4  A    between atoms: C_13  and  N_15 
REMARK       I    between atoms: N_15  and  C_16 
REMARK    5  A    between atoms: C_16  and  C_18 
ROOT
ATOM      1  N   UNL d   1      26.594 -13.815  -1.012  0.00  0.00    -0.323 N 
ATOM      2  C   UNL d   1      26.028 -13.816  -2.288  0.00  0.00     0.244 C 
ATOM      3  O   UNL d   1      25.794 -12.849  -3.021  0.00  0.00    -0.271 OA
ATOM      4  H   UNL d   1      26.712 -14.708  -0.545  0.00  0.00     0.169 HD
ENDROOT
BRANCH   2   5
ATOM      5  C   UNL d   1      25.641 -15.165  -2.895  0.00  0.00     0.173 C 
ATOM      6  C   UNL d   1      26.222 -15.198  -4.283  0.00  0.00     0.042 C 
BRANCH   5   7
ATOM      7  N   UNL d   1      26.221 -16.206  -1.969  0.00  0.00    -0.344 N 
ATOM      8  C   UNL d   1      25.761 -16.646  -0.746  0.00  0.00     0.252 C 
ATOM      9  O   UNL d   1      26.489 -16.643   0.245  0.00  0.00    -0.268 OA
ATOM     10  H   UNL d   1      27.244 -16.190  -2.003  0.00  0.00     0.163 HD
BRANCH   8  11
ATOM     11  C   UNL d   1      24.394 -17.236  -0.668  0.00  0.00     0.032 C 
ATOM     12  C   UNL d   1      23.243 -16.485  -0.886  0.00  0.00     0.018 C 
ATOM     13  C   UNL d   1      21.992 -17.126  -0.895  0.00  0.00     0.025 C 
ATOM     14  C   UNL d   1      21.909 -18.517  -0.789  0.00  0.00     0.034 C 
ATOM     15 CL   UNL d   1      20.395 -19.325  -0.856  0.00  0.00    -0.084 Cl
ATOM     16  C   UNL d   1      23.047 -19.254  -0.533  0.00  0.00     0.025 C 
ATOM     17  C   UNL d   1      24.235 -18.571  -0.301  0.00  0.00     0.018 C 
ENDBRANCH   8  11
ENDBRANCH   5   7
ENDBRANCH   2   5
BRANCH   1  18
ATOM     18  C   UNL d   1      26.993 -12.676  -0.239  0.00  0.00     0.069 A 
ATOM     19  C   UNL d   1      27.483 -11.524  -0.915  0.00  0.00     0.039 A 
ATOM     20  C   UNL d   1      27.889 -10.371  -0.197  0.00  0.00    -0.060 A 
ATOM     21  C   UNL d   1      27.816 -10.376   1.197  0.00  0.00     0.009 A 
ATOM     22  C   UNL d   1      28.393  -9.124  -0.871  0.00  0.00     0.048 C 
ATOM     23  C   UNL d   1      27.349 -11.491   1.864  0.00  0.00     0.039 A 
ATOM     24  C   UNL d   1      26.936 -12.618   1.165  0.00  0.00     0.095 A 
BRANCH  24  25
ATOM     25  O   UNL d   1      26.678 -13.694   1.958  0.00  0.00    -0.354 OA
ATOM     26  C   UNL d   1      27.850 -14.376   2.404  0.00  0.00     0.210 C 
ENDBRANCH  24  25
ENDBRANCH   1  18
TORSDOF 5
ENDMDL
MODEL 9
REMARK VINA RESULT:    -6.830      1.777      2.620
REMARK INTER + INTRA:         -10.694
REMARK INTER:                  -8.322
REMARK INTRA:                  -2.373
REMARK CONF_INDEPENDENT:        1.492
REMARK UNBOUND:                -2.373
REMARK  5 active torsions:
REMARK  status: ('A' for Active; 'I' for Inactive)
REMARK    1  A    between atoms: O_2  and  C_3 
REMARK    2  A    between atoms: C_9  and  N_10 
REMARK       I    between atoms: N_10  and  C_11 
REMARK    3  A    between atoms: C_11  and  C_13 
REMARK    4  A    between atoms: C_13  and  N_15 
REMARK       I    between atoms: N_15  and  C_16 
REMARK    5  A    between atoms: C_16  and  C_18 
ROOT
ATOM      1  N   UNL d   1      26.299 -15.277  -2.567  0.00  0.00    -0.323 N 
ATOM      2  C   UNL d   1      25.999 -15.035  -3.908  0.00  0.00     0.244 C 
ATOM      3  O   UNL d   1      25.155 -15.596  -4.616  0.00  0.00    -0.271 OA
ATOM      4  H   UNL d   1      27.032 -14.722  -2.137  0.00  0.00     0.169 HD
ENDROOT
BRANCH   2   5
ATOM      5  C   UNL d   1      26.786 -13.939  -4.628  0.00  0.00     0.173 C 
ATOM      6  C   UNL d   1      25.910 -12.716  -4.642  0.00  0.00     0.042 C 
BRANCH   5   7
ATOM      7  N   UNL d   1      28.058 -13.767  -3.834  0.00  0.00    -0.344 N 
ATOM      8  C   UNL d   1      28.895 -14.724  -3.303  0.00  0.00     0.252 C 
ATOM      9  O   UNL d   1      29.201 -14.709  -2.112  0.00  0.00    -0.268 OA
ATOM     10  H   UNL d   1      27.999 -12.941  -3.233  0.00  0.00     0.163 HD
BRANCH   8  11
ATOM     11  C   UNL d   1      29.521 -15.717  -4.222  0.00  0.00     0.032 C 
ATOM     12  C   UNL d   1      29.917 -16.982  -3.797  0.00  0.00     0.018 C 
ATOM     13  C   UNL d   1      30.408 -17.903  -4.738  0.00  0.00     0.025 C 
ATOM     14  C   UNL d   1      30.404 -17.594  -6.101  0.00  0.00     0.034 C 
ATOM     15 CL   UNL d   1      30.946 -18.727  -7.272  0.00  0.00    -0.084 Cl
ATOM     16  C   UNL d   1      30.049 -16.326  -6.514  0.00  0.00     0.025 C 
ATOM     17  C   UNL d   1      29.789 -15.366  -5.543  0.00  0.00     0.018 C 
ENDBRANCH   8  11
ENDBRANCH   5   7
ENDBRANCH   2   5
BRANCH   1  18
ATOM     18  C   UNL d   1      25.722 -16.273  -1.712  0.00  0.00     0.069 A 
ATOM     19  C   UNL d   1      24.305 -16.382  -1.644  0.00  0.00     0.039 A 
ATOM     20  C   UNL d   1      23.685 -17.351  -0.816  0.00  0.00    -0.060 A 
ATOM     21  C   UNL d   1      24.481 -18.201  -0.047  0.00  0.00     0.009 A 
ATOM     22  C   UNL d   1      22.191 -17.516  -0.729  0.00  0.00     0.048 C 
ATOM     23  C   UNL d   1      25.857 -18.099  -0.100  0.00  0.00     0.039 A 
ATOM     24  C   UNL d   1      26.471 -17.162  -0.921  0.00  0.00     0.095 A 
BRANCH  24  25
ATOM     25  O   UNL d   1      27.814 -17.057  -0.728  0.00  0.00    -0.354 OA
ATOM     26  C   UNL d   1      28.177 -16.213   0.365  0.00  0.00     0.210 C 
ENDBRANCH  24  25
ENDBRANCH   1  18
TORSDOF 5
ENDMDL
