MODEL 1
REMARK VINA RESULT:    -6.531      0.000      0.000
REMARK INTER + INTRA:          -8.016
REMARK INTER:                  -7.426
REMARK INTRA:                  -0.590
REMARK CONF_INDEPENDENT:        0.895
REMARK UNBOUND:                -0.590
REMARK  3 active torsions:
REMARK  status: ('A' for Active; 'I' for Inactive)
REMARK       I    between atoms: C_2  and  N_3 
REMARK    1  A    between atoms: C_2  and  C_14 
REMARK    2  A    between atoms: N_3  and  N_4 
REMARK    3  A    between atoms: N_4  and  C_5 
ROOT
ATOM      1  C   UNL d   1      23.875 -17.861  -0.710  0.00  0.00     0.090 A 
ATOM      2  C   UNL d   1      24.874 -18.575  -0.025  0.00  0.00     0.037 A 
ATOM      3  C   UNL d   1      26.125 -17.995   0.250  0.00  0.00     0.048 A 
ATOM      4  C   UNL d   1      26.384 -16.683  -0.131  0.00  0.00     0.158 A 
ATOM      5  F   UNL d   1      27.591 -16.150   0.112  0.00  0.00    -0.203 F 
ATOM      6  C   UNL d   1      25.400 -15.938  -0.762  0.00  0.00     0.195 A 
ATOM      7  F   UNL d   1      25.648 -14.665  -1.107  0.00  0.00    -0.199 F 
ATOM      8  C   UNL d   1      24.159 -16.519  -1.042  0.00  0.00     0.185 A 
ATOM      9  F   UNL d   1      23.221 -15.772  -1.645  0.00  0.00    -0.200 F 
ENDROOT
BRANCH   1  10
ATOM     10  N   UNL d   1      22.659 -18.472  -1.087  0.00  0.00    -0.295 N 
ATOM     11  H   UNL d   1      22.138 -18.086  -1.879  0.00  0.00     0.187 HD
BRANCH  10  12
ATOM     12  N   UNL d   1      21.896 -19.185  -0.145  0.00  0.00    -0.269 N 
ATOM     13  C   UNL d   1      20.654 -19.700  -0.527  0.00  0.00     0.240 C 
ATOM     14  O   UNL d   1      20.142 -19.555  -1.636  0.00  0.00    -0.271 OA
ATOM     15  H   UNL d   1      22.254 -19.289   0.798  0.00  0.00     0.190 HD
BRANCH  13  16
ATOM     16  C   UNL d   1      19.988 -20.515   0.536  0.00  0.00     0.080 A 
ATOM     17  C   UNL d   1      19.154 -19.704   1.518  0.00  0.00     0.015 A 
ATOM     18  C   UNL d   1      18.520 -20.824   0.765  0.00  0.00     0.015 A 
ENDBRANCH  13  16
ENDBRANCH  10  12
ENDBRANCH   1  10
TORSDOF 3
ENDMDL
MODEL 2
REMARK VINA RESULT:    -6.267      1.557      2.142
REMARK INTER + INTRA:          -7.708
REMARK INTER:                  -7.162
REMARK INTRA:                  -0.546
REMARK CONF_INDEPENDENT:        0.895
REMARK UNBOUND:                -0.546
REMARK  3 active torsions:
REMARK  status: ('A' for Active; 'I' for Inactive)
REMARK       I    between atoms: C_2  and  N_3 
REMARK    1  A    between atoms: C_2  and  C_14 
REMARK    2  A    between atoms: N_3  and  N_4 
REMARK    3  A    between atoms: N_4  and  C_5 
ROOT
ATOM      1  C   UNL d   1      23.019 -17.822  -0.867  0.00  0.00     0.090 A 
ATOM      2  C   UNL d   1      23.329 -16.474  -1.117  0.00  0.00     0.037 A 
ATOM      3  C   UNL d   1      24.612 -15.960  -0.854  0.00  0.00     0.048 A 
ATOM      4  C   UNL d   1      25.611 -16.796  -0.366  0.00  0.00     0.158 A 
ATOM      5  F   UNL d   1      26.822 -16.290  -0.093  0.00  0.00    -0.203 F 
ATOM      6  C   UNL d   1      25.348 -18.141  -0.160  0.00  0.00     0.195 A 
ATOM      7  F   UNL d   1      26.322 -18.947   0.290  0.00  0.00    -0.199 F 
ATOM      8  C   UNL d   1      24.070 -18.648  -0.413  0.00  0.00     0.185 A 
ATOM      9  F   UNL d   1      23.846 -19.957  -0.213  0.00  0.00    -0.200 F 
ENDROOT
BRANCH   1  10
ATOM     10  N   UNL d   1      21.706 -18.317  -1.023  0.00  0.00    -0.295 N 
ATOM     11  H   UNL d   1      21.007 -17.725  -1.479  0.00  0.00     0.187 HD
BRANCH  10  12
ATOM     12  N   UNL d   1      21.200 -19.289  -0.142  0.00  0.00    -0.269 N 
ATOM     13  C   UNL d   1      19.903 -19.772  -0.336  0.00  0.00     0.240 C 
ATOM     14  O   UNL d   1      19.133 -19.389  -1.215  0.00  0.00    -0.271 OA
ATOM     15  H   UNL d   1      21.780 -19.601   0.629  0.00  0.00     0.190 HD
BRANCH  13  16
ATOM     16  C   UNL d   1      19.521 -20.867   0.609  0.00  0.00     0.080 A 
ATOM     17  C   UNL d   1      18.788 -20.391   1.856  0.00  0.00     0.015 A 
ATOM     18  C   UNL d   1      18.156 -21.418   0.978  0.00  0.00     0.015 A 
ENDBRANCH  13  16
ENDBRANCH  10  12
ENDBRANCH   1  10
TORSDOF 3
ENDMDL
MODEL 3
REMARK VINA RESULT:    -5.955      0.996      1.513
REMARK INTER + INTRA:          -7.340
REMARK INTER:                  -6.850
REMARK INTRA:                  -0.491
REMARK CONF_INDEPENDENT:        0.895
REMARK UNBOUND:                -0.491
REMARK  3 active torsions:
REMARK  status: ('A' for Active; 'I' for Inactive)
REMARK       I    between atoms: C_2  and  N_3 
REMARK    1  A    between atoms: C_2  and  C_14 
REMARK    2  A    between atoms: N_3  and  N_4 
REMARK    3  A    between atoms: N_4  and  C_5 
ROOT
ATOM      1  C   UNL d   1      23.501 -18.492  -0.396  0.00  0.00     0.090 A 
ATOM      2  C   UNL d   1      24.870 -18.473  -0.080  0.00  0.00     0.037 A 
ATOM      3  C   UNL d   1      25.681 -17.375  -0.416  0.00  0.00     0.048 A 
ATOM      4  C   UNL d   1      25.127 -16.267  -1.048  0.00  0.00     0.158 A 
ATOM      5  F   UNL d   1      25.916 -15.237  -1.388  0.00  0.00    -0.203 F 
ATOM      6  C   UNL d   1      23.769 -16.235  -1.325  0.00  0.00     0.195 A 
ATOM      7  F   UNL d   1      23.237 -15.154  -1.915  0.00  0.00    -0.199 F 
ATOM      8  C   UNL d   1      22.967 -17.332  -0.998  0.00  0.00     0.185 A 
ATOM      9  F   UNL d   1      21.653 -17.271  -1.270  0.00  0.00    -0.200 F 
ENDROOT
BRANCH   1  10
ATOM     10  N   UNL d   1      22.705 -19.634  -0.162  0.00  0.00    -0.295 N 
ATOM     11  H   UNL d   1      22.825 -20.451  -0.768  0.00  0.00     0.187 HD
BRANCH  10  12
ATOM     12  N   UNL d   1      21.449 -19.515   0.458  0.00  0.00    -0.269 N 
ATOM     13  C   UNL d   1      20.296 -19.769  -0.289  0.00  0.00     0.240 C 
ATOM     14  O   UNL d   1      20.281 -20.067  -1.482  0.00  0.00    -0.271 OA
ATOM     15  H   UNL d   1      21.407 -19.223   1.429  0.00  0.00     0.190 HD
BRANCH  13  16
ATOM     16  C   UNL d   1      19.033 -19.699   0.510  0.00  0.00     0.080 A 
ATOM     17  C   UNL d   1      18.200 -20.972   0.480  0.00  0.00     0.015 A 
ATOM     18  C   UNL d   1      18.636 -20.411   1.790  0.00  0.00     0.015 A 
ENDBRANCH  13  16
ENDBRANCH  10  12
ENDBRANCH   1  10
TORSDOF 3
ENDMDL
MODEL 4
REMARK VINA RESULT:    -5.617      1.405      2.110
REMARK INTER + INTRA:          -7.038
REMARK INTER:                  -6.512
REMARK INTRA:                  -0.527
REMARK CONF_INDEPENDENT:        0.895
REMARK UNBOUND:                -0.527
REMARK  3 active torsions:
REMARK  status: ('A' for Active; 'I' for Inactive)
REMARK       I    between atoms: C_2  and  N_3 
REMARK    1  A    between atoms: C_2  and  C_14 
REMARK    2  A    between atoms: N_3  and  N_4 
REMARK    3  A    between atoms: N_4  and  C_5 
ROOT
ATOM      1  C   UNL d   1      24.562 -17.652  -1.099  0.00  0.00     0.090 A 
ATOM      2  C   UNL d   1      24.405 -16.477  -1.853  0.00  0.00     0.037 A 
ATOM      3  C   UNL d   1      25.245 -15.366  -1.655  0.00  0.00     0.048 A 
ATOM      4  C   UNL d   1      26.272 -15.427  -0.718  0.00  0.00     0.158 A 
ATOM      5  F   UNL d   1      27.048 -14.353  -0.518  0.00  0.00    -0.203 F 
ATOM      6  C   UNL d   1      26.482 -16.592   0.003  0.00  0.00     0.195 A 
ATOM      7  F   UNL d   1      27.488 -16.652   0.888  0.00  0.00    -0.199 F 
ATOM      8  C   UNL d   1      25.641 -17.692  -0.190  0.00  0.00     0.185 A 
ATOM      9  F   UNL d   1      25.874 -18.810   0.515  0.00  0.00    -0.200 F 
ENDROOT
BRANCH   1  10
ATOM     10  N   UNL d   1      23.655 -18.729  -1.215  0.00  0.00    -0.295 N 
ATOM     11  H   UNL d   1      23.374 -19.037  -2.149  0.00  0.00     0.187 HD
BRANCH  10  12
ATOM     12  N   UNL d   1      22.746 -19.011  -0.180  0.00  0.00    -0.269 N 
ATOM     13  C   UNL d   1      21.421 -19.314  -0.505  0.00  0.00     0.240 C 
ATOM     14  O   UNL d   1      20.960 -19.326  -1.645  0.00  0.00    -0.271 OA
ATOM     15  H   UNL d   1      23.067 -18.965   0.781  0.00  0.00     0.190 HD
BRANCH  13  16
ATOM     16  C   UNL d   1      20.582 -19.685   0.676  0.00  0.00     0.080 A 
ATOM     17  C   UNL d   1      19.085 -19.505   0.464  0.00  0.00     0.015 A 
ATOM     18  C   UNL d   1      19.614 -20.837   0.875  0.00  0.00     0.015 A 
ENDBRANCH  13  16
ENDBRANCH  10  12
ENDBRANCH   1  10
TORSDOF 3
ENDMDL
MODEL 5
REMARK VINA RESULT:    -5.472      1.351      1.489
REMARK INTER + INTRA:          -6.955
REMARK INTER:                  -6.367
REMARK INTRA:                  -0.588
REMARK CONF_INDEPENDENT:        0.895
REMARK UNBOUND:                -0.588
REMARK  3 active torsions:
REMARK  status: ('A' for Active; 'I' for Inactive)
REMARK       I    between atoms: C_2  and  N_3 
REMARK    1  A    between atoms: C_2  and  C_14 
REMARK    2  A    between atoms: N_3  and  N_4 
REMARK    3  A    between atoms: N_4  and  C_5 
ROOT
ATOM      1  C   UNL d   1      24.890 -17.280  -0.957  0.00  0.00     0.090 A 
ATOM      2  C   UNL d   1      25.528 -17.781   0.190  0.00  0.00     0.037 A 
ATOM      3  C   UNL d   1      26.865 -17.455   0.481  0.00  0.00     0.048 A 
ATOM      4  C   UNL d   1      27.573 -16.601  -0.358  0.00  0.00     0.158 A 
ATOM      5  F   UNL d   1      28.855 -16.320  -0.086  0.00  0.00    -0.203 F 
ATOM      6  C   UNL d   1      26.952 -16.051  -1.469  0.00  0.00     0.195 A 
ATOM      7  F   UNL d   1      27.633 -15.210  -2.262  0.00  0.00    -0.199 F 
ATOM      8  C   UNL d   1      25.625 -16.382  -1.760  0.00  0.00     0.185 A 
ATOM      9  F   UNL d   1      25.046 -15.828  -2.837  0.00  0.00    -0.200 F 
ENDROOT
BRANCH   1  10
ATOM     10  N   UNL d   1      23.586 -17.689  -1.313  0.00  0.00    -0.295 N 
ATOM     11  H   UNL d   1      22.996 -17.046  -1.848  0.00  0.00     0.187 HD
BRANCH  10  12
ATOM     12  N   UNL d   1      22.901 -18.644  -0.541  0.00  0.00    -0.269 N 
ATOM     13  C   UNL d   1      21.506 -18.594  -0.479  0.00  0.00     0.240 C 
ATOM     14  O   UNL d   1      20.806 -17.746  -1.032  0.00  0.00    -0.271 OA
ATOM     15  H   UNL d   1      23.437 -19.335  -0.026  0.00  0.00     0.190 HD
BRANCH  13  16
ATOM     16  C   UNL d   1      20.897 -19.718   0.297  0.00  0.00     0.080 A 
ATOM     17  C   UNL d   1      19.587 -19.365   0.988  0.00  0.00     0.015 A 
ATOM     18  C   UNL d   1      19.632 -20.518   0.044  0.00  0.00     0.015 A 
ENDBRANCH  13  16
ENDBRANCH  10  12
ENDBRANCH   1  10
TORSDOF 3
ENDMDL
MODEL 6
REMARK VINA RESULT:    -5.364      3.557      6.805
REMARK INTER + INTRA:          -6.726
REMARK INTER:                  -6.259
REMARK INTRA:                  -0.468
REMARK CONF_INDEPENDENT:        0.895
REMARK UNBOUND:                -0.468
REMARK  3 active torsions:
REMARK  status: ('A' for Active; 'I' for Inactive)
REMARK       I    between atoms: C_2  and  N_3 
REMARK    1  A    between atoms: C_2  and  C_14 
REMARK    2  A    between atoms: N_3  and  N_4 
REMARK    3  A    between atoms: N_4  and  C_5 
ROOT
ATOM      1  C   UNL d   1      20.716 -19.209   0.010  0.00  0.00     0.090 A 
ATOM      2  C   UNL d   1      20.654 -19.371   1.404  0.00  0.00     0.037 A 
ATOM      3  C   UNL d   1      19.558 -20.003   2.017  0.00  0.00     0.048 A 
ATOM      4  C   UNL d   1      18.521 -20.509   1.239  0.00  0.00     0.158 A 
ATOM      5  F   UNL d   1      17.468 -21.086   1.836  0.00  0.00    -0.203 F 
ATOM      6  C   UNL d   1      18.580 -20.410  -0.142  0.00  0.00     0.195 A 
ATOM      7  F   UNL d   1      17.588 -20.920  -0.888  0.00  0.00    -0.199 F 
ATOM      8  C   UNL d   1      19.667 -19.773  -0.748  0.00  0.00     0.185 A 
ATOM      9  F   UNL d   1      19.703 -19.700  -2.088  0.00  0.00    -0.200 F 
ENDROOT
BRANCH   1  10
ATOM     10  N   UNL d   1      21.758 -18.479  -0.603  0.00  0.00    -0.295 N 
ATOM     11  H   UNL d   1      21.694 -18.275  -1.604  0.00  0.00     0.187 HD
BRANCH  10  12
ATOM     12  N   UNL d   1      23.057 -18.502  -0.067  0.00  0.00    -0.269 N 
ATOM     13  C   UNL d   1      23.989 -17.556  -0.501  0.00  0.00     0.240 C 
ATOM     14  O   UNL d   1      23.775 -16.698  -1.357  0.00  0.00    -0.271 OA
ATOM     15  H   UNL d   1      23.297 -19.222   0.607  0.00  0.00     0.190 HD
BRANCH  13  16
ATOM     16  C   UNL d   1      25.301 -17.630   0.212  0.00  0.00     0.080 A 
ATOM     17  C   UNL d   1      26.502 -17.826  -0.702  0.00  0.00     0.015 A 
ATOM     18  C   UNL d   1      26.470 -16.662   0.230  0.00  0.00     0.015 A 
ENDBRANCH  13  16
ENDBRANCH  10  12
ENDBRANCH   1  10
TORSDOF 3
ENDMDL
MODEL 7
REMARK VINA RESULT:    -5.156      1.697      2.145
REMARK INTER + INTRA:          -6.368
REMARK INTER:                  -6.051
REMARK INTRA:                  -0.317
REMARK CONF_INDEPENDENT:        0.895
REMARK UNBOUND:                -0.317
REMARK  3 active torsions:
REMARK  status: ('A' for Active; 'I' for Inactive)
REMARK       I    between atoms: C_2  and  N_3 
REMARK    1  A    between atoms: C_2  and  C_14 
REMARK    2  A    between atoms: N_3  and  N_4 
REMARK    3  A    between atoms: N_4  and  C_5 
ROOT
ATOM      1  C   UNL d   1      24.882 -17.197  -0.602  0.00  0.00     0.090 A 
ATOM      2  C   UNL d   1      26.272 -17.383  -0.686  0.00  0.00     0.037 A 
ATOM      3  C   UNL d   1      27.058 -16.618  -1.568  0.00  0.00     0.048 A 
ATOM      4  C   UNL d   1      26.466 -15.637  -2.356  0.00  0.00     0.158 A 
ATOM      5  F   UNL d   1      27.220 -14.933  -3.213  0.00  0.00    -0.203 F 
ATOM      6  C   UNL d   1      25.104 -15.396  -2.256  0.00  0.00     0.195 A 
ATOM      7  F   UNL d   1      24.543 -14.433  -3.003  0.00  0.00    -0.199 F 
ATOM      8  C   UNL d   1      24.324 -16.164  -1.385  0.00  0.00     0.185 A 
ATOM      9  F   UNL d   1      23.010 -15.903  -1.302  0.00  0.00    -0.200 F 
ENDROOT
BRANCH   1  10
ATOM     10  N   UNL d   1      24.073 -18.034   0.197  0.00  0.00    -0.295 N 
ATOM     11  H   UNL d   1      24.454 -18.930   0.514  0.00  0.00     0.187 HD
BRANCH  10  12
ATOM     12  N   UNL d   1      22.671 -17.963   0.116  0.00  0.00    -0.269 N 
ATOM     13  C   UNL d   1      22.023 -18.548  -0.975  0.00  0.00     0.240 C 
ATOM     14  O   UNL d   1      22.589 -19.109  -1.913  0.00  0.00    -0.271 OA
ATOM     15  H   UNL d   1      22.163 -17.466   0.840  0.00  0.00     0.190 HD
BRANCH  13  16
ATOM     16  C   UNL d   1      20.531 -18.483  -0.895  0.00  0.00     0.080 A 
ATOM     17  C   UNL d   1      19.819 -19.700  -1.470  0.00  0.00     0.015 A 
ATOM     18  C   UNL d   1      19.553 -19.291  -0.061  0.00  0.00     0.015 A 
ENDBRANCH  13  16
ENDBRANCH  10  12
ENDBRANCH   1  10
TORSDOF 3
ENDMDL
MODEL 8
REMARK VINA RESULT:    -4.637      9.250     10.558
REMARK INTER + INTRA:          -6.081
REMARK INTER:                  -5.532
REMARK INTRA:                  -0.549
REMARK CONF_INDEPENDENT:        0.895
REMARK UNBOUND:                -0.549
REMARK  3 active torsions:
REMARK  status: ('A' for Active; 'I' for Inactive)
REMARK       I    between atoms: C_2  and  N_3 
REMARK    1  A    between atoms: C_2  and  C_14 
REMARK    2  A    between atoms: N_3  and  N_4 
REMARK    3  A    between atoms: N_4  and  C_5 
ROOT
ATOM      1  C   UNL d   1      31.761 -21.308   3.564  0.00  0.00     0.090 A 
ATOM      2  C   UNL d   1      33.140 -21.121   3.760  0.00  0.00     0.037 A 
ATOM      3  C   UNL d   1      33.700 -21.119   5.050  0.00  0.00     0.048 A 
ATOM      4  C   UNL d   1      32.891 -21.335   6.161  0.00  0.00     0.158 A 
ATOM      5  F   UNL d   1      33.431 -21.305   7.388  0.00  0.00    -0.203 F 
ATOM      6  C   UNL d   1      31.536 -21.575   5.994  0.00  0.00     0.195 A 
ATOM      7  F   UNL d   1      30.765 -21.804   7.068  0.00  0.00    -0.199 F 
ATOM      8  C   UNL d   1      30.981 -21.567   4.711  0.00  0.00     0.185 A 
ATOM      9  F   UNL d   1      29.667 -21.811   4.578  0.00  0.00    -0.200 F 
ENDROOT
BRANCH   1  10
ATOM     10  N   UNL d   1      31.177 -21.200   2.283  0.00  0.00    -0.295 N 
ATOM     11  H   UNL d   1      30.405 -20.541   2.148  0.00  0.00     0.187 HD
BRANCH  10  12
ATOM     12  N   UNL d   1      31.220 -22.281   1.385  0.00  0.00    -0.269 N 
ATOM     13  C   UNL d   1      30.023 -22.780   0.865  0.00  0.00     0.240 C 
ATOM     14  O   UNL d   1      28.902 -22.365   1.154  0.00  0.00    -0.271 OA
ATOM     15  H   UNL d   1      32.119 -22.691   1.153  0.00  0.00     0.190 HD
BRANCH  13  16
ATOM     16  C   UNL d   1      30.212 -23.865  -0.147  0.00  0.00     0.080 A 
ATOM     17  C   UNL d   1      31.024 -25.052   0.351  0.00  0.00     0.015 A 
ATOM     18  C   UNL d   1      29.655 -25.276  -0.196  0.00  0.00     0.015 A 
ENDBRANCH  13  16
ENDBRANCH  10  12
ENDBRANCH   1  10
TORSDOF 3
ENDMDL
MODEL 9
REMARK VINA RESULT:    -4.614      3.726      6.564
REMARK INTER + INTRA:          -5.946
REMARK INTER:                  -5.509
REMARK INTRA:                  -0.437
REMARK CONF_INDEPENDENT:        0.895
REMARK UNBOUND:                -0.437
REMARK  3 active torsions:
REMARK  status: ('A' for Active; 'I' for Inactive)
REMARK       I    between atoms: C_2  and  N_3 
REMARK    1  A    between atoms: C_2  and  C_14 
REMARK    2  A    between atoms: N_3  and  N_4 
REMARK    3  A    between atoms: N_4  and  C_5 
ROOT
ATOM      1  C   UNL d   1      25.038 -16.515  -1.120  0.00  0.00     0.090 A 
ATOM      2  C   UNL d   1      25.418 -17.699  -0.464  0.00  0.00     0.037 A 
ATOM      3  C   UNL d   1      24.458 -18.574   0.075  0.00  0.00     0.048 A 
ATOM      4  C   UNL d   1      23.103 -18.290  -0.062  0.00  0.00     0.158 A 
ATOM      5  F   UNL d   1      22.197 -19.118   0.481  0.00  0.00    -0.203 F 
ATOM      6  C   UNL d   1      22.698 -17.157  -0.750  0.00  0.00     0.195 A 
ATOM      7  F   UNL d   1      21.389 -16.902  -0.897  0.00  0.00    -0.199 F 
ATOM      8  C   UNL d   1      23.655 -16.285  -1.277  0.00  0.00     0.185 A 
ATOM      9  F   UNL d   1      23.234 -15.199  -1.946  0.00  0.00    -0.200 F 
ENDROOT
BRANCH   1  10
ATOM     10  N   UNL d   1      25.997 -15.579  -1.566  0.00  0.00    -0.295 N 
ATOM     11  H   UNL d   1      25.987 -14.637  -1.167  0.00  0.00     0.187 HD
BRANCH  10  12
ATOM     12  N   UNL d   1      26.565 -15.693  -2.847  0.00  0.00    -0.269 N 
ATOM     13  C   UNL d   1      25.926 -15.082  -3.929  0.00  0.00     0.240 C 
ATOM     14  O   UNL d   1      24.865 -14.462  -3.863  0.00  0.00    -0.271 OA
ATOM     15  H   UNL d   1      27.414 -16.236  -2.961  0.00  0.00     0.190 HD
BRANCH  13  16
ATOM     16  C   UNL d   1      26.679 -15.198  -5.216  0.00  0.00     0.080 A 
ATOM     17  C   UNL d   1      27.407 -13.928  -5.634  0.00  0.00     0.015 A 
ATOM     18  C   UNL d   1      28.172 -15.199  -5.488  0.00  0.00     0.015 A 
ENDBRANCH  13  16
ENDBRANCH  10  12
ENDBRANCH   1  10
TORSDOF 3
ENDMDL
