MODEL 1
REMARK VINA RESULT:    -9.155      0.000      0.000
REMARK INTER + INTRA:         -12.580
REMARK INTER:                 -11.541
REMARK INTRA:                  -1.039
REMARK CONF_INDEPENDENT:        2.386
REMARK UNBOUND:                -1.039
REMARK  8 active torsions:
REMARK  status: ('A' for Active; 'I' for Inactive)
REMARK    1  A    between atoms: C_2  and  O_3 
REMARK    2  A    between atoms: O_3  and  C_4 
REMARK    3  A    between atoms: C_4  and  C_6 
REMARK    4  A    between atoms: C_9  and  N_10 
REMARK    5  A    between atoms: C_11  and  N_12 
REMARK    6  A    between atoms: C_13  and  C_14 
REMARK       I    between atoms: C_14  and  N_16 
REMARK    7  A    between atoms: N_16  and  C_17 
REMARK    8  A    between atoms: C_17  and  C_18 
ROOT
ATOM      1  N   UNL d   1      26.107 -17.098  -1.232  0.00  0.00    -0.279 N 
ATOM      2  C   UNL d   1      27.278 -17.391  -0.462  0.00  0.00     0.126 C 
ATOM      3  C   UNL d   1      28.317 -16.544  -0.863  0.00  0.00     0.108 C 
ATOM      4  C   UNL d   1      27.626 -15.572  -1.578  0.00  0.00     0.123 C 
ATOM      5  N   UNL d   1      27.915 -14.282  -1.880  0.00  0.00    -0.242 NA
ATOM      6  C   UNL d   1      27.046 -13.835  -2.796  0.00  0.00     0.086 C 
ATOM      7  C   UNL d   1      25.803 -13.229  -2.541  0.00  0.00     0.034 C 
ATOM      8  C   UNL d   1      24.954 -12.948  -3.627  0.00  0.00     0.002 C 
ATOM      9  C   UNL d   1      25.547 -12.993  -4.875  0.00  0.00     0.002 C 
ATOM     10  C   UNL d   1      26.679 -13.786  -4.955  0.00  0.00     0.034 C 
ATOM     11  C   UNL d   1      26.857 -14.626  -3.859  0.00  0.00     0.088 C 
ATOM     12  N   UNL d   1      26.213 -15.831  -3.507  0.00  0.00    -0.226 NA
ATOM     13  C   UNL d   1      26.598 -16.244  -2.248  0.00  0.00     0.167 C 
ENDROOT
BRANCH   1  14
ATOM     14  C   UNL d   1      24.733 -17.536  -0.951  0.00  0.00     0.043 A 
ATOM     15  C   UNL d   1      24.449 -18.855  -0.519  0.00  0.00     0.031 A 
ATOM     16  C   UNL d   1      23.111 -19.300  -0.265  0.00  0.00     0.020 A 
ATOM     17  C   UNL d   1      22.006 -18.462  -0.489  0.00  0.00     0.039 A 
ATOM     18  C   UNL d   1      22.287 -17.150  -0.895  0.00  0.00     0.020 A 
ATOM     19  C   UNL d   1      23.630 -16.681  -1.083  0.00  0.00     0.031 A 
BRANCH  17  20
ATOM     20  C   UNL d   1      20.600 -18.950  -0.197  0.00  0.00     0.293 C 
ATOM     21  O   UNL d   1      19.622 -18.509  -0.792  0.00  0.00    -0.259 OA
BRANCH  20  22
ATOM     22  O   UNL d   1      20.540 -19.891   0.796  0.00  0.00    -0.318 OA
BRANCH  22  23
ATOM     23  C   UNL d   1      19.270 -19.967   1.506  0.00  0.00     0.174 C 
ATOM     24  C   UNL d   1      18.471 -21.195   1.076  0.00  0.00     0.034 C 
ENDBRANCH  22  23
ENDBRANCH  20  22
ENDBRANCH  17  20
ENDBRANCH   1  14
BRANCH   2  25
ATOM     25  N   UNL d   1      27.324 -18.393   0.444  0.00  0.00    -0.384 N 
ATOM     26  H   UNL d   1      28.157 -18.943   0.634  0.00  0.00     0.157 HD
ATOM     27  H   UNL d   1      26.616 -18.430   1.180  0.00  0.00     0.157 HD
ENDBRANCH   2  25
BRANCH   3  28
ATOM     28  C   UNL d   1      29.768 -16.585  -0.635  0.00  0.00     0.258 C 
ATOM     29  O   UNL d   1      30.570 -16.908  -1.531  0.00  0.00    -0.267 OA
ATOM     30  N   UNL d   1      30.188 -16.135   0.605  0.00  0.00    -0.351 N 
ATOM     31  H   UNL d   1      29.469 -15.978   1.305  0.00  0.00     0.163 HD
BRANCH  30  32
ATOM     32  C   UNL d   1      31.577 -15.995   1.031  0.00  0.00     0.187 C 
BRANCH  32  33
ATOM     33  C   UNL d   1      32.180 -17.332   1.363  0.00  0.00     0.070 A 
ATOM     34  C   UNL d   1      32.803 -17.865   2.479  0.00  0.00     0.036 A 
ATOM     35  C   UNL d   1      33.181 -19.192   2.153  0.00  0.00     0.027 A 
ATOM     36  C   UNL d   1      32.778 -19.394   0.856  0.00  0.00     0.142 A 
ATOM     37  O   UNL d   1      32.171 -18.277   0.368  0.00  0.00    -0.325 OA
ENDBRANCH  32  33
ENDBRANCH  30  32
ENDBRANCH   3  28
TORSDOF 8
ENDMDL
MODEL 2
REMARK VINA RESULT:    -9.081      2.306      2.780
REMARK INTER + INTRA:         -12.980
REMARK INTER:                 -11.468
REMARK INTRA:                  -1.512
REMARK CONF_INDEPENDENT:        2.386
REMARK UNBOUND:                -1.512
REMARK  8 active torsions:
REMARK  status: ('A' for Active; 'I' for Inactive)
REMARK    1  A    between atoms: C_2  and  O_3 
REMARK    2  A    between atoms: O_3  and  C_4 
REMARK    3  A    between atoms: C_4  and  C_6 
REMARK    4  A    between atoms: C_9  and  N_10 
REMARK    5  A    between atoms: C_11  and  N_12 
REMARK    6  A    between atoms: C_13  and  C_14 
REMARK       I    between atoms: C_14  and  N_16 
REMARK    7  A    between atoms: N_16  and  C_17 
REMARK    8  A    between atoms: C_17  and  C_18 
ROOT
ATOM      1  N   UNL d   1      25.947 -16.648  -0.742  0.00  0.00    -0.279 N 
ATOM      2  C   UNL d   1      26.925 -16.639   0.303  0.00  0.00     0.126 C 
ATOM      3  C   UNL d   1      27.901 -15.679   0.011  0.00  0.00     0.108 C 
ATOM      4  C   UNL d   1      27.273 -14.935  -0.983  0.00  0.00     0.123 C 
ATOM      5  N   UNL d   1      27.442 -13.660  -1.413  0.00  0.00    -0.242 NA
ATOM      6  C   UNL d   1      26.767 -13.485  -2.557  0.00  0.00     0.086 C 
ATOM      7  C   UNL d   1      25.427 -13.078  -2.680  0.00  0.00     0.034 C 
ATOM      8  C   UNL d   1      24.836 -13.082  -3.957  0.00  0.00     0.002 C 
ATOM      9  C   UNL d   1      25.714 -13.174  -5.021  0.00  0.00     0.002 C 
ATOM     10  C   UNL d   1      26.932 -13.761  -4.724  0.00  0.00     0.034 C 
ATOM     11  C   UNL d   1      26.955 -14.419  -3.496  0.00  0.00     0.088 C 
ATOM     12  N   UNL d   1      26.421 -15.666  -3.109  0.00  0.00    -0.226 NA
ATOM     13  C   UNL d   1      26.543 -15.851  -1.748  0.00  0.00     0.167 C 
ENDROOT
BRANCH   1  14
ATOM     14  C   UNL d   1      24.620 -17.281  -0.705  0.00  0.00     0.043 A 
ATOM     15  C   UNL d   1      24.471 -18.678  -0.521  0.00  0.00     0.031 A 
ATOM     16  C   UNL d   1      23.185 -19.309  -0.506  0.00  0.00     0.020 A 
ATOM     17  C   UNL d   1      22.008 -18.576  -0.733  0.00  0.00     0.039 A 
ATOM     18  C   UNL d   1      22.153 -17.192  -0.893  0.00  0.00     0.020 A 
ATOM     19  C   UNL d   1      23.434 -16.548  -0.839  0.00  0.00     0.031 A 
BRANCH  17  20
ATOM     20  C   UNL d   1      20.656 -19.264  -0.697  0.00  0.00     0.293 C 
ATOM     21  O   UNL d   1      20.280 -20.008  -1.597  0.00  0.00    -0.259 OA
BRANCH  20  22
ATOM     22  O   UNL d   1      19.909 -18.948   0.407  0.00  0.00    -0.318 OA
BRANCH  22  23
ATOM     23  C   UNL d   1      19.675 -20.047   1.335  0.00  0.00     0.174 C 
ATOM     24  C   UNL d   1      18.780 -21.115   0.710  0.00  0.00     0.034 C 
ENDBRANCH  22  23
ENDBRANCH  20  22
ENDBRANCH  17  20
ENDBRANCH   1  14
BRANCH   2  25
ATOM     25  N   UNL d   1      26.891 -17.500   1.344  0.00  0.00    -0.384 N 
ATOM     26  H   UNL d   1      26.812 -18.507   1.239  0.00  0.00     0.157 HD
ATOM     27  H   UNL d   1      27.246 -17.195   2.253  0.00  0.00     0.157 HD
ENDBRANCH   2  25
BRANCH   3  28
ATOM     28  C   UNL d   1      29.243 -15.439   0.556  0.00  0.00     0.258 C 
ATOM     29  O   UNL d   1      30.276 -15.681  -0.096  0.00  0.00    -0.267 OA
ATOM     30  N   UNL d   1      29.281 -14.824   1.796  0.00  0.00    -0.351 N 
ATOM     31  H   UNL d   1      28.402 -14.745   2.298  0.00  0.00     0.163 HD
BRANCH  30  32
ATOM     32  C   UNL d   1      30.490 -14.403   2.498  0.00  0.00     0.187 C 
BRANCH  32  33
ATOM     33  C   UNL d   1      30.164 -13.856   3.860  0.00  0.00     0.070 A 
ATOM     34  C   UNL d   1      30.777 -12.958   4.718  0.00  0.00     0.036 A 
ATOM     35  C   UNL d   1      29.977 -12.882   5.886  0.00  0.00     0.027 A 
ATOM     36  C   UNL d   1      28.927 -13.743   5.683  0.00  0.00     0.142 A 
ATOM     37  O   UNL d   1      29.029 -14.337   4.463  0.00  0.00    -0.325 OA
ENDBRANCH  32  33
ENDBRANCH  30  32
ENDBRANCH   3  28
TORSDOF 8
ENDMDL
MODEL 3
REMARK VINA RESULT:    -8.835      0.981      1.153
REMARK INTER + INTRA:         -12.822
REMARK INTER:                 -11.221
REMARK INTRA:                  -1.601
REMARK CONF_INDEPENDENT:        2.386
REMARK UNBOUND:                -1.601
REMARK  8 active torsions:
REMARK  status: ('A' for Active; 'I' for Inactive)
REMARK    1  A    between atoms: C_2  and  O_3 
REMARK    2  A    between atoms: O_3  and  C_4 
REMARK    3  A    between atoms: C_4  and  C_6 
REMARK    4  A    between atoms: C_9  and  N_10 
REMARK    5  A    between atoms: C_11  and  N_12 
REMARK    6  A    between atoms: C_13  and  C_14 
REMARK       I    between atoms: C_14  and  N_16 
REMARK    7  A    between atoms: N_16  and  C_17 
REMARK    8  A    between atoms: C_17  and  C_18 
ROOT
ATOM      1  N   UNL d   1      25.974 -16.872  -0.945  0.00  0.00    -0.279 N 
ATOM      2  C   UNL d   1      27.045 -16.971  -0.001  0.00  0.00     0.126 C 
ATOM      3  C   UNL d   1      28.047 -16.055  -0.343  0.00  0.00     0.108 C 
ATOM      4  C   UNL d   1      27.376 -15.228  -1.236  0.00  0.00     0.123 C 
ATOM      5  N   UNL d   1      27.582 -13.944  -1.624  0.00  0.00    -0.242 NA
ATOM      6  C   UNL d   1      26.814 -13.673  -2.687  0.00  0.00     0.086 C 
ATOM      7  C   UNL d   1      25.496 -13.184  -2.661  0.00  0.00     0.034 C 
ATOM      8  C   UNL d   1      24.788 -13.089  -3.872  0.00  0.00     0.002 C 
ATOM      9  C   UNL d   1      25.553 -13.177  -5.020  0.00  0.00     0.002 C 
ATOM     10  C   UNL d   1      26.755 -13.849  -4.870  0.00  0.00     0.034 C 
ATOM     11  C   UNL d   1      26.854 -14.568  -3.681  0.00  0.00     0.088 C 
ATOM     12  N   UNL d   1      26.282 -15.800  -3.300  0.00  0.00    -0.226 NA
ATOM     13  C   UNL d   1      26.521 -16.061  -1.967  0.00  0.00     0.167 C 
ENDROOT
BRANCH   1  14
ATOM     14  C   UNL d   1      24.620 -17.428  -0.806  0.00  0.00     0.043 A 
ATOM     15  C   UNL d   1      24.409 -18.800  -0.520  0.00  0.00     0.031 A 
ATOM     16  C   UNL d   1      23.095 -19.358  -0.406  0.00  0.00     0.020 A 
ATOM     17  C   UNL d   1      21.947 -18.580  -0.633  0.00  0.00     0.039 A 
ATOM     18  C   UNL d   1      22.154 -17.219  -0.895  0.00  0.00     0.020 A 
ATOM     19  C   UNL d   1      23.468 -16.643  -0.941  0.00  0.00     0.031 A 
BRANCH  17  20
ATOM     20  C   UNL d   1      20.565 -19.190  -0.491  0.00  0.00     0.293 C 
ATOM     21  O   UNL d   1      19.979 -19.700  -1.440  0.00  0.00    -0.259 OA
BRANCH  20  22
ATOM     22  O   UNL d   1      20.046 -19.086   0.772  0.00  0.00    -0.318 OA
BRANCH  22  23
ATOM     23  C   UNL d   1      19.703 -20.350   1.410  0.00  0.00     0.174 C 
ATOM     24  C   UNL d   1      18.412 -20.926   0.833  0.00  0.00     0.034 C 
ENDBRANCH  22  23
ENDBRANCH  20  22
ENDBRANCH  17  20
ENDBRANCH   1  14
BRANCH   2  25
ATOM     25  N   UNL d   1      27.056 -17.881   0.999  0.00  0.00    -0.384 N 
ATOM     26  H   UNL d   1      26.303 -17.988   1.671  0.00  0.00     0.157 HD
ATOM     27  H   UNL d   1      27.679 -18.689   0.928  0.00  0.00     0.157 HD
ENDBRANCH   2  25
BRANCH   3  28
ATOM     28  C   UNL d   1      29.447 -15.922   0.078  0.00  0.00     0.258 C 
ATOM     29  O   UNL d   1      29.933 -14.830   0.428  0.00  0.00    -0.267 OA
ATOM     30  N   UNL d   1      30.157 -17.108   0.168  0.00  0.00    -0.351 N 
ATOM     31  H   UNL d   1      29.719 -17.937  -0.220  0.00  0.00     0.163 HD
BRANCH  30  32
ATOM     32  C   UNL d   1      31.530 -17.241   0.649  0.00  0.00     0.187 C 
BRANCH  32  33
ATOM     33  C   UNL d   1      32.166 -18.501   0.130  0.00  0.00     0.070 A 
ATOM     34  C   UNL d   1      33.456 -19.003   0.121  0.00  0.00     0.036 A 
ATOM     35  C   UNL d   1      33.416 -20.249  -0.556  0.00  0.00     0.027 A 
ATOM     36  C   UNL d   1      32.108 -20.434  -0.930  0.00  0.00     0.142 A 
ATOM     37  O   UNL d   1      31.343 -19.385  -0.521  0.00  0.00    -0.325 OA
ENDBRANCH  32  33
ENDBRANCH  30  32
ENDBRANCH   3  28
TORSDOF 8
ENDMDL
MODEL 4
REMARK VINA RESULT:    -8.483      2.584      3.205
REMARK INTER + INTRA:         -12.059
REMARK INTER:                 -10.869
REMARK INTRA:                  -1.190
REMARK CONF_INDEPENDENT:        2.386
REMARK UNBOUND:                -1.190
REMARK  8 active torsions:
REMARK  status: ('A' for Active; 'I' for Inactive)
REMARK    1  A    between atoms: C_2  and  O_3 
REMARK    2  A    between atoms: O_3  and  C_4 
REMARK    3  A    between atoms: C_4  and  C_6 
REMARK    4  A    between atoms: C_9  and  N_10 
REMARK    5  A    between atoms: C_11  and  N_12 
REMARK    6  A    between atoms: C_13  and  C_14 
REMARK       I    between atoms: C_14  and  N_16 
REMARK    7  A    between atoms: N_16  and  C_17 
REMARK    8  A    between atoms: C_17  and  C_18 
ROOT
ATOM      1  N   UNL d   1      26.993 -16.195  -0.789  0.00  0.00    -0.279 N 
ATOM      2  C   UNL d   1      27.691 -15.653   0.337  0.00  0.00     0.126 C 
ATOM      3  C   UNL d   1      28.702 -14.798  -0.116  0.00  0.00     0.108 C 
ATOM      4  C   UNL d   1      28.328 -14.598  -1.440  0.00  0.00     0.123 C 
ATOM      5  N   UNL d   1      28.587 -13.602  -2.322  0.00  0.00    -0.242 NA
ATOM      6  C   UNL d   1      28.206 -13.984  -3.548  0.00  0.00     0.086 C 
ATOM      7  C   UNL d   1      26.932 -13.809  -4.118  0.00  0.00     0.034 C 
ATOM      8  C   UNL d   1      26.665 -14.399  -5.367  0.00  0.00     0.002 C 
ATOM      9  C   UNL d   1      27.774 -14.824  -6.075  0.00  0.00     0.002 C 
ATOM     10  C   UNL d   1      28.889 -15.104  -5.303  0.00  0.00     0.034 C 
ATOM     11  C   UNL d   1      28.620 -15.195  -3.939  0.00  0.00     0.088 C 
ATOM     12  N   UNL d   1      28.017 -16.223  -3.186  0.00  0.00    -0.226 NA
ATOM     13  C   UNL d   1      27.809 -15.820  -1.883  0.00  0.00     0.167 C 
ENDROOT
BRANCH   1  14
ATOM     14  C   UNL d   1      25.701 -16.895  -0.774  0.00  0.00     0.043 A 
ATOM     15  C   UNL d   1      24.527 -16.297  -1.296  0.00  0.00     0.031 A 
ATOM     16  C   UNL d   1      23.258 -16.960  -1.265  0.00  0.00     0.020 A 
ATOM     17  C   UNL d   1      23.104 -18.218  -0.658  0.00  0.00     0.039 A 
ATOM     18  C   UNL d   1      24.268 -18.820  -0.160  0.00  0.00     0.020 A 
ATOM     19  C   UNL d   1      25.553 -18.188  -0.253  0.00  0.00     0.031 A 
BRANCH  17  20
ATOM     20  C   UNL d   1      21.753 -18.908  -0.652  0.00  0.00     0.293 C 
ATOM     21  O   UNL d   1      21.229 -19.322  -1.681  0.00  0.00    -0.259 OA
BRANCH  20  22
ATOM     22  O   UNL d   1      21.185 -18.990   0.591  0.00  0.00    -0.318 OA
BRANCH  22  23
ATOM     23  C   UNL d   1      19.766 -19.321   0.606  0.00  0.00     0.174 C 
ATOM     24  C   UNL d   1      19.525 -20.685   1.251  0.00  0.00     0.034 C 
ENDBRANCH  22  23
ENDBRANCH  20  22
ENDBRANCH  17  20
ENDBRANCH   1  14
BRANCH   2  25
ATOM     25  N   UNL d   1      27.413 -16.011   1.610  0.00  0.00    -0.384 N 
ATOM     26  H   UNL d   1      26.886 -16.843   1.859  0.00  0.00     0.157 HD
ATOM     27  H   UNL d   1      27.978 -15.625   2.370  0.00  0.00     0.157 HD
ENDBRANCH   2  25
BRANCH   3  28
ATOM     28  C   UNL d   1      29.873 -14.214   0.551  0.00  0.00     0.258 C 
ATOM     29  O   UNL d   1      30.520 -13.274   0.053  0.00  0.00    -0.267 OA
ATOM     30  N   UNL d   1      30.140 -14.703   1.819  0.00  0.00    -0.351 N 
ATOM     31  H   UNL d   1      29.625 -15.527   2.113  0.00  0.00     0.163 HD
BRANCH  30  32
ATOM     32  C   UNL d   1      31.189 -14.218   2.712  0.00  0.00     0.187 C 
BRANCH  32  33
ATOM     33  C   UNL d   1      30.631 -13.869   4.064  0.00  0.00     0.070 A 
ATOM     34  C   UNL d   1      30.747 -12.779   4.910  0.00  0.00     0.036 A 
ATOM     35  C   UNL d   1      29.991 -13.070   6.074  0.00  0.00     0.027 A 
ATOM     36  C   UNL d   1      29.464 -14.323   5.881  0.00  0.00     0.142 A 
ATOM     37  O   UNL d   1      29.844 -14.816   4.670  0.00  0.00    -0.325 OA
ENDBRANCH  32  33
ENDBRANCH  30  32
ENDBRANCH   3  28
TORSDOF 8
ENDMDL
MODEL 5
REMARK VINA RESULT:    -8.343      4.191      7.012
REMARK INTER + INTRA:         -12.199
REMARK INTER:                 -10.729
REMARK INTRA:                  -1.470
REMARK CONF_INDEPENDENT:        2.386
REMARK UNBOUND:                -1.470
REMARK  8 active torsions:
REMARK  status: ('A' for Active; 'I' for Inactive)
REMARK    1  A    between atoms: C_2  and  O_3 
REMARK    2  A    between atoms: O_3  and  C_4 
REMARK    3  A    between atoms: C_4  and  C_6 
REMARK    4  A    between atoms: C_9  and  N_10 
REMARK    5  A    between atoms: C_11  and  N_12 
REMARK    6  A    between atoms: C_13  and  C_14 
REMARK       I    between atoms: C_14  and  N_16 
REMARK    7  A    between atoms: N_16  and  C_17 
REMARK    8  A    between atoms: C_17  and  C_18 
ROOT
ATOM      1  N   UNL d   1      27.461 -14.944  -0.724  0.00  0.00    -0.279 N 
ATOM      2  C   UNL d   1      28.147 -14.616  -1.938  0.00  0.00     0.126 C 
ATOM      3  C   UNL d   1      27.568 -15.322  -2.998  0.00  0.00     0.108 C 
ATOM      4  C   UNL d   1      26.369 -15.742  -2.434  0.00  0.00     0.123 C 
ATOM      5  N   UNL d   1      25.177 -16.092  -2.978  0.00  0.00    -0.242 NA
ATOM      6  C   UNL d   1      24.408 -16.654  -2.036  0.00  0.00     0.086 C 
ATOM      7  C   UNL d   1      23.525 -15.985  -1.170  0.00  0.00     0.034 C 
ATOM      8  C   UNL d   1      22.900 -16.718  -0.145  0.00  0.00     0.002 C 
ATOM      9  C   UNL d   1      22.954 -18.093  -0.277  0.00  0.00     0.002 C 
ATOM     10  C   UNL d   1      24.006 -18.565  -1.043  0.00  0.00     0.034 C 
ATOM     11  C   UNL d   1      24.988 -17.611  -1.302  0.00  0.00     0.088 C 
ATOM     12  N   UNL d   1      26.008 -17.093  -0.478  0.00  0.00    -0.226 NA
ATOM     13  C   UNL d   1      26.656 -16.045  -1.099  0.00  0.00     0.167 C 
ENDROOT
BRANCH   1  14
ATOM     14  C   UNL d   1      27.545 -14.229   0.558  0.00  0.00     0.043 A 
ATOM     15  C   UNL d   1      28.590 -14.482   1.480  0.00  0.00     0.031 A 
ATOM     16  C   UNL d   1      28.669 -13.810   2.743  0.00  0.00     0.020 A 
ATOM     17  C   UNL d   1      27.675 -12.905   3.153  0.00  0.00     0.039 A 
ATOM     18  C   UNL d   1      26.652 -12.639   2.233  0.00  0.00     0.020 A 
ATOM     19  C   UNL d   1      26.609 -13.259   0.939  0.00  0.00     0.031 A 
BRANCH  17  20
ATOM     20  C   UNL d   1      27.788 -12.193   4.487  0.00  0.00     0.293 C 
ATOM     21  O   UNL d   1      28.200 -11.041   4.577  0.00  0.00    -0.259 OA
BRANCH  20  22
ATOM     22  O   UNL d   1      27.416 -12.965   5.555  0.00  0.00    -0.318 OA
BRANCH  22  23
ATOM     23  C   UNL d   1      28.508 -13.420   6.405  0.00  0.00     0.174 C 
ATOM     24  C   UNL d   1      29.075 -14.749   5.912  0.00  0.00     0.034 C 
ENDBRANCH  22  23
ENDBRANCH  20  22
ENDBRANCH  17  20
ENDBRANCH   1  14
BRANCH   2  25
ATOM     25  N   UNL d   1      29.225 -13.801  -1.970  0.00  0.00    -0.384 N 
ATOM     26  H   UNL d   1      30.130 -14.048  -1.582  0.00  0.00     0.157 HD
ATOM     27  H   UNL d   1      29.250 -13.038  -2.650  0.00  0.00     0.157 HD
ENDBRANCH   2  25
BRANCH   3  28
ATOM     28  C   UNL d   1      28.024 -15.593  -4.368  0.00  0.00     0.258 C 
ATOM     29  O   UNL d   1      27.392 -15.199  -5.367  0.00  0.00    -0.267 OA
ATOM     30  N   UNL d   1      29.256 -16.216  -4.473  0.00  0.00    -0.351 N 
ATOM     31  H   UNL d   1      29.660 -16.584  -3.617  0.00  0.00     0.163 HD
BRANCH  30  32
ATOM     32  C   UNL d   1      29.957 -16.506  -5.721  0.00  0.00     0.187 C 
BRANCH  32  33
ATOM     33  C   UNL d   1      30.402 -17.941  -5.771  0.00  0.00     0.070 A 
ATOM     34  C   UNL d   1      30.831 -18.789  -6.779  0.00  0.00     0.036 A 
ATOM     35  C   UNL d   1      31.081 -20.052  -6.185  0.00  0.00     0.027 A 
ATOM     36  C   UNL d   1      30.783 -19.910  -4.852  0.00  0.00     0.142 A 
ATOM     37  O   UNL d   1      30.372 -18.639  -4.590  0.00  0.00    -0.325 OA
ENDBRANCH  32  33
ENDBRANCH  30  32
ENDBRANCH   3  28
TORSDOF 8
ENDMDL
MODEL 6
REMARK VINA RESULT:    -7.884      1.685      2.559
REMARK INTER + INTRA:         -12.802
REMARK INTER:                 -10.271
REMARK INTRA:                  -2.532
REMARK CONF_INDEPENDENT:        2.386
REMARK UNBOUND:                -2.532
REMARK  8 active torsions:
REMARK  status: ('A' for Active; 'I' for Inactive)
REMARK    1  A    between atoms: C_2  and  O_3 
REMARK    2  A    between atoms: O_3  and  C_4 
REMARK    3  A    between atoms: C_4  and  C_6 
REMARK    4  A    between atoms: C_9  and  N_10 
REMARK    5  A    between atoms: C_11  and  N_12 
REMARK    6  A    between atoms: C_13  and  C_14 
REMARK       I    between atoms: C_14  and  N_16 
REMARK    7  A    between atoms: N_16  and  C_17 
REMARK    8  A    between atoms: C_17  and  C_18 
ROOT
ATOM      1  N   UNL d   1      26.024 -17.098  -1.149  0.00  0.00    -0.279 N 
ATOM      2  C   UNL d   1      27.172 -17.382  -0.341  0.00  0.00     0.126 C 
ATOM      3  C   UNL d   1      28.218 -16.531  -0.713  0.00  0.00     0.108 C 
ATOM      4  C   UNL d   1      27.545 -15.565  -1.453  0.00  0.00     0.123 C 
ATOM      5  N   UNL d   1      27.836 -14.275  -1.750  0.00  0.00    -0.242 NA
ATOM      6  C   UNL d   1      26.993 -13.836  -2.694  0.00  0.00     0.086 C 
ATOM      7  C   UNL d   1      25.740 -13.236  -2.481  0.00  0.00     0.034 C 
ATOM      8  C   UNL d   1      24.924 -12.963  -3.594  0.00  0.00     0.002 C 
ATOM      9  C   UNL d   1      25.556 -13.010  -4.822  0.00  0.00     0.002 C 
ATOM     10  C   UNL d   1      26.695 -13.797  -4.864  0.00  0.00     0.034 C 
ATOM     11  C   UNL d   1      26.843 -14.632  -3.760  0.00  0.00     0.088 C 
ATOM     12  N   UNL d   1      26.194 -15.839  -3.424  0.00  0.00    -0.226 NA
ATOM     13  C   UNL d   1      26.542 -16.246  -2.152  0.00  0.00     0.167 C 
ENDROOT
BRANCH   1  14
ATOM     14  C   UNL d   1      24.644 -17.543  -0.909  0.00  0.00     0.043 A 
ATOM     15  C   UNL d   1      24.351 -18.873  -0.520  0.00  0.00     0.031 A 
ATOM     16  C   UNL d   1      23.008 -19.324  -0.307  0.00  0.00     0.020 A 
ATOM     17  C   UNL d   1      21.908 -18.479  -0.531  0.00  0.00     0.039 A 
ATOM     18  C   UNL d   1      22.197 -17.157  -0.895  0.00  0.00     0.020 A 
ATOM     19  C   UNL d   1      23.544 -16.684  -1.042  0.00  0.00     0.031 A 
BRANCH  17  20
ATOM     20  C   UNL d   1      20.496 -18.974  -0.283  0.00  0.00     0.293 C 
ATOM     21  O   UNL d   1      19.517 -18.426  -0.780  0.00  0.00    -0.259 OA
BRANCH  20  22
ATOM     22  O   UNL d   1      20.432 -20.053   0.558  0.00  0.00    -0.318 OA
BRANCH  22  23
ATOM     23  C   UNL d   1      19.227 -20.137   1.372  0.00  0.00     0.174 C 
ATOM     24  C   UNL d   1      18.270 -21.199   0.833  0.00  0.00     0.034 C 
ENDBRANCH  22  23
ENDBRANCH  20  22
ENDBRANCH  17  20
ENDBRANCH   1  14
BRANCH   2  25
ATOM     25  N   UNL d   1      27.195 -18.381   0.570  0.00  0.00    -0.384 N 
ATOM     26  H   UNL d   1      26.383 -18.938   0.815  0.00  0.00     0.157 HD
ATOM     27  H   UNL d   1      28.091 -18.806   0.818  0.00  0.00     0.157 HD
ENDBRANCH   2  25
BRANCH   3  28
ATOM     28  C   UNL d   1      29.661 -16.563  -0.440  0.00  0.00     0.258 C 
ATOM     29  O   UNL d   1      30.257 -17.617  -0.145  0.00  0.00    -0.267 OA
ATOM     30  N   UNL d   1      30.331 -15.368  -0.641  0.00  0.00    -0.351 N 
ATOM     31  H   UNL d   1      29.762 -14.541  -0.790  0.00  0.00     0.163 HD
BRANCH  30  32
ATOM     32  C   UNL d   1      31.774 -15.174  -0.524  0.00  0.00     0.187 C 
BRANCH  32  33
ATOM     33  C   UNL d   1      32.141 -13.725  -0.684  0.00  0.00     0.070 A 
ATOM     34  C   UNL d   1      33.324 -13.009  -0.610  0.00  0.00     0.036 A 
ATOM     35  C   UNL d   1      33.004 -11.646  -0.830  0.00  0.00     0.027 A 
ATOM     36  C   UNL d   1      31.644 -11.602  -1.017  0.00  0.00     0.142 A 
ATOM     37  O   UNL d   1      31.112 -12.851  -0.931  0.00  0.00    -0.325 OA
ENDBRANCH  32  33
ENDBRANCH  30  32
ENDBRANCH   3  28
TORSDOF 8
ENDMDL
MODEL 7
REMARK VINA RESULT:    -7.314      4.008      6.933
REMARK INTER + INTRA:         -12.084
REMARK INTER:                  -9.700
REMARK INTRA:                  -2.384
REMARK CONF_INDEPENDENT:        2.386
REMARK UNBOUND:                -2.384
REMARK  8 active torsions:
REMARK  status: ('A' for Active; 'I' for Inactive)
REMARK    1  A    between atoms: C_2  and  O_3 
REMARK    2  A    between atoms: O_3  and  C_4 
REMARK    3  A    between atoms: C_4  and  C_6 
REMARK    4  A    between atoms: C_9  and  N_10 
REMARK    5  A    between atoms: C_11  and  N_12 
REMARK    6  A    between atoms: C_13  and  C_14 
REMARK       I    between atoms: C_14  and  N_16 
REMARK    7  A    between atoms: N_16  and  C_17 
REMARK    8  A    between atoms: C_17  and  C_18 
ROOT
ATOM      1  N   UNL d   1      26.786 -14.679  -3.715  0.00  0.00    -0.279 N 
ATOM      2  C   UNL d   1      26.280 -13.766  -4.695  0.00  0.00     0.126 C 
ATOM      3  C   UNL d   1      27.279 -13.505  -5.640  0.00  0.00     0.108 C 
ATOM      4  C   UNL d   1      28.182 -14.531  -5.383  0.00  0.00     0.123 C 
ATOM      5  N   UNL d   1      29.129 -15.127  -6.149  0.00  0.00    -0.242 NA
ATOM      6  C   UNL d   1      29.905 -15.898  -5.376  0.00  0.00     0.086 C 
ATOM      7  C   UNL d   1      29.681 -17.248  -5.053  0.00  0.00     0.034 C 
ATOM      8  C   UNL d   1      30.525 -17.865  -4.111  0.00  0.00     0.002 C 
ATOM      9  C   UNL d   1      31.697 -17.189  -3.827  0.00  0.00     0.002 C 
ATOM     10  C   UNL d   1      31.656 -15.825  -4.062  0.00  0.00     0.034 C 
ATOM     11  C   UNL d   1      30.371 -15.326  -4.259  0.00  0.00     0.088 C 
ATOM     12  N   UNL d   1      29.337 -15.053  -3.339  0.00  0.00    -0.226 NA
ATOM     13  C   UNL d   1      28.172 -14.715  -3.996  0.00  0.00     0.167 C 
ENDROOT
BRANCH   1  14
ATOM     14  C   UNL d   1      26.004 -15.435  -2.726  0.00  0.00     0.043 A 
ATOM     15  C   UNL d   1      26.586 -16.475  -1.959  0.00  0.00     0.031 A 
ATOM     16  C   UNL d   1      25.828 -17.234  -1.010  0.00  0.00     0.020 A 
ATOM     17  C   UNL d   1      24.451 -17.022  -0.836  0.00  0.00     0.039 A 
ATOM     18  C   UNL d   1      23.878 -15.980  -1.578  0.00  0.00     0.020 A 
ATOM     19  C   UNL d   1      24.650 -15.172  -2.478  0.00  0.00     0.031 A 
BRANCH  17  20
ATOM     20  C   UNL d   1      23.672 -17.828   0.187  0.00  0.00     0.293 C 
ATOM     21  O   UNL d   1      24.228 -18.574   0.986  0.00  0.00    -0.259 OA
BRANCH  20  22
ATOM     22  O   UNL d   1      22.316 -17.657   0.104  0.00  0.00    -0.318 OA
BRANCH  22  23
ATOM     23  C   UNL d   1      21.659 -18.399  -0.964  0.00  0.00     0.174 C 
ATOM     24  C   UNL d   1      20.615 -19.363  -0.404  0.00  0.00     0.034 C 
ENDBRANCH  22  23
ENDBRANCH  20  22
ENDBRANCH  17  20
ENDBRANCH   1  14
BRANCH   2  25
ATOM     25  N   UNL d   1      25.045 -13.222  -4.618  0.00  0.00    -0.384 N 
ATOM     26  H   UNL d   1      24.865 -12.278  -4.289  0.00  0.00     0.157 HD
ATOM     27  H   UNL d   1      24.288 -13.630  -5.170  0.00  0.00     0.157 HD
ENDBRANCH   2  25
BRANCH   3  28
ATOM     28  C   UNL d   1      27.420 -12.463  -6.665  0.00  0.00     0.258 C 
ATOM     29  O   UNL d   1      26.701 -11.446  -6.680  0.00  0.00    -0.267 OA
ATOM     30  N   UNL d   1      28.476 -12.632  -7.544  0.00  0.00    -0.351 N 
ATOM     31  H   UNL d   1      28.954 -13.528  -7.522  0.00  0.00     0.163 HD
BRANCH  30  32
ATOM     32  C   UNL d   1      28.873 -11.689  -8.586  0.00  0.00     0.187 C 
BRANCH  32  33
ATOM     33  C   UNL d   1      30.289 -11.933  -9.028  0.00  0.00     0.070 A 
ATOM     34  C   UNL d   1      31.181 -11.258  -9.844  0.00  0.00     0.036 A 
ATOM     35  C   UNL d   1      32.372 -12.027  -9.889  0.00  0.00     0.027 A 
ATOM     36  C   UNL d   1      32.139 -13.132  -9.108  0.00  0.00     0.142 A 
ATOM     37  O   UNL d   1      30.885 -13.086  -8.582  0.00  0.00    -0.325 OA
ENDBRANCH  32  33
ENDBRANCH  30  32
ENDBRANCH   3  28
TORSDOF 8
ENDMDL
MODEL 8
REMARK VINA RESULT:    -7.287      2.583      3.420
REMARK INTER + INTRA:         -12.078
REMARK INTER:                  -9.674
REMARK INTRA:                  -2.404
REMARK CONF_INDEPENDENT:        2.386
REMARK UNBOUND:                -2.404
REMARK  8 active torsions:
REMARK  status: ('A' for Active; 'I' for Inactive)
REMARK    1  A    between atoms: C_2  and  O_3 
REMARK    2  A    between atoms: O_3  and  C_4 
REMARK    3  A    between atoms: C_4  and  C_6 
REMARK    4  A    between atoms: C_9  and  N_10 
REMARK    5  A    between atoms: C_11  and  N_12 
REMARK    6  A    between atoms: C_13  and  C_14 
REMARK       I    between atoms: C_14  and  N_16 
REMARK    7  A    between atoms: N_16  and  C_17 
REMARK    8  A    between atoms: C_17  and  C_18 
ROOT
ATOM      1  N   UNL d   1      27.070 -16.494  -1.677  0.00  0.00    -0.279 N 
ATOM      2  C   UNL d   1      28.323 -16.736  -1.029  0.00  0.00     0.126 C 
ATOM      3  C   UNL d   1      29.276 -15.837  -1.519  0.00  0.00     0.108 C 
ATOM      4  C   UNL d   1      28.473 -14.893  -2.151  0.00  0.00     0.123 C 
ATOM      5  N   UNL d   1      28.669 -13.588  -2.462  0.00  0.00    -0.242 NA
ATOM      6  C   UNL d   1      27.694 -13.177  -3.283  0.00  0.00     0.086 C 
ATOM      7  C   UNL d   1      26.455 -12.633  -2.900  0.00  0.00     0.034 C 
ATOM      8  C   UNL d   1      25.491 -12.385  -3.893  0.00  0.00     0.002 C 
ATOM      9  C   UNL d   1      25.959 -12.391  -5.194  0.00  0.00     0.002 C 
ATOM     10  C   UNL d   1      27.115 -13.128  -5.395  0.00  0.00     0.034 C 
ATOM     11  C   UNL d   1      27.439 -13.967  -4.332  0.00  0.00     0.088 C 
ATOM     12  N   UNL d   1      26.891 -15.204  -3.935  0.00  0.00    -0.226 NA
ATOM     13  C   UNL d   1      27.416 -15.609  -2.725  0.00  0.00     0.167 C 
ENDROOT
BRANCH   1  14
ATOM     14  C   UNL d   1      25.752 -17.000  -1.268  0.00  0.00     0.043 A 
ATOM     15  C   UNL d   1      25.616 -18.197  -0.522  0.00  0.00     0.031 A 
ATOM     16  C   UNL d   1      24.336 -18.712  -0.138  0.00  0.00     0.020 A 
ATOM     17  C   UNL d   1      23.145 -18.083  -0.536  0.00  0.00     0.039 A 
ATOM     18  C   UNL d   1      23.278 -16.887  -1.255  0.00  0.00     0.020 A 
ATOM     19  C   UNL d   1      24.560 -16.332  -1.581  0.00  0.00     0.031 A 
BRANCH  17  20
ATOM     20  C   UNL d   1      21.801 -18.638  -0.104  0.00  0.00     0.293 C 
ATOM     21  O   UNL d   1      21.421 -18.588   1.062  0.00  0.00    -0.259 OA
BRANCH  20  22
ATOM     22  O   UNL d   1      21.090 -19.212  -1.124  0.00  0.00    -0.318 OA
BRANCH  22  23
ATOM     23  C   UNL d   1      19.656 -19.325  -0.896  0.00  0.00     0.174 C 
ATOM     24  C   UNL d   1      19.344 -20.426   0.117  0.00  0.00     0.034 C 
ENDBRANCH  22  23
ENDBRANCH  20  22
ENDBRANCH  17  20
ENDBRANCH   1  14
BRANCH   2  25
ATOM     25  N   UNL d   1      28.506 -17.742  -0.145  0.00  0.00    -0.384 N 
ATOM     26  H   UNL d   1      28.222 -18.702  -0.317  0.00  0.00     0.157 HD
ATOM     27  H   UNL d   1      29.204 -17.632   0.595  0.00  0.00     0.157 HD
ENDBRANCH   2  25
BRANCH   3  28
ATOM     28  C   UNL d   1      30.742 -15.809  -1.436  0.00  0.00     0.258 C 
ATOM     29  O   UNL d   1      31.407 -16.814  -1.119  0.00  0.00    -0.267 OA
ATOM     30  N   UNL d   1      31.339 -14.627  -1.840  0.00  0.00    -0.351 N 
ATOM     31  H   UNL d   1      30.727 -13.832  -1.994  0.00  0.00     0.163 HD
BRANCH  30  32
ATOM     32  C   UNL d   1      32.777 -14.390  -1.932  0.00  0.00     0.187 C 
BRANCH  32  33
ATOM     33  C   UNL d   1      33.067 -13.024  -2.490  0.00  0.00     0.070 A 
ATOM     34  C   UNL d   1      34.213 -12.372  -2.914  0.00  0.00     0.036 A 
ATOM     35  C   UNL d   1      33.830 -11.066  -3.309  0.00  0.00     0.027 A 
ATOM     36  C   UNL d   1      32.476 -10.988  -3.096  0.00  0.00     0.142 A 
ATOM     37  O   UNL d   1      32.004 -12.165  -2.602  0.00  0.00    -0.325 OA
ENDBRANCH  32  33
ENDBRANCH  30  32
ENDBRANCH   3  28
TORSDOF 8
ENDMDL
