MODEL 1
REMARK VINA RESULT:   -30.908      0.000      0.000
REMARK INTER + INTRA:         -35.151
REMARK INTER:                 -33.593
REMARK INTRA:                  -1.558
REMARK CONF_INDEPENDENT:        2.685
REMARK UNBOUND:                -1.558
REMARK  9 active torsions:
REMARK  status: ('A' for Active; 'I' for Inactive)
REMARK    1  A    between atoms: C_6  and  O_7 
REMARK    2  A    between atoms: C_8  and  O_7 
REMARK    3  A    between atoms: C_8  and  C_10 
REMARK       I    between atoms: C_10  and  N_12 
REMARK    4  A    between atoms: N_12  and  N_13 
REMARK       I    between atoms: N_13  and  C_14 
REMARK    5  A    between atoms: C_14  and  C_16 
REMARK    6  A    between atoms: C_19  and  N_20 
REMARK       I    between atoms: N_20  and  C_21 
REMARK    7  A    between atoms: C_21  and  C_23 
REMARK    8  A    between atoms: C_23  and  S_24 
REMARK    9  A    between atoms: S_24  and  C_25 
ROOT
ATOM      1  N   UNL d   1      30.233 -14.806   2.136  0.00  0.00    -0.263 N 
ATOM      2  C   UNL d   1      30.043 -14.925   0.744  0.00  0.00     0.270 C 
ATOM      3  O   UNL d   1      30.817 -14.504  -0.093  0.00  0.00    -0.266 OA
ATOM      4  H   UNL d   1      29.784 -15.456   2.785  0.00  0.00     0.190 HD
ENDROOT
BRANCH   2   5
ATOM      5  C   UNL d   1      28.745 -15.556   0.312  0.00  0.00     0.033 A 
ATOM      6  C   UNL d   1      27.494 -14.907   0.248  0.00  0.00     0.019 A 
ATOM      7  C   UNL d   1      26.289 -15.659   0.075  0.00  0.00     0.030 A 
ATOM      8  C   UNL d   1      26.331 -17.054  -0.093  0.00  0.00     0.034 A 
ATOM      9  C   UNL d   1      27.591 -17.651  -0.002  0.00  0.00     0.030 A 
ATOM     10  C   UNL d   1      28.768 -16.931   0.179  0.00  0.00     0.019 A 
BRANCH   8  11
ATOM     11  N   UNL d   1      25.149 -17.833  -0.365  0.00  0.00    -0.327 N 
ATOM     12  C   UNL d   1      24.171 -17.464  -1.306  0.00  0.00     0.231 C 
ATOM     13  O   UNL d   1      24.266 -16.451  -2.003  0.00  0.00    -0.272 OA
ATOM     14  H   UNL d   1      24.988 -18.647   0.217  0.00  0.00     0.169 HD
BRANCH  12  15
ATOM     15  C   UNL d   1      22.913 -18.356  -1.448  0.00  0.00     0.185 C 
BRANCH  15  16
ATOM     16  S   UNL d   1      22.080 -18.393   0.202  0.00  0.00    -0.083 SA
BRANCH  16  17
ATOM     17  C   UNL d   1      20.576 -19.199  -0.007  0.00  0.00     0.168 A 
ATOM     18  N   UNL d   1      19.905 -19.325  -1.128  0.00  0.00    -0.235 NA
ATOM     19  C   UNL d   1      18.719 -19.923  -0.771  0.00  0.00     0.136 A 
ATOM     20  C   UNL d   1      18.680 -20.177   0.580  0.00  0.00     0.112 A 
ATOM     21  N   UNL d   1      19.870 -19.699   1.062  0.00  0.00    -0.339 N 
ATOM     22  C   UNL d   1      20.281 -19.764   2.446  0.00  0.00     0.158 C 
ENDBRANCH  16  17
ENDBRANCH  15  16
ENDBRANCH  12  15
ENDBRANCH   8  11
ENDBRANCH   2   5
BRANCH   1  23
ATOM     23  N   UNL d   1      31.393 -14.092   2.678  0.00  0.00    -0.265 N 
ATOM     24  C   UNL d   1      31.287 -12.680   2.718  0.00  0.00     0.265 C 
ATOM     25  O   UNL d   1      30.476 -12.084   2.002  0.00  0.00    -0.269 OA
ATOM     26  H   UNL d   1      31.786 -14.558   3.499  0.00  0.00     0.190 HD
BRANCH  24  27
ATOM     27  C   UNL d   1      32.097 -11.950   3.870  0.00  0.00     0.218 C 
ATOM     28  C   UNL d   1      32.590 -10.587   3.328  0.00  0.00     0.050 C 
BRANCH  27  29
ATOM     29  O   UNL d   1      31.558 -11.638   5.173  0.00  0.00    -0.336 OA
BRANCH  29  30
ATOM     30  C   UNL d   1      30.664 -12.440   5.819  0.00  0.00     0.076 C 
ATOM     31  C   UNL d   1      29.460 -12.830   5.277  0.00  0.00     0.037 C 
ATOM     32  C   UNL d   1      28.668 -13.855   5.753  0.00  0.00     0.003 C 
ATOM     33  C   UNL d   1      28.882 -14.288   7.021  0.00  0.00     0.007 C 
ATOM     34  C   UNL d   1      29.917 -13.708   7.756  0.00  0.00    -0.053 C 
ATOM     35  C   UNL d   1      29.919 -14.008   9.220  0.00  0.00     0.049 C 
ATOM     36  C   UNL d   1      30.866 -12.830   7.143  0.00  0.00    -0.023 C 
ATOM     37  C   UNL d   1      31.979 -12.233   7.961  0.00  0.00     0.052 C 
ENDBRANCH  29  30
ENDBRANCH  27  29
ENDBRANCH  24  27
ENDBRANCH   1  23
TORSDOF 9
ENDMDL
MODEL 2
REMARK VINA RESULT:   -30.457      1.270      1.902
REMARK INTER + INTRA:         -34.375
REMARK INTER:                 -33.142
REMARK INTRA:                  -1.233
REMARK CONF_INDEPENDENT:        2.685
REMARK UNBOUND:                -1.233
REMARK  9 active torsions:
REMARK  status: ('A' for Active; 'I' for Inactive)
REMARK    1  A    between atoms: C_6  and  O_7 
REMARK    2  A    between atoms: C_8  and  O_7 
REMARK    3  A    between atoms: C_8  and  C_10 
REMARK       I    between atoms: C_10  and  N_12 
REMARK    4  A    between atoms: N_12  and  N_13 
REMARK       I    between atoms: N_13  and  C_14 
REMARK    5  A    between atoms: C_14  and  C_16 
REMARK    6  A    between atoms: C_19  and  N_20 
REMARK       I    between atoms: N_20  and  C_21 
REMARK    7  A    between atoms: C_21  and  C_23 
REMARK    8  A    between atoms: C_23  and  S_24 
REMARK    9  A    between atoms: S_24  and  C_25 
ROOT
ATOM      1  N   UNL d   1      30.225 -14.710   2.312  0.00  0.00    -0.263 N 
ATOM      2  C   UNL d   1      30.289 -15.001   0.933  0.00  0.00     0.270 C 
ATOM      3  O   UNL d   1      31.175 -14.620   0.192  0.00  0.00    -0.266 OA
ATOM      4  H   UNL d   1      29.705 -15.313   2.952  0.00  0.00     0.190 HD
ENDROOT
BRANCH   2   5
ATOM      5  C   UNL d   1      29.124 -15.773   0.372  0.00  0.00     0.033 A 
ATOM      6  C   UNL d   1      29.096 -16.432  -0.875  0.00  0.00     0.019 A 
ATOM      7  C   UNL d   1      27.863 -16.913  -1.419  0.00  0.00     0.030 A 
ATOM      8  C   UNL d   1      26.663 -16.789  -0.699  0.00  0.00     0.034 A 
ATOM      9  C   UNL d   1      26.741 -16.111   0.521  0.00  0.00     0.030 A 
ATOM     10  C   UNL d   1      27.932 -15.629   1.055  0.00  0.00     0.019 A 
BRANCH   8  11
ATOM     11  N   UNL d   1      25.419 -17.345  -1.171  0.00  0.00    -0.327 N 
ATOM     12  C   UNL d   1      24.541 -18.090  -0.363  0.00  0.00     0.231 C 
ATOM     13  O   UNL d   1      24.753 -18.299   0.834  0.00  0.00    -0.272 OA
ATOM     14  H   UNL d   1      25.219 -17.254  -2.160  0.00  0.00     0.169 HD
BRANCH  12  15
ATOM     15  C   UNL d   1      23.273 -18.691  -1.016  0.00  0.00     0.185 C 
BRANCH  15  16
ATOM     16  S   UNL d   1      21.816 -17.818  -0.284  0.00  0.00    -0.083 SA
BRANCH  16  17
ATOM     17  C   UNL d   1      20.517 -18.943  -0.247  0.00  0.00     0.168 A 
ATOM     18  N   UNL d   1      19.783 -19.325  -1.266  0.00  0.00    -0.235 NA
ATOM     19  C   UNL d   1      18.803 -20.122  -0.722  0.00  0.00     0.136 A 
ATOM     20  C   UNL d   1      18.956 -20.237   0.640  0.00  0.00     0.112 A 
ATOM     21  N   UNL d   1      20.051 -19.470   0.936  0.00  0.00    -0.339 N 
ATOM     22  C   UNL d   1      20.602 -19.301   2.261  0.00  0.00     0.158 C 
ENDBRANCH  16  17
ENDBRANCH  15  16
ENDBRANCH  12  15
ENDBRANCH   8  11
ENDBRANCH   2   5
BRANCH   1  23
ATOM     23  N   UNL d   1      31.231 -13.853   2.947  0.00  0.00    -0.265 N 
ATOM     24  C   UNL d   1      30.766 -12.605   3.428  0.00  0.00     0.265 C 
ATOM     25  O   UNL d   1      29.716 -12.111   3.002  0.00  0.00    -0.269 OA
ATOM     26  H   UNL d   1      31.867 -14.382   3.548  0.00  0.00     0.190 HD
BRANCH  24  27
ATOM     27  C   UNL d   1      31.539 -12.004   4.676  0.00  0.00     0.218 C 
ATOM     28  C   UNL d   1      32.711 -11.140   4.150  0.00  0.00     0.050 C 
BRANCH  27  29
ATOM     29  O   UNL d   1      30.927 -11.186   5.697  0.00  0.00    -0.336 OA
BRANCH  29  30
ATOM     30  C   UNL d   1      30.796 -11.590   6.993  0.00  0.00     0.076 C 
ATOM     31  C   UNL d   1      31.864 -11.898   7.807  0.00  0.00     0.037 C 
ATOM     32  C   UNL d   1      31.808 -12.023   9.180  0.00  0.00     0.003 C 
ATOM     33  C   UNL d   1      30.591 -12.205   9.753  0.00  0.00     0.007 C 
ATOM     34  C   UNL d   1      29.463 -12.209   8.931  0.00  0.00    -0.053 C 
ATOM     35  C   UNL d   1      28.202 -12.699   9.565  0.00  0.00     0.049 C 
ATOM     36  C   UNL d   1      29.542 -11.831   7.553  0.00  0.00    -0.023 C 
ATOM     37  C   UNL d   1      28.304 -11.832   6.699  0.00  0.00     0.052 C 
ENDBRANCH  29  30
ENDBRANCH  27  29
ENDBRANCH  24  27
ENDBRANCH   1  23
TORSDOF 9
ENDMDL
MODEL 3
REMARK VINA RESULT:   -30.067      1.268      1.828
REMARK INTER + INTRA:         -34.219
REMARK INTER:                 -32.752
REMARK INTRA:                  -1.467
REMARK CONF_INDEPENDENT:        2.685
REMARK UNBOUND:                -1.467
REMARK  9 active torsions:
REMARK  status: ('A' for Active; 'I' for Inactive)
REMARK    1  A    between atoms: C_6  and  O_7 
REMARK    2  A    between atoms: C_8  and  O_7 
REMARK    3  A    between atoms: C_8  and  C_10 
REMARK       I    between atoms: C_10  and  N_12 
REMARK    4  A    between atoms: N_12  and  N_13 
REMARK       I    between atoms: N_13  and  C_14 
REMARK    5  A    between atoms: C_14  and  C_16 
REMARK    6  A    between atoms: C_19  and  N_20 
REMARK       I    between atoms: N_20  and  C_21 
REMARK    7  A    between atoms: C_21  and  C_23 
REMARK    8  A    between atoms: C_23  and  S_24 
REMARK    9  A    between atoms: S_24  and  C_25 
ROOT
ATOM      1  N   UNL d   1      30.790 -15.044   2.060  0.00  0.00    -0.263 N 
ATOM      2  C   UNL d   1      30.363 -14.941   0.719  0.00  0.00     0.270 C 
ATOM      3  O   UNL d   1      30.911 -14.259  -0.125  0.00  0.00    -0.266 OA
ATOM      4  H   UNL d   1      30.553 -15.861   2.625  0.00  0.00     0.190 HD
ENDROOT
BRANCH   2   5
ATOM      5  C   UNL d   1      29.098 -15.683   0.377  0.00  0.00     0.033 A 
ATOM      6  C   UNL d   1      29.027 -16.974  -0.189  0.00  0.00     0.019 A 
ATOM      7  C   UNL d   1      27.792 -17.476  -0.709  0.00  0.00     0.030 A 
ATOM      8  C   UNL d   1      26.612 -16.718  -0.617  0.00  0.00     0.034 A 
ATOM      9  C   UNL d   1      26.740 -15.439  -0.067  0.00  0.00     0.030 A 
ATOM     10  C   UNL d   1      27.938 -14.935   0.431  0.00  0.00     0.019 A 
BRANCH   8  11
ATOM     11  N   UNL d   1      25.333 -17.228  -1.042  0.00  0.00    -0.327 N 
ATOM     12  C   UNL d   1      24.575 -18.151  -0.300  0.00  0.00     0.231 C 
ATOM     13  O   UNL d   1      24.934 -18.575   0.801  0.00  0.00    -0.272 OA
ATOM     14  H   UNL d   1      25.012 -16.958  -1.965  0.00  0.00     0.169 HD
BRANCH  12  15
ATOM     15  C   UNL d   1      23.250 -18.672  -0.907  0.00  0.00     0.185 C 
BRANCH  15  16
ATOM     16  S   UNL d   1      21.875 -18.032   0.152  0.00  0.00    -0.083 SA
BRANCH  16  17
ATOM     17  C   UNL d   1      20.524 -19.068  -0.092  0.00  0.00     0.168 A 
ATOM     18  N   UNL d   1      19.903 -19.291  -1.226  0.00  0.00    -0.235 NA
ATOM     19  C   UNL d   1      18.823 -20.075  -0.895  0.00  0.00     0.136 A 
ATOM     20  C   UNL d   1      18.801 -20.344   0.454  0.00  0.00     0.112 A 
ATOM     21  N   UNL d   1      19.889 -19.686   0.961  0.00  0.00    -0.339 N 
ATOM     22  C   UNL d   1      20.281 -19.696   2.352  0.00  0.00     0.158 C 
ENDBRANCH  16  17
ENDBRANCH  15  16
ENDBRANCH  12  15
ENDBRANCH   8  11
ENDBRANCH   2   5
BRANCH   1  23
ATOM     23  N   UNL d   1      31.931 -14.262   2.547  0.00  0.00    -0.265 N 
ATOM     24  C   UNL d   1      31.818 -12.857   2.419  0.00  0.00     0.265 C 
ATOM     25  O   UNL d   1      31.026 -12.354   1.615  0.00  0.00    -0.269 OA
ATOM     26  H   UNL d   1      32.302 -14.627   3.428  0.00  0.00     0.190 HD
BRANCH  24  27
ATOM     27  C   UNL d   1      32.591 -11.991   3.500  0.00  0.00     0.218 C 
ATOM     28  C   UNL d   1      33.528 -11.009   2.757  0.00  0.00     0.050 C 
BRANCH  27  29
ATOM     29  O   UNL d   1      31.947 -11.175   4.503  0.00  0.00    -0.336 OA
BRANCH  29  30
ATOM     30  C   UNL d   1      30.596 -11.151   4.687  0.00  0.00     0.076 C 
ATOM     31  C   UNL d   1      29.750 -10.299   4.012  0.00  0.00     0.037 C 
ATOM     32  C   UNL d   1      28.378 -10.432   3.942  0.00  0.00     0.003 C 
ATOM     33  C   UNL d   1      27.767 -11.222   4.860  0.00  0.00     0.007 C 
ATOM     34  C   UNL d   1      28.561 -11.894   5.793  0.00  0.00    -0.053 C 
ATOM     35  C   UNL d   1      27.830 -12.505   6.943  0.00  0.00     0.049 C 
ATOM     36  C   UNL d   1      29.986 -11.924   5.674  0.00  0.00    -0.023 C 
ATOM     37  C   UNL d   1      30.811 -12.670   6.688  0.00  0.00     0.052 C 
ENDBRANCH  29  30
ENDBRANCH  27  29
ENDBRANCH  24  27
ENDBRANCH   1  23
TORSDOF 9
ENDMDL
MODEL 4
REMARK VINA RESULT:   -29.745      4.032      5.063
REMARK INTER + INTRA:         -34.791
REMARK INTER:                 -32.430
REMARK INTRA:                  -2.362
REMARK CONF_INDEPENDENT:        2.685
REMARK UNBOUND:                -2.362
REMARK  9 active torsions:
REMARK  status: ('A' for Active; 'I' for Inactive)
REMARK    1  A    between atoms: C_6  and  O_7 
REMARK    2  A    between atoms: C_8  and  O_7 
REMARK    3  A    between atoms: C_8  and  C_10 
REMARK       I    between atoms: C_10  and  N_12 
REMARK    4  A    between atoms: N_12  and  N_13 
REMARK       I    between atoms: N_13  and  C_14 
REMARK    5  A    between atoms: C_14  and  C_16 
REMARK    6  A    between atoms: C_19  and  N_20 
REMARK       I    between atoms: N_20  and  C_21 
REMARK    7  A    between atoms: C_21  and  C_23 
REMARK    8  A    between atoms: C_23  and  S_24 
REMARK    9  A    between atoms: S_24  and  C_25 
ROOT
ATOM      1  N   UNL d   1      31.049 -16.014   0.754  0.00  0.00    -0.263 N 
ATOM      2  C   UNL d   1      30.449 -16.418  -0.457  0.00  0.00     0.270 C 
ATOM      3  O   UNL d   1      31.061 -16.652  -1.481  0.00  0.00    -0.266 OA
ATOM      4  H   UNL d   1      30.583 -16.174   1.649  0.00  0.00     0.190 HD
ENDROOT
BRANCH   2   5
ATOM      5  C   UNL d   1      28.944 -16.478  -0.454  0.00  0.00     0.033 A 
ATOM      6  C   UNL d   1      28.077 -15.400  -0.177  0.00  0.00     0.019 A 
ATOM      7  C   UNL d   1      26.682 -15.624   0.050  0.00  0.00     0.030 A 
ATOM      8  C   UNL d   1      26.136 -16.915  -0.053  0.00  0.00     0.034 A 
ATOM      9  C   UNL d   1      27.040 -17.951  -0.309  0.00  0.00     0.030 A 
ATOM     10  C   UNL d   1      28.400 -17.746  -0.520  0.00  0.00     0.019 A 
BRANCH   8  11
ATOM     11  N   UNL d   1      24.723 -17.167   0.075  0.00  0.00    -0.327 N 
ATOM     12  C   UNL d   1      23.786 -16.887  -0.935  0.00  0.00     0.231 C 
ATOM     13  O   UNL d   1      24.108 -16.431  -2.035  0.00  0.00    -0.272 OA
ATOM     14  H   UNL d   1      24.391 -17.489   0.977  0.00  0.00     0.169 HD
BRANCH  12  15
ATOM     15  C   UNL d   1      22.287 -17.139  -0.640  0.00  0.00     0.185 C 
BRANCH  15  16
ATOM     16  S   UNL d   1      22.173 -18.744   0.272  0.00  0.00    -0.083 SA
BRANCH  16  17
ATOM     17  C   UNL d   1      20.587 -19.360   0.016  0.00  0.00     0.168 A 
ATOM     18  N   UNL d   1      19.905 -19.325  -1.104  0.00  0.00    -0.235 NA
ATOM     19  C   UNL d   1      18.661 -19.813  -0.782  0.00  0.00     0.136 A 
ATOM     20  C   UNL d   1      18.596 -20.164   0.547  0.00  0.00     0.112 A 
ATOM     21  N   UNL d   1      19.832 -19.860   1.052  0.00  0.00    -0.339 N 
ATOM     22  C   UNL d   1      20.235 -20.076   2.422  0.00  0.00     0.158 C 
ENDBRANCH  16  17
ENDBRANCH  15  16
ENDBRANCH  12  15
ENDBRANCH   8  11
ENDBRANCH   2   5
BRANCH   1  23
ATOM     23  N   UNL d   1      32.495 -15.789   0.838  0.00  0.00    -0.265 N 
ATOM     24  C   UNL d   1      33.158 -16.422   1.918  0.00  0.00     0.265 C 
ATOM     25  O   UNL d   1      32.532 -16.792   2.917  0.00  0.00    -0.269 OA
ATOM     26  H   UNL d   1      32.947 -15.827  -0.078  0.00  0.00     0.190 HD
BRANCH  24  27
ATOM     27  C   UNL d   1      34.675 -16.816   1.674  0.00  0.00     0.218 C 
ATOM     28  C   UNL d   1      35.557 -15.942   2.596  0.00  0.00     0.050 C 
BRANCH  27  29
ATOM     29  O   UNL d   1      35.206 -18.149   1.835  0.00  0.00    -0.336 OA
BRANCH  29  30
ATOM     30  C   UNL d   1      34.636 -19.084   2.649  0.00  0.00     0.076 C 
ATOM     31  C   UNL d   1      35.235 -19.567   3.791  0.00  0.00     0.037 C 
ATOM     32  C   UNL d   1      34.594 -20.275   4.787  0.00  0.00     0.003 C 
ATOM     33  C   UNL d   1      33.399 -20.846   4.492  0.00  0.00     0.007 C 
ATOM     34  C   UNL d   1      32.862 -20.647   3.219  0.00  0.00    -0.053 C 
ATOM     35  C   UNL d   1      31.708 -21.525   2.859  0.00  0.00     0.049 C 
ATOM     36  C   UNL d   1      33.436 -19.707   2.306  0.00  0.00    -0.023 C 
ATOM     37  C   UNL d   1      32.824 -19.505   0.947  0.00  0.00     0.052 C 
ENDBRANCH  29  30
ENDBRANCH  27  29
ENDBRANCH  24  27
ENDBRANCH   1  23
TORSDOF 9
ENDMDL
MODEL 5
REMARK VINA RESULT:   -29.315      6.026      9.105
REMARK INTER + INTRA:         -34.213
REMARK INTER:                 -32.000
REMARK INTRA:                  -2.213
REMARK CONF_INDEPENDENT:        2.685
REMARK UNBOUND:                -2.213
REMARK  9 active torsions:
REMARK  status: ('A' for Active; 'I' for Inactive)
REMARK    1  A    between atoms: C_6  and  O_7 
REMARK    2  A    between atoms: C_8  and  O_7 
REMARK    3  A    between atoms: C_8  and  C_10 
REMARK       I    between atoms: C_10  and  N_12 
REMARK    4  A    between atoms: N_12  and  N_13 
REMARK       I    between atoms: N_13  and  C_14 
REMARK    5  A    between atoms: C_14  and  C_16 
REMARK    6  A    between atoms: C_19  and  N_20 
REMARK       I    between atoms: N_20  and  C_21 
REMARK    7  A    between atoms: C_21  and  C_23 
REMARK    8  A    between atoms: C_23  and  S_24 
REMARK    9  A    between atoms: S_24  and  C_25 
ROOT
ATOM      1  N   UNL d   1      30.033 -16.415  -4.706  0.00  0.00    -0.263 N 
ATOM      2  C   UNL d   1      29.648 -15.268  -3.982  0.00  0.00     0.270 C 
ATOM      3  O   UNL d   1      30.342 -14.280  -3.842  0.00  0.00    -0.266 OA
ATOM      4  H   UNL d   1      29.333 -17.046  -5.101  0.00  0.00     0.190 HD
ENDROOT
BRANCH   2   5
ATOM      5  C   UNL d   1      28.312 -15.348  -3.291  0.00  0.00     0.033 A 
ATOM      6  C   UNL d   1      28.088 -15.826  -1.982  0.00  0.00     0.019 A 
ATOM      7  C   UNL d   1      26.761 -16.098  -1.522  0.00  0.00     0.030 A 
ATOM      8  C   UNL d   1      25.649 -15.842  -2.342  0.00  0.00     0.034 A 
ATOM      9  C   UNL d   1      25.925 -15.388  -3.635  0.00  0.00     0.030 A 
ATOM     10  C   UNL d   1      27.212 -15.131  -4.098  0.00  0.00     0.019 A 
BRANCH   8  11
ATOM     11  N   UNL d   1      24.294 -16.013  -1.880  0.00  0.00    -0.327 N 
ATOM     12  C   UNL d   1      23.825 -17.181  -1.253  0.00  0.00     0.231 C 
ATOM     13  O   UNL d   1      24.553 -18.148  -1.017  0.00  0.00    -0.272 OA
ATOM     14  H   UNL d   1      23.635 -15.273  -2.097  0.00  0.00     0.169 HD
BRANCH  12  15
ATOM     15  C   UNL d   1      22.327 -17.260  -0.870  0.00  0.00     0.185 C 
BRANCH  15  16
ATOM     16  S   UNL d   1      22.161 -18.578   0.416  0.00  0.00    -0.083 SA
BRANCH  16  17
ATOM     17  C   UNL d   1      20.612 -19.295   0.209  0.00  0.00     0.168 A 
ATOM     18  N   UNL d   1      19.904 -19.324  -0.895  0.00  0.00    -0.235 NA
ATOM     19  C   UNL d   1      18.700 -19.883  -0.535  0.00  0.00     0.136 A 
ATOM     20  C   UNL d   1      18.687 -20.211   0.801  0.00  0.00     0.112 A 
ATOM     21  N   UNL d   1      19.913 -19.821   1.271  0.00  0.00    -0.339 N 
ATOM     22  C   UNL d   1      20.359 -19.985   2.635  0.00  0.00     0.158 C 
ENDBRANCH  16  17
ENDBRANCH  15  16
ENDBRANCH  12  15
ENDBRANCH   8  11
ENDBRANCH   2   5
BRANCH   1  23
ATOM     23  N   UNL d   1      31.365 -16.510  -5.311  0.00  0.00    -0.265 N 
ATOM     24  C   UNL d   1      31.420 -17.096  -6.599  0.00  0.00     0.265 C 
ATOM     25  O   UNL d   1      30.506 -17.819  -7.007  0.00  0.00    -0.269 OA
ATOM     26  H   UNL d   1      31.924 -15.668  -5.152  0.00  0.00     0.190 HD
BRANCH  24  27
ATOM     27  C   UNL d   1      32.592 -16.596  -7.545  0.00  0.00     0.218 C 
ATOM     28  C   UNL d   1      32.765 -17.626  -8.687  0.00  0.00     0.050 C 
BRANCH  27  29
ATOM     29  O   UNL d   1      32.608 -15.318  -8.216  0.00  0.00    -0.336 OA
BRANCH  29  30
ATOM     30  C   UNL d   1      31.753 -14.302  -7.903  0.00  0.00     0.076 C 
ATOM     31  C   UNL d   1      30.498 -14.500  -7.372  0.00  0.00     0.037 C 
ATOM     32  C   UNL d   1      29.725 -13.526  -6.775  0.00  0.00     0.003 C 
ATOM     33  C   UNL d   1      30.035 -12.228  -7.021  0.00  0.00     0.007 C 
ATOM     34  C   UNL d   1      31.143 -11.949  -7.824  0.00  0.00    -0.053 C 
ATOM     35  C   UNL d   1      31.261 -10.537  -8.295  0.00  0.00     0.049 C 
ATOM     36  C   UNL d   1      32.057 -12.978  -8.216  0.00  0.00    -0.023 C 
ATOM     37  C   UNL d   1      33.250 -12.641  -9.068  0.00  0.00     0.052 C 
ENDBRANCH  29  30
ENDBRANCH  27  29
ENDBRANCH  24  27
ENDBRANCH   1  23
TORSDOF 9
ENDMDL
MODEL 6
REMARK VINA RESULT:   -29.209      4.021      5.370
REMARK INTER + INTRA:         -34.408
REMARK INTER:                 -31.894
REMARK INTRA:                  -2.514
REMARK CONF_INDEPENDENT:        2.685
REMARK UNBOUND:                -2.514
REMARK  9 active torsions:
REMARK  status: ('A' for Active; 'I' for Inactive)
REMARK    1  A    between atoms: C_6  and  O_7 
REMARK    2  A    between atoms: C_8  and  O_7 
REMARK    3  A    between atoms: C_8  and  C_10 
REMARK       I    between atoms: C_10  and  N_12 
REMARK    4  A    between atoms: N_12  and  N_13 
REMARK       I    between atoms: N_13  and  C_14 
REMARK    5  A    between atoms: C_14  and  C_16 
REMARK    6  A    between atoms: C_19  and  N_20 
REMARK       I    between atoms: N_20  and  C_21 
REMARK    7  A    between atoms: C_21  and  C_23 
REMARK    8  A    between atoms: C_23  and  S_24 
REMARK    9  A    between atoms: S_24  and  C_25 
ROOT
ATOM      1  N   UNL d   1      31.057 -16.380   0.375  0.00  0.00    -0.263 N 
ATOM      2  C   UNL d   1      30.451 -16.621  -0.876  0.00  0.00     0.270 C 
ATOM      3  O   UNL d   1      31.061 -16.761  -1.918  0.00  0.00    -0.266 OA
ATOM      4  H   UNL d   1      30.579 -16.622   1.245  0.00  0.00     0.190 HD
ENDROOT
BRANCH   2   5
ATOM      5  C   UNL d   1      28.945 -16.623  -0.884  0.00  0.00     0.033 A 
ATOM      6  C   UNL d   1      28.121 -15.517  -1.180  0.00  0.00     0.019 A 
ATOM      7  C   UNL d   1      26.717 -15.559  -0.910  0.00  0.00     0.030 A 
ATOM      8  C   UNL d   1      26.118 -16.723  -0.396  0.00  0.00     0.034 A 
ATOM      9  C   UNL d   1      26.980 -17.783  -0.102  0.00  0.00     0.030 A 
ATOM     10  C   UNL d   1      28.349 -17.749  -0.349  0.00  0.00     0.019 A 
BRANCH   8  11
ATOM     11  N   UNL d   1      24.695 -16.836  -0.200  0.00  0.00    -0.327 N 
ATOM     12  C   UNL d   1      23.806 -17.299  -1.187  0.00  0.00     0.231 C 
ATOM     13  O   UNL d   1      24.183 -17.680  -2.297  0.00  0.00    -0.272 OA
ATOM     14  H   UNL d   1      24.319 -16.484   0.673  0.00  0.00     0.169 HD
BRANCH  12  15
ATOM     15  C   UNL d   1      22.291 -17.302  -0.869  0.00  0.00     0.185 C 
BRANCH  15  16
ATOM     16  S   UNL d   1      22.013 -18.563   0.455  0.00  0.00    -0.083 SA
BRANCH  16  17
ATOM     17  C   UNL d   1      20.535 -19.363   0.090  0.00  0.00     0.168 A 
ATOM     18  N   UNL d   1      19.884 -19.325  -1.049  0.00  0.00    -0.235 NA
ATOM     19  C   UNL d   1      18.711 -20.003  -0.815  0.00  0.00     0.136 A 
ATOM     20  C   UNL d   1      18.660 -20.472   0.477  0.00  0.00     0.112 A 
ATOM     21  N   UNL d   1      19.828 -20.047   1.052  0.00  0.00    -0.339 N 
ATOM     22  C   UNL d   1      20.221 -20.323   2.415  0.00  0.00     0.158 C 
ENDBRANCH  16  17
ENDBRANCH  15  16
ENDBRANCH  12  15
ENDBRANCH   8  11
ENDBRANCH   2   5
BRANCH   1  23
ATOM     23  N   UNL d   1      32.510 -16.222   0.488  0.00  0.00    -0.265 N 
ATOM     24  C   UNL d   1      33.045 -16.336   1.794  0.00  0.00     0.265 C 
ATOM     25  O   UNL d   1      32.329 -16.180   2.789  0.00  0.00    -0.269 OA
ATOM     26  H   UNL d   1      33.011 -16.694  -0.269  0.00  0.00     0.190 HD
BRANCH  24  27
ATOM     27  C   UNL d   1      34.531 -16.881   1.897  0.00  0.00     0.218 C 
ATOM     28  C   UNL d   1      35.126 -16.416   3.247  0.00  0.00     0.050 C 
BRANCH  27  29
ATOM     29  O   UNL d   1      34.894 -18.276   1.812  0.00  0.00    -0.336 OA
BRANCH  29  30
ATOM     30  C   UNL d   1      34.087 -19.222   1.253  0.00  0.00     0.076 C 
ATOM     31  C   UNL d   1      34.112 -19.552  -0.084  0.00  0.00     0.037 C 
ATOM     32  C   UNL d   1      33.541 -20.681  -0.636  0.00  0.00     0.003 C 
ATOM     33  C   UNL d   1      32.600 -21.336   0.089  0.00  0.00     0.007 C 
ATOM     34  C   UNL d   1      32.296 -20.864   1.367  0.00  0.00    -0.053 C 
ATOM     35  C   UNL d   1      31.065 -21.436   1.992  0.00  0.00     0.049 C 
ATOM     36  C   UNL d   1      33.083 -19.847   1.993  0.00  0.00    -0.023 C 
ATOM     37  C   UNL d   1      32.737 -19.371   3.377  0.00  0.00     0.052 C 
ENDBRANCH  29  30
ENDBRANCH  27  29
ENDBRANCH  24  27
ENDBRANCH   1  23
TORSDOF 9
ENDMDL
MODEL 7
REMARK VINA RESULT:   -29.103      5.921      9.040
REMARK INTER + INTRA:         -34.178
REMARK INTER:                 -31.787
REMARK INTRA:                  -2.391
REMARK CONF_INDEPENDENT:        2.685
REMARK UNBOUND:                -2.391
REMARK  9 active torsions:
REMARK  status: ('A' for Active; 'I' for Inactive)
REMARK    1  A    between atoms: C_6  and  O_7 
REMARK    2  A    between atoms: C_8  and  O_7 
REMARK    3  A    between atoms: C_8  and  C_10 
REMARK       I    between atoms: C_10  and  N_12 
REMARK    4  A    between atoms: N_12  and  N_13 
REMARK       I    between atoms: N_13  and  C_14 
REMARK    5  A    between atoms: C_14  and  C_16 
REMARK    6  A    between atoms: C_19  and  N_20 
REMARK       I    between atoms: N_20  and  C_21 
REMARK    7  A    between atoms: C_21  and  C_23 
REMARK    8  A    between atoms: C_23  and  S_24 
REMARK    9  A    between atoms: S_24  and  C_25 
ROOT
ATOM      1  N   UNL d   1      29.442 -15.178  -4.497  0.00  0.00    -0.263 N 
ATOM      2  C   UNL d   1      29.297 -14.507  -3.265  0.00  0.00     0.270 C 
ATOM      3  O   UNL d   1      30.065 -13.661  -2.850  0.00  0.00    -0.266 OA
ATOM      4  H   UNL d   1      28.635 -15.591  -4.968  0.00  0.00     0.190 HD
ENDROOT
BRANCH   2   5
ATOM      5  C   UNL d   1      28.142 -14.954  -2.408  0.00  0.00     0.033 A 
ATOM      6  C   UNL d   1      28.206 -15.260  -1.032  0.00  0.00     0.019 A 
ATOM      7  C   UNL d   1      27.117 -15.917  -0.378  0.00  0.00     0.030 A 
ATOM      8  C   UNL d   1      25.936 -16.222  -1.079  0.00  0.00     0.034 A 
ATOM      9  C   UNL d   1      25.931 -15.916  -2.443  0.00  0.00     0.030 A 
ATOM     10  C   UNL d   1      26.989 -15.288  -3.092  0.00  0.00     0.019 A 
BRANCH   8  11
ATOM     11  N   UNL d   1      24.783 -16.796  -0.433  0.00  0.00    -0.327 N 
ATOM     12  C   UNL d   1      24.698 -18.145  -0.043  0.00  0.00     0.231 C 
ATOM     13  O   UNL d   1      25.627 -18.942  -0.195  0.00  0.00    -0.272 OA
ATOM     14  H   UNL d   1      23.967 -16.203  -0.333  0.00  0.00     0.169 HD
BRANCH  12  15
ATOM     15  C   UNL d   1      23.372 -18.649   0.576  0.00  0.00     0.185 C 
BRANCH  15  16
ATOM     16  S   UNL d   1      21.992 -17.846  -0.357  0.00  0.00    -0.083 SA
BRANCH  16  17
ATOM     17  C   UNL d   1      20.637 -18.901  -0.266  0.00  0.00     0.168 A 
ATOM     18  N   UNL d   1      19.905 -19.324  -1.269  0.00  0.00    -0.235 NA
ATOM     19  C   UNL d   1      18.875 -20.027  -0.691  0.00  0.00     0.136 A 
ATOM     20  C   UNL d   1      18.996 -20.045   0.679  0.00  0.00     0.112 A 
ATOM     21  N   UNL d   1      20.122 -19.311   0.942  0.00  0.00    -0.339 N 
ATOM     22  C   UNL d   1      20.655 -19.069   2.263  0.00  0.00     0.158 C 
ENDBRANCH  16  17
ENDBRANCH  15  16
ENDBRANCH  12  15
ENDBRANCH   8  11
ENDBRANCH   2   5
BRANCH   1  23
ATOM     23  N   UNL d   1      30.602 -14.926  -5.358  0.00  0.00    -0.265 N 
ATOM     24  C   UNL d   1      30.318 -14.694  -6.726  0.00  0.00     0.265 C 
ATOM     25  O   UNL d   1      29.249 -15.064  -7.224  0.00  0.00    -0.269 OA
ATOM     26  H   UNL d   1      31.292 -14.319  -4.910  0.00  0.00     0.190 HD
BRANCH  24  27
ATOM     27  C   UNL d   1      31.336 -13.758  -7.503  0.00  0.00     0.218 C 
ATOM     28  C   UNL d   1      31.985 -14.584  -8.638  0.00  0.00     0.050 C 
BRANCH  27  29
ATOM     29  O   UNL d   1      30.975 -12.510  -8.135  0.00  0.00    -0.336 OA
BRANCH  29  30
ATOM     30  C   UNL d   1      29.691 -12.182  -8.454  0.00  0.00     0.076 C 
ATOM     31  C   UNL d   1      29.250 -11.998  -9.746  0.00  0.00     0.037 C 
ATOM     32  C   UNL d   1      27.927 -11.958 -10.137  0.00  0.00     0.003 C 
ATOM     33  C   UNL d   1      26.989 -11.731  -9.183  0.00  0.00     0.007 C 
ATOM     34  C   UNL d   1      27.406 -11.599  -7.857  0.00  0.00    -0.053 C 
ATOM     35  C   UNL d   1      26.383 -11.066  -6.907  0.00  0.00     0.049 C 
ATOM     36  C   UNL d   1      28.750 -11.893  -7.466  0.00  0.00    -0.023 C 
ATOM     37  C   UNL d   1      29.163 -11.755  -6.026  0.00  0.00     0.052 C 
ENDBRANCH  29  30
ENDBRANCH  27  29
ENDBRANCH  24  27
ENDBRANCH   1  23
TORSDOF 9
ENDMDL
MODEL 8
REMARK VINA RESULT:   -28.831      5.480      7.852
REMARK INTER + INTRA:         -34.316
REMARK INTER:                 -31.515
REMARK INTRA:                  -2.800
REMARK CONF_INDEPENDENT:        2.685
REMARK UNBOUND:                -2.800
REMARK  9 active torsions:
REMARK  status: ('A' for Active; 'I' for Inactive)
REMARK    1  A    between atoms: C_6  and  O_7 
REMARK    2  A    between atoms: C_8  and  O_7 
REMARK    3  A    between atoms: C_8  and  C_10 
REMARK       I    between atoms: C_10  and  N_12 
REMARK    4  A    between atoms: N_12  and  N_13 
REMARK       I    between atoms: N_13  and  C_14 
REMARK    5  A    between atoms: C_14  and  C_16 
REMARK    6  A    between atoms: C_19  and  N_20 
REMARK       I    between atoms: N_20  and  C_21 
REMARK    7  A    between atoms: C_21  and  C_23 
REMARK    8  A    between atoms: C_23  and  S_24 
REMARK    9  A    between atoms: S_24  and  C_25 
ROOT
ATOM      1  N   UNL d   1      31.102 -16.856  -1.681  0.00  0.00    -0.263 N 
ATOM      2  C   UNL d   1      30.025 -16.203  -2.316  0.00  0.00     0.270 C 
ATOM      3  O   UNL d   1      30.141 -15.447  -3.260  0.00  0.00    -0.266 OA
ATOM      4  H   UNL d   1      30.957 -17.723  -1.161  0.00  0.00     0.190 HD
ENDROOT
BRANCH   2   5
ATOM      5  C   UNL d   1      28.668 -16.430  -1.702  0.00  0.00     0.033 A 
ATOM      6  C   UNL d   1      28.394 -17.255  -0.591  0.00  0.00     0.019 A 
ATOM      7  C   UNL d   1      27.047 -17.600  -0.252  0.00  0.00     0.030 A 
ATOM      8  C   UNL d   1      25.966 -17.080  -0.984  0.00  0.00     0.034 A 
ATOM      9  C   UNL d   1      26.292 -16.284  -2.087  0.00  0.00     0.030 A 
ATOM     10  C   UNL d   1      27.598 -15.952  -2.433  0.00  0.00     0.019 A 
BRANCH   8  11
ATOM     11  N   UNL d   1      24.595 -17.327  -0.616  0.00  0.00    -0.327 N 
ATOM     12  C   UNL d   1      23.513 -16.553  -1.070  0.00  0.00     0.231 C 
ATOM     13  O   UNL d   1      23.651 -15.611  -1.854  0.00  0.00    -0.272 OA
ATOM     14  H   UNL d   1      24.425 -18.053   0.071  0.00  0.00     0.169 HD
BRANCH  12  15
ATOM     15  C   UNL d   1      22.097 -16.883  -0.539  0.00  0.00     0.185 C 
BRANCH  15  16
ATOM     16  S   UNL d   1      22.163 -18.592   0.165  0.00  0.00    -0.083 SA
BRANCH  16  17
ATOM     17  C   UNL d   1      20.603 -19.286  -0.042  0.00  0.00     0.168 A 
ATOM     18  N   UNL d   1      19.905 -19.325  -1.152  0.00  0.00    -0.235 NA
ATOM     19  C   UNL d   1      18.688 -19.854  -0.793  0.00  0.00     0.136 A 
ATOM     20  C   UNL d   1      18.657 -20.156   0.549  0.00  0.00     0.112 A 
ATOM     21  N   UNL d   1      19.885 -19.778   1.023  0.00  0.00    -0.339 N 
ATOM     22  C   UNL d   1      20.316 -19.922   2.395  0.00  0.00     0.158 C 
ENDBRANCH  16  17
ENDBRANCH  15  16
ENDBRANCH  12  15
ENDBRANCH   8  11
ENDBRANCH   2   5
BRANCH   1  23
ATOM     23  N   UNL d   1      32.484 -16.609  -2.102  0.00  0.00    -0.265 N 
ATOM     24  C   UNL d   1      33.382 -17.692  -1.944  0.00  0.00     0.265 C 
ATOM     25  O   UNL d   1      33.132 -18.615  -1.162  0.00  0.00    -0.269 OA
ATOM     26  H   UNL d   1      32.534 -16.079  -2.975  0.00  0.00     0.190 HD
BRANCH  24  27
ATOM     27  C   UNL d   1      34.589 -17.756  -2.972  0.00  0.00     0.218 C 
ATOM     28  C   UNL d   1      35.509 -18.933  -2.568  0.00  0.00     0.050 C 
BRANCH  27  29
ATOM     29  O   UNL d   1      34.435 -17.903  -4.401  0.00  0.00    -0.336 OA
BRANCH  29  30
ATOM     30  C   UNL d   1      33.221 -17.908  -5.022  0.00  0.00     0.076 C 
ATOM     31  C   UNL d   1      32.653 -16.792  -5.596  0.00  0.00     0.037 C 
ATOM     32  C   UNL d   1      31.590 -16.803  -6.474  0.00  0.00     0.003 C 
ATOM     33  C   UNL d   1      30.815 -17.916  -6.522  0.00  0.00     0.007 C 
ATOM     34  C   UNL d   1      31.163 -19.003  -5.718  0.00  0.00    -0.053 C 
ATOM     35  C   UNL d   1      30.128 -20.072  -5.592  0.00  0.00     0.049 C 
ATOM     36  C   UNL d   1      32.407 -19.041  -5.012  0.00  0.00    -0.023 C 
ATOM     37  C   UNL d   1      32.759 -20.234  -4.167  0.00  0.00     0.052 C 
ENDBRANCH  29  30
ENDBRANCH  27  29
ENDBRANCH  24  27
ENDBRANCH   1  23
TORSDOF 9
ENDMDL
MODEL 9
REMARK VINA RESULT:   -28.748      5.703      8.601
REMARK INTER + INTRA:         -34.136
REMARK INTER:                 -31.432
REMARK INTRA:                  -2.704
REMARK CONF_INDEPENDENT:        2.685
REMARK UNBOUND:                -2.704
REMARK  9 active torsions:
REMARK  status: ('A' for Active; 'I' for Inactive)
REMARK    1  A    between atoms: C_6  and  O_7 
REMARK    2  A    between atoms: C_8  and  O_7 
REMARK    3  A    between atoms: C_8  and  C_10 
REMARK       I    between atoms: C_10  and  N_12 
REMARK    4  A    between atoms: N_12  and  N_13 
REMARK       I    between atoms: N_13  and  C_14 
REMARK    5  A    between atoms: C_14  and  C_16 
REMARK    6  A    between atoms: C_19  and  N_20 
REMARK       I    between atoms: N_20  and  C_21 
REMARK    7  A    between atoms: C_21  and  C_23 
REMARK    8  A    between atoms: C_23  and  S_24 
REMARK    9  A    between atoms: S_24  and  C_25 
ROOT
ATOM      1  N   UNL d   1      29.719 -13.840  -3.371  0.00  0.00    -0.263 N 
ATOM      2  C   UNL d   1      28.393 -13.776  -3.847  0.00  0.00     0.270 C 
ATOM      3  O   UNL d   1      28.055 -13.193  -4.859  0.00  0.00    -0.266 OA
ATOM      4  H   UNL d   1      30.021 -14.601  -2.760  0.00  0.00     0.190 HD
ENDROOT
BRANCH   2   5
ATOM      5  C   UNL d   1      27.352 -14.423  -2.973  0.00  0.00     0.033 A 
ATOM      6  C   UNL d   1      27.545 -14.856  -1.643  0.00  0.00     0.019 A 
ATOM      7  C   UNL d   1      26.574 -15.684  -0.997  0.00  0.00     0.030 A 
ATOM      8  C   UNL d   1      25.382 -16.038  -1.651  0.00  0.00     0.034 A 
ATOM      9  C   UNL d   1      25.248 -15.601  -2.972  0.00  0.00     0.030 A 
ATOM     10  C   UNL d   1      26.190 -14.806  -3.615  0.00  0.00     0.019 A 
BRANCH   8  11
ATOM     11  N   UNL d   1      24.339 -16.791  -1.000  0.00  0.00    -0.327 N 
ATOM     12  C   UNL d   1      24.539 -18.050  -0.407  0.00  0.00     0.231 C 
ATOM     13  O   UNL d   1      25.642 -18.600  -0.369  0.00  0.00    -0.272 OA
ATOM     14  H   UNL d   1      23.399 -16.415  -1.049  0.00  0.00     0.169 HD
BRANCH  12  15
ATOM     15  C   UNL d   1      23.316 -18.783   0.196  0.00  0.00     0.185 C 
BRANCH  15  16
ATOM     16  S   UNL d   1      21.810 -17.836  -0.308  0.00  0.00    -0.083 SA
BRANCH  16  17
ATOM     17  C   UNL d   1      20.481 -18.926  -0.241  0.00  0.00     0.168 A 
ATOM     18  N   UNL d   1      19.705 -19.277  -1.240  0.00  0.00    -0.235 NA
ATOM     19  C   UNL d   1      18.721 -20.052  -0.674  0.00  0.00     0.136 A 
ATOM     20  C   UNL d   1      18.913 -20.185   0.682  0.00  0.00     0.112 A 
ATOM     21  N   UNL d   1      20.037 -19.451   0.951  0.00  0.00    -0.339 N 
ATOM     22  C   UNL d   1      20.633 -19.311   2.259  0.00  0.00     0.158 C 
ENDBRANCH  16  17
ENDBRANCH  15  16
ENDBRANCH  12  15
ENDBRANCH   8  11
ENDBRANCH   2   5
BRANCH   1  23
ATOM     23  N   UNL d   1      30.802 -13.134  -4.064  0.00  0.00    -0.265 N 
ATOM     24  C   UNL d   1      32.007 -13.858  -4.228  0.00  0.00     0.265 C 
ATOM     25  O   UNL d   1      32.266 -14.831  -3.511  0.00  0.00    -0.269 OA
ATOM     26  H   UNL d   1      30.463 -12.596  -4.865  0.00  0.00     0.190 HD
BRANCH  24  27
ATOM     27  C   UNL d   1      32.878 -13.489  -5.501  0.00  0.00     0.218 C 
ATOM     28  C   UNL d   1      34.266 -14.155  -5.350  0.00  0.00     0.050 C 
BRANCH  27  29
ATOM     29  O   UNL d   1      32.493 -13.779  -6.863  0.00  0.00    -0.336 OA
BRANCH  29  30
ATOM     30  C   UNL d   1      31.212 -13.657  -7.316  0.00  0.00     0.076 C 
ATOM     31  C   UNL d   1      30.230 -14.594  -7.082  0.00  0.00     0.037 C 
ATOM     32  C   UNL d   1      28.877 -14.387  -7.258  0.00  0.00     0.003 C 
ATOM     33  C   UNL d   1      28.488 -13.343  -8.033  0.00  0.00     0.007 C 
ATOM     34  C   UNL d   1      29.472 -12.510  -8.568  0.00  0.00    -0.053 C 
ATOM     35  C   UNL d   1      29.012 -11.569  -9.634  0.00  0.00     0.049 C 
ATOM     36  C   UNL d   1      30.839 -12.612  -8.160  0.00  0.00    -0.023 C 
ATOM     37  C   UNL d   1      31.872 -11.688  -8.746  0.00  0.00     0.052 C 
ENDBRANCH  29  30
ENDBRANCH  27  29
ENDBRANCH  24  27
ENDBRANCH   1  23
TORSDOF 9
ENDMDL
