MODEL 1
REMARK VINA RESULT:    -6.718      0.000      0.000
REMARK INTER + INTRA:         -11.032
REMARK INTER:                  -9.403
REMARK INTRA:                  -1.630
REMARK CONF_INDEPENDENT:        2.685
REMARK UNBOUND:                -1.630
REMARK  9 active torsions:
REMARK  status: ('A' for Active; 'I' for Inactive)
REMARK    1  A    between atoms: C_2  and  N_3 
REMARK    2  A    between atoms: C_2  and  C_15 
REMARK       I    between atoms: N_3  and  C_4 
REMARK    3  A    between atoms: C_4  and  C_6 
REMARK       I    between atoms: C_6  and  N_8 
REMARK    4  A    between atoms: N_8  and  C_9 
REMARK    5  A    between atoms: C_9  and  C_10 
REMARK    6  A    between atoms: C_10  and  C_11 
REMARK    7  A    between atoms: C_11  and  C_12 
REMARK    8  A    between atoms: C_12  and  C_13 
REMARK    9  A    between atoms: C_13  and  O_14 
ROOT
ATOM      1  N   UNL d   1      25.369 -16.639  -1.419  0.00  0.00    -0.345 N 
ATOM      2  C   UNL d   1      24.864 -17.617  -0.579  0.00  0.00     0.309 C 
ATOM      3  O   UNL d   1      25.531 -18.429   0.054  0.00  0.00    -0.262 OA
ATOM      4  H   UNL d   1      24.693 -16.071  -1.923  0.00  0.00     0.163 HD
ENDROOT
BRANCH   2   5
ATOM      5  C   UNL d   1      23.319 -17.643  -0.442  0.00  0.00     0.309 C 
ATOM      6  O   UNL d   1      22.648 -16.719  -0.891  0.00  0.00    -0.262 OA
ATOM      7  N   UNL d   1      22.813 -18.757   0.209  0.00  0.00    -0.353 N 
ATOM      8  H   UNL d   1      23.486 -19.444   0.542  0.00  0.00     0.162 HD
BRANCH   7   9
ATOM      9  C   UNL d   1      21.388 -18.950   0.398  0.00  0.00     0.123 C 
BRANCH   9  10
ATOM     10  C   UNL d   1      20.580 -18.795  -0.891  0.00  0.00     0.020 C 
BRANCH  10  11
ATOM     11  C   UNL d   1      19.374 -19.739  -0.902  0.00  0.00     0.004 C 
BRANCH  11  12
ATOM     12  C   UNL d   1      19.451 -20.760   0.230  0.00  0.00     0.026 C 
BRANCH  12  13
ATOM     13  C   UNL d   1      18.082 -20.996   0.856  0.00  0.00     0.164 C 
BRANCH  13  14
ATOM     14  O   UNL d   1      17.654 -22.325   0.601  0.00  0.00    -0.401 OA
ATOM     15  H   UNL d   1      16.735 -22.283   0.286  0.00  0.00     0.209 HD
ENDBRANCH  13  14
ENDBRANCH  12  13
ENDBRANCH  11  12
ENDBRANCH  10  11
ENDBRANCH   9  10
ENDBRANCH   7   9
ENDBRANCH   2   5
BRANCH   1  16
ATOM     16  C   UNL d   1      26.801 -16.437  -1.635  0.00  0.00     0.114 C 
ATOM     17  C   UNL d   1      27.426 -15.637  -0.479  0.00  0.00     0.037 C 
BRANCH  16  18
ATOM     18  C   UNL d   1      27.113 -15.670  -2.919  0.00  0.00    -0.036 A 
ATOM     19  C   UNL d   1      26.088 -15.039  -3.650  0.00  0.00     0.009 A 
ATOM     20  C   UNL d   1      26.319 -14.593  -4.958  0.00  0.00     0.001 A 
ATOM     21  C   UNL d   1      27.591 -14.693  -5.518  0.00  0.00     0.000 A 
ATOM     22  C   UNL d   1      28.626 -15.266  -4.787  0.00  0.00     0.001 A 
ATOM     23  C   UNL d   1      28.386 -15.760  -3.504  0.00  0.00     0.009 A 
ENDBRANCH  16  18
ENDBRANCH   1  16
TORSDOF 9
ENDMDL
MODEL 2
REMARK VINA RESULT:    -5.811      4.071      8.524
REMARK INTER + INTRA:         -10.948
REMARK INTER:                  -8.496
REMARK INTRA:                  -2.453
REMARK CONF_INDEPENDENT:        2.685
REMARK UNBOUND:                -2.453
REMARK  9 active torsions:
REMARK  status: ('A' for Active; 'I' for Inactive)
REMARK    1  A    between atoms: C_2  and  N_3 
REMARK    2  A    between atoms: C_2  and  C_15 
REMARK       I    between atoms: N_3  and  C_4 
REMARK    3  A    between atoms: C_4  and  C_6 
REMARK       I    between atoms: C_6  and  N_8 
REMARK    4  A    between atoms: N_8  and  C_9 
REMARK    5  A    between atoms: C_9  and  C_10 
REMARK    6  A    between atoms: C_10  and  C_11 
REMARK    7  A    between atoms: C_11  and  C_12 
REMARK    8  A    between atoms: C_12  and  C_13 
REMARK    9  A    between atoms: C_13  and  O_14 
ROOT
ATOM      1  N   UNL d   1      26.212 -15.011  -2.603  0.00  0.00    -0.345 N 
ATOM      2  C   UNL d   1      25.621 -14.518  -3.753  0.00  0.00     0.309 C 
ATOM      3  O   UNL d   1      24.480 -14.075  -3.837  0.00  0.00    -0.262 OA
ATOM      4  H   UNL d   1      27.148 -15.396  -2.696  0.00  0.00     0.163 HD
ENDROOT
BRANCH   2   5
ATOM      5  C   UNL d   1      26.518 -14.528  -5.020  0.00  0.00     0.309 C 
ATOM      6  O   UNL d   1      26.700 -15.575  -5.634  0.00  0.00    -0.262 OA
ATOM      7  N   UNL d   1      27.061 -13.298  -5.356  0.00  0.00    -0.353 N 
ATOM      8  H   UNL d   1      26.837 -12.511  -4.751  0.00  0.00     0.162 HD
BRANCH   7   9
ATOM      9  C   UNL d   1      27.901 -13.127  -6.526  0.00  0.00     0.123 C 
BRANCH   9  10
ATOM     10  C   UNL d   1      27.796 -11.735  -7.149  0.00  0.00     0.020 C 
BRANCH  10  11
ATOM     11  C   UNL d   1      26.448 -11.085  -6.821  0.00  0.00     0.004 C 
BRANCH  11  12
ATOM     12  C   UNL d   1      26.587 -10.024  -5.732  0.00  0.00     0.026 C 
BRANCH  12  13
ATOM     13  C   UNL d   1      25.530 -10.199  -4.650  0.00  0.00     0.164 C 
BRANCH  13  14
ATOM     14  O   UNL d   1      25.595 -11.513  -4.117  0.00  0.00    -0.401 OA
ATOM     15  H   UNL d   1      24.780 -11.976  -4.376  0.00  0.00     0.209 HD
ENDBRANCH  13  14
ENDBRANCH  12  13
ENDBRANCH  11  12
ENDBRANCH  10  11
ENDBRANCH   9  10
ENDBRANCH   7   9
ENDBRANCH   2   5
BRANCH   1  16
ATOM     16  C   UNL d   1      25.534 -15.038  -1.308  0.00  0.00     0.114 C 
ATOM     17  C   UNL d   1      26.543 -14.913  -0.154  0.00  0.00     0.037 C 
BRANCH  16  18
ATOM     18  C   UNL d   1      24.749 -16.326  -1.067  0.00  0.00    -0.036 A 
ATOM     19  C   UNL d   1      23.342 -16.332  -1.109  0.00  0.00     0.009 A 
ATOM     20  C   UNL d   1      22.620 -17.424  -0.608  0.00  0.00     0.001 A 
ATOM     21  C   UNL d   1      23.291 -18.552  -0.143  0.00  0.00     0.000 A 
ATOM     22  C   UNL d   1      24.682 -18.581  -0.145  0.00  0.00     0.001 A 
ATOM     23  C   UNL d   1      25.403 -17.474  -0.592  0.00  0.00     0.009 A 
ENDBRANCH  16  18
ENDBRANCH   1  16
TORSDOF 9
ENDMDL
MODEL 3
REMARK VINA RESULT:    -5.659      3.412      7.667
REMARK INTER + INTRA:         -10.818
REMARK INTER:                  -8.344
REMARK INTRA:                  -2.474
REMARK CONF_INDEPENDENT:        2.685
REMARK UNBOUND:                -2.474
REMARK  9 active torsions:
REMARK  status: ('A' for Active; 'I' for Inactive)
REMARK    1  A    between atoms: C_2  and  N_3 
REMARK    2  A    between atoms: C_2  and  C_15 
REMARK       I    between atoms: N_3  and  C_4 
REMARK    3  A    between atoms: C_4  and  C_6 
REMARK       I    between atoms: C_6  and  N_8 
REMARK    4  A    between atoms: N_8  and  C_9 
REMARK    5  A    between atoms: C_9  and  C_10 
REMARK    6  A    between atoms: C_10  and  C_11 
REMARK    7  A    between atoms: C_11  and  C_12 
REMARK    8  A    between atoms: C_12  and  C_13 
REMARK    9  A    between atoms: C_13  and  O_14 
ROOT
ATOM      1  N   UNL d   1      26.825 -16.632  -1.341  0.00  0.00    -0.345 N 
ATOM      2  C   UNL d   1      26.356 -15.840  -2.374  0.00  0.00     0.309 C 
ATOM      3  O   UNL d   1      25.242 -15.329  -2.433  0.00  0.00    -0.262 OA
ATOM      4  H   UNL d   1      27.751 -17.034  -1.453  0.00  0.00     0.163 HD
ENDROOT
BRANCH   2   5
ATOM      5  C   UNL d   1      27.361 -15.589  -3.529  0.00  0.00     0.309 C 
ATOM      6  O   UNL d   1      28.545 -15.876  -3.384  0.00  0.00    -0.262 OA
ATOM      7  N   UNL d   1      26.807 -15.033  -4.671  0.00  0.00    -0.353 N 
ATOM      8  H   UNL d   1      25.809 -14.833  -4.651  0.00  0.00     0.162 HD
BRANCH   7   9
ATOM      9  C   UNL d   1      27.602 -14.759  -5.851  0.00  0.00     0.123 C 
BRANCH   9  10
ATOM     10  C   UNL d   1      28.046 -13.299  -5.957  0.00  0.00     0.020 C 
BRANCH  10  11
ATOM     11  C   UNL d   1      27.473 -12.465  -4.807  0.00  0.00     0.004 C 
BRANCH  11  12
ATOM     12  C   UNL d   1      25.991 -12.165  -5.017  0.00  0.00     0.026 C 
BRANCH  12  13
ATOM     13  C   UNL d   1      25.156 -12.659  -3.842  0.00  0.00     0.164 C 
BRANCH  13  14
ATOM     14  O   UNL d   1      24.286 -13.697  -4.268  0.00  0.00    -0.401 OA
ATOM     15  H   UNL d   1      23.886 -13.419  -5.109  0.00  0.00     0.209 HD
ENDBRANCH  13  14
ENDBRANCH  12  13
ENDBRANCH  11  12
ENDBRANCH  10  11
ENDBRANCH   9  10
ENDBRANCH   7   9
ENDBRANCH   2   5
BRANCH   1  16
ATOM     16  C   UNL d   1      26.033 -16.938  -0.150  0.00  0.00     0.114 C 
ATOM     17  C   UNL d   1      26.679 -18.071   0.666  0.00  0.00     0.037 C 
BRANCH  16  18
ATOM     18  C   UNL d   1      24.609 -17.388  -0.473  0.00  0.00    -0.036 A 
ATOM     19  C   UNL d   1      23.552 -16.459  -0.521  0.00  0.00     0.009 A 
ATOM     20  C   UNL d   1      22.221 -16.897  -0.526  0.00  0.00     0.001 A 
ATOM     21  C   UNL d   1      21.932 -18.259  -0.571  0.00  0.00     0.000 A 
ATOM     22  C   UNL d   1      22.967 -19.187  -0.578  0.00  0.00     0.001 A 
ATOM     23  C   UNL d   1      24.293 -18.756  -0.518  0.00  0.00     0.009 A 
ENDBRANCH  16  18
ENDBRANCH   1  16
TORSDOF 9
ENDMDL
MODEL 4
REMARK VINA RESULT:    -5.343      3.701      8.047
REMARK INTER + INTRA:         -10.613
REMARK INTER:                  -8.028
REMARK INTRA:                  -2.585
REMARK CONF_INDEPENDENT:        2.685
REMARK UNBOUND:                -2.585
REMARK  9 active torsions:
REMARK  status: ('A' for Active; 'I' for Inactive)
REMARK    1  A    between atoms: C_2  and  N_3 
REMARK    2  A    between atoms: C_2  and  C_15 
REMARK       I    between atoms: N_3  and  C_4 
REMARK    3  A    between atoms: C_4  and  C_6 
REMARK       I    between atoms: C_6  and  N_8 
REMARK    4  A    between atoms: N_8  and  C_9 
REMARK    5  A    between atoms: C_9  and  C_10 
REMARK    6  A    between atoms: C_10  and  C_11 
REMARK    7  A    between atoms: C_11  and  C_12 
REMARK    8  A    between atoms: C_12  and  C_13 
REMARK    9  A    between atoms: C_13  and  O_14 
ROOT
ATOM      1  N   UNL d   1      26.450 -15.838  -2.357  0.00  0.00    -0.345 N 
ATOM      2  C   UNL d   1      25.861 -15.156  -3.407  0.00  0.00     0.309 C 
ATOM      3  O   UNL d   1      24.792 -14.557  -3.360  0.00  0.00    -0.262 OA
ATOM      4  H   UNL d   1      27.313 -16.336  -2.557  0.00  0.00     0.163 HD
ENDROOT
BRANCH   2   5
ATOM      5  C   UNL d   1      26.663 -15.159  -4.736  0.00  0.00     0.309 C 
ATOM      6  O   UNL d   1      26.144 -15.583  -5.764  0.00  0.00    -0.262 OA
ATOM      7  N   UNL d   1      27.954 -14.664  -4.636  0.00  0.00    -0.353 N 
ATOM      8  H   UNL d   1      28.262 -14.356  -3.716  0.00  0.00     0.162 HD
BRANCH   7   9
ATOM      9  C   UNL d   1      28.828 -14.572  -5.789  0.00  0.00     0.123 C 
BRANCH   9  10
ATOM     10  C   UNL d   1      29.484 -15.903  -6.159  0.00  0.00     0.020 C 
BRANCH  10  11
ATOM     11  C   UNL d   1      30.535 -16.307  -5.120  0.00  0.00     0.004 C 
BRANCH  11  12
ATOM     12  C   UNL d   1      30.045 -17.460  -4.247  0.00  0.00     0.026 C 
BRANCH  12  13
ATOM     13  C   UNL d   1      30.035 -17.072  -2.774  0.00  0.00     0.164 C 
BRANCH  13  14
ATOM     14  O   UNL d   1      29.333 -15.850  -2.599  0.00  0.00    -0.401 OA
ATOM     15  H   UNL d   1      29.985 -15.130  -2.618  0.00  0.00     0.209 HD
ENDBRANCH  13  14
ENDBRANCH  12  13
ENDBRANCH  11  12
ENDBRANCH  10  11
ENDBRANCH   9  10
ENDBRANCH   7   9
ENDBRANCH   2   5
BRANCH   1  16
ATOM     16  C   UNL d   1      25.861 -15.905  -1.020  0.00  0.00     0.114 C 
ATOM     17  C   UNL d   1      26.881 -16.425   0.007  0.00  0.00     0.037 C 
BRANCH  16  18
ATOM     18  C   UNL d   1      24.648 -16.830  -0.942  0.00  0.00    -0.036 A 
ATOM     19  C   UNL d   1      23.343 -16.324  -1.087  0.00  0.00     0.009 A 
ATOM     20  C   UNL d   1      22.234 -17.103  -0.731  0.00  0.00     0.001 A 
ATOM     21  C   UNL d   1      22.409 -18.419  -0.310  0.00  0.00     0.000 A 
ATOM     22  C   UNL d   1      23.691 -18.951  -0.213  0.00  0.00     0.001 A 
ATOM     23  C   UNL d   1      24.800 -18.160  -0.515  0.00  0.00     0.009 A 
ENDBRANCH  16  18
ENDBRANCH   1  16
TORSDOF 9
ENDMDL
MODEL 5
REMARK VINA RESULT:    -5.310      2.441      8.275
REMARK INTER + INTRA:         -11.176
REMARK INTER:                  -7.995
REMARK INTRA:                  -3.181
REMARK CONF_INDEPENDENT:        2.685
REMARK UNBOUND:                -3.181
REMARK  9 active torsions:
REMARK  status: ('A' for Active; 'I' for Inactive)
REMARK    1  A    between atoms: C_2  and  N_3 
REMARK    2  A    between atoms: C_2  and  C_15 
REMARK       I    between atoms: N_3  and  C_4 
REMARK    3  A    between atoms: C_4  and  C_6 
REMARK       I    between atoms: C_6  and  N_8 
REMARK    4  A    between atoms: N_8  and  C_9 
REMARK    5  A    between atoms: C_9  and  C_10 
REMARK    6  A    between atoms: C_10  and  C_11 
REMARK    7  A    between atoms: C_11  and  C_12 
REMARK    8  A    between atoms: C_12  and  C_13 
REMARK    9  A    between atoms: C_13  and  O_14 
ROOT
ATOM      1  N   UNL d   1      22.704 -18.890  -0.120  0.00  0.00    -0.345 N 
ATOM      2  C   UNL d   1      23.742 -18.371  -0.874  0.00  0.00     0.309 C 
ATOM      3  O   UNL d   1      23.679 -18.061  -2.059  0.00  0.00    -0.262 OA
ATOM      4  H   UNL d   1      22.917 -19.153   0.838  0.00  0.00     0.163 HD
ENDROOT
BRANCH   2   5
ATOM      5  C   UNL d   1      25.078 -18.163  -0.112  0.00  0.00     0.309 C 
ATOM      6  O   UNL d   1      25.184 -18.537   1.052  0.00  0.00    -0.262 OA
ATOM      7  N   UNL d   1      26.074 -17.541  -0.847  0.00  0.00    -0.353 N 
ATOM      8  H   UNL d   1      25.846 -17.271  -1.802  0.00  0.00     0.162 HD
BRANCH   7   9
ATOM      9  C   UNL d   1      27.392 -17.295  -0.294  0.00  0.00     0.123 C 
BRANCH   9  10
ATOM     10  C   UNL d   1      27.484 -15.985   0.489  0.00  0.00     0.020 C 
BRANCH  10  11
ATOM     11  C   UNL d   1      26.663 -14.881  -0.185  0.00  0.00     0.004 C 
BRANCH  11  12
ATOM     12  C   UNL d   1      27.003 -14.755  -1.668  0.00  0.00     0.026 C 
BRANCH  12  13
ATOM     13  C   UNL d   1      25.743 -14.696  -2.521  0.00  0.00     0.164 C 
BRANCH  13  14
ATOM     14  O   UNL d   1      24.714 -15.468  -1.920  0.00  0.00    -0.401 OA
ATOM     15  H   UNL d   1      24.399 -16.105  -2.584  0.00  0.00     0.209 HD
ENDBRANCH  13  14
ENDBRANCH  12  13
ENDBRANCH  11  12
ENDBRANCH  10  11
ENDBRANCH   9  10
ENDBRANCH   7   9
ENDBRANCH   2   5
BRANCH   1  16
ATOM     16  C   UNL d   1      21.362 -19.112  -0.659  0.00  0.00     0.114 C 
ATOM     17  C   UNL d   1      20.793 -17.820  -1.270  0.00  0.00     0.037 C 
BRANCH  16  18
ATOM     18  C   UNL d   1      20.360 -19.577   0.397  0.00  0.00    -0.036 A 
ATOM     19  C   UNL d   1      20.621 -19.398   1.768  0.00  0.00     0.009 A 
ATOM     20  C   UNL d   1      19.859 -20.073   2.731  0.00  0.00     0.001 A 
ATOM     21  C   UNL d   1      18.780 -20.863   2.342  0.00  0.00     0.000 A 
ATOM     22  C   UNL d   1      18.478 -21.007   0.992  0.00  0.00     0.001 A 
ATOM     23  C   UNL d   1      19.268 -20.379   0.028  0.00  0.00     0.009 A 
ENDBRANCH  16  18
ENDBRANCH   1  16
TORSDOF 9
ENDMDL
MODEL 6
REMARK VINA RESULT:    -5.156      3.459      7.876
REMARK INTER + INTRA:         -11.174
REMARK INTER:                  -7.841
REMARK INTRA:                  -3.333
REMARK CONF_INDEPENDENT:        2.685
REMARK UNBOUND:                -3.333
REMARK  9 active torsions:
REMARK  status: ('A' for Active; 'I' for Inactive)
REMARK    1  A    between atoms: C_2  and  N_3 
REMARK    2  A    between atoms: C_2  and  C_15 
REMARK       I    between atoms: N_3  and  C_4 
REMARK    3  A    between atoms: C_4  and  C_6 
REMARK       I    between atoms: C_6  and  N_8 
REMARK    4  A    between atoms: N_8  and  C_9 
REMARK    5  A    between atoms: C_9  and  C_10 
REMARK    6  A    between atoms: C_10  and  C_11 
REMARK    7  A    between atoms: C_11  and  C_12 
REMARK    8  A    between atoms: C_12  and  C_13 
REMARK    9  A    between atoms: C_13  and  O_14 
ROOT
ATOM      1  N   UNL d   1      25.880 -15.184  -0.930  0.00  0.00    -0.345 N 
ATOM      2  C   UNL d   1      25.740 -15.050  -2.300  0.00  0.00     0.309 C 
ATOM      3  O   UNL d   1      25.516 -15.964  -3.088  0.00  0.00    -0.262 OA
ATOM      4  H   UNL d   1      26.120 -14.346  -0.408  0.00  0.00     0.163 HD
ENDROOT
BRANCH   2   5
ATOM      5  C   UNL d   1      25.867 -13.602  -2.844  0.00  0.00     0.309 C 
ATOM      6  O   UNL d   1      26.088 -12.675  -2.071  0.00  0.00    -0.262 OA
ATOM      7  N   UNL d   1      25.709 -13.481  -4.215  0.00  0.00    -0.353 N 
ATOM      8  H   UNL d   1      25.518 -14.334  -4.736  0.00  0.00     0.162 HD
BRANCH   7   9
ATOM      9  C   UNL d   1      25.824 -12.202  -4.888  0.00  0.00     0.123 C 
BRANCH   9  10
ATOM     10  C   UNL d   1      27.222 -11.936  -5.447  0.00  0.00     0.020 C 
BRANCH  10  11
ATOM     11  C   UNL d   1      27.766 -13.166  -6.179  0.00  0.00     0.004 C 
BRANCH  11  12
ATOM     12  C   UNL d   1      28.746 -13.949  -5.308  0.00  0.00     0.026 C 
BRANCH  12  13
ATOM     13  C   UNL d   1      28.188 -15.318  -4.941  0.00  0.00     0.164 C 
BRANCH  13  14
ATOM     14  O   UNL d   1      27.006 -15.575  -5.684  0.00  0.00    -0.401 OA
ATOM     15  H   UNL d   1      26.256 -15.534  -5.066  0.00  0.00     0.209 HD
ENDBRANCH  13  14
ENDBRANCH  12  13
ENDBRANCH  11  12
ENDBRANCH  10  11
ENDBRANCH   9  10
ENDBRANCH   7   9
ENDBRANCH   2   5
BRANCH   1  16
ATOM     16  C   UNL d   1      25.747 -16.465  -0.237  0.00  0.00     0.114 C 
ATOM     17  C   UNL d   1      26.912 -17.406  -0.588  0.00  0.00     0.037 C 
BRANCH  16  18
ATOM     18  C   UNL d   1      24.460 -17.209  -0.591  0.00  0.00    -0.036 A 
ATOM     19  C   UNL d   1      23.271 -16.506  -0.861  0.00  0.00     0.009 A 
ATOM     20  C   UNL d   1      22.041 -17.176  -0.896  0.00  0.00     0.001 A 
ATOM     21  C   UNL d   1      21.993 -18.560  -0.748  0.00  0.00     0.000 A 
ATOM     22  C   UNL d   1      23.167 -19.275  -0.533  0.00  0.00     0.001 A 
ATOM     23  C   UNL d   1      24.387 -18.604  -0.443  0.00  0.00     0.009 A 
ENDBRANCH  16  18
ENDBRANCH   1  16
TORSDOF 9
ENDMDL
MODEL 7
REMARK VINA RESULT:    -4.874      4.229      8.316
REMARK INTER + INTRA:         -10.652
REMARK INTER:                  -7.559
REMARK INTRA:                  -3.093
REMARK CONF_INDEPENDENT:        2.685
REMARK UNBOUND:                -3.093
REMARK  9 active torsions:
REMARK  status: ('A' for Active; 'I' for Inactive)
REMARK    1  A    between atoms: C_2  and  N_3 
REMARK    2  A    between atoms: C_2  and  C_15 
REMARK       I    between atoms: N_3  and  C_4 
REMARK    3  A    between atoms: C_4  and  C_6 
REMARK       I    between atoms: C_6  and  N_8 
REMARK    4  A    between atoms: N_8  and  C_9 
REMARK    5  A    between atoms: C_9  and  C_10 
REMARK    6  A    between atoms: C_10  and  C_11 
REMARK    7  A    between atoms: C_11  and  C_12 
REMARK    8  A    between atoms: C_12  and  C_13 
REMARK    9  A    between atoms: C_13  and  O_14 
ROOT
ATOM      1  N   UNL d   1      26.212 -14.616  -0.102  0.00  0.00    -0.345 N 
ATOM      2  C   UNL d   1      27.102 -14.913   0.915  0.00  0.00     0.309 C 
ATOM      3  O   UNL d   1      27.830 -15.899   0.963  0.00  0.00    -0.262 OA
ATOM      4  H   UNL d   1      25.632 -13.790   0.020  0.00  0.00     0.163 HD
ENDROOT
BRANCH   2   5
ATOM      5  C   UNL d   1      27.167 -13.874   2.067  0.00  0.00     0.309 C 
ATOM      6  O   UNL d   1      26.561 -12.811   1.968  0.00  0.00    -0.262 OA
ATOM      7  N   UNL d   1      27.941 -14.257   3.150  0.00  0.00    -0.353 N 
ATOM      8  H   UNL d   1      28.399 -15.164   3.095  0.00  0.00     0.162 HD
BRANCH   7   9
ATOM      9  C   UNL d   1      28.086 -13.414   4.321  0.00  0.00     0.123 C 
BRANCH   9  10
ATOM     10  C   UNL d   1      28.622 -14.162   5.543  0.00  0.00     0.020 C 
BRANCH  10  11
ATOM     11  C   UNL d   1      30.029 -14.708   5.281  0.00  0.00     0.004 C 
BRANCH  11  12
ATOM     12  C   UNL d   1      30.743 -13.917   4.187  0.00  0.00     0.026 C 
BRANCH  12  13
ATOM     13  C   UNL d   1      31.163 -14.821   3.036  0.00  0.00     0.164 C 
BRANCH  13  14
ATOM     14  O   UNL d   1      30.209 -14.745   1.987  0.00  0.00    -0.401 OA
ATOM     15  H   UNL d   1      29.705 -15.577   1.986  0.00  0.00     0.209 HD
ENDBRANCH  13  14
ENDBRANCH  12  13
ENDBRANCH  11  12
ENDBRANCH  10  11
ENDBRANCH   9  10
ENDBRANCH   7   9
ENDBRANCH   2   5
BRANCH   1  16
ATOM     16  C   UNL d   1      26.049 -15.456  -1.288  0.00  0.00     0.114 C 
ATOM     17  C   UNL d   1      25.580 -14.625  -2.493  0.00  0.00     0.037 C 
BRANCH  16  18
ATOM     18  C   UNL d   1      25.024 -16.572  -1.098  0.00  0.00    -0.036 A 
ATOM     19  C   UNL d   1      23.648 -16.325  -1.266  0.00  0.00     0.009 A 
ATOM     20  C   UNL d   1      22.699 -17.251  -0.815  0.00  0.00     0.001 A 
ATOM     21  C   UNL d   1      23.109 -18.467  -0.272  0.00  0.00     0.000 A 
ATOM     22  C   UNL d   1      24.466 -18.747  -0.148  0.00  0.00     0.001 A 
ATOM     23  C   UNL d   1      25.414 -17.804  -0.546  0.00  0.00     0.009 A 
ENDBRANCH  16  18
ENDBRANCH   1  16
TORSDOF 9
ENDMDL
MODEL 8
REMARK VINA RESULT:    -4.739      4.606      8.246
REMARK INTER + INTRA:         -10.637
REMARK INTER:                  -7.424
REMARK INTRA:                  -3.213
REMARK CONF_INDEPENDENT:        2.685
REMARK UNBOUND:                -3.213
REMARK  9 active torsions:
REMARK  status: ('A' for Active; 'I' for Inactive)
REMARK    1  A    between atoms: C_2  and  N_3 
REMARK    2  A    between atoms: C_2  and  C_15 
REMARK       I    between atoms: N_3  and  C_4 
REMARK    3  A    between atoms: C_4  and  C_6 
REMARK       I    between atoms: C_6  and  N_8 
REMARK    4  A    between atoms: N_8  and  C_9 
REMARK    5  A    between atoms: C_9  and  C_10 
REMARK    6  A    between atoms: C_10  and  C_11 
REMARK    7  A    between atoms: C_11  and  C_12 
REMARK    8  A    between atoms: C_12  and  C_13 
REMARK    9  A    between atoms: C_13  and  O_14 
ROOT
ATOM      1  N   UNL d   1      26.647 -13.987   0.040  0.00  0.00    -0.345 N 
ATOM      2  C   UNL d   1      27.196 -14.001   1.310  0.00  0.00     0.309 C 
ATOM      3  O   UNL d   1      27.781 -14.948   1.826  0.00  0.00    -0.262 OA
ATOM      4  H   UNL d   1      26.143 -13.149  -0.234  0.00  0.00     0.163 HD
ENDROOT
BRANCH   2   5
ATOM      5  C   UNL d   1      27.054 -12.679   2.111  0.00  0.00     0.309 C 
ATOM      6  O   UNL d   1      26.313 -11.791   1.701  0.00  0.00    -0.262 OA
ATOM      7  N   UNL d   1      27.813 -12.617   3.268  0.00  0.00    -0.353 N 
ATOM      8  H   UNL d   1      28.395 -13.424   3.485  0.00  0.00     0.162 HD
BRANCH   7   9
ATOM      9  C   UNL d   1      27.776 -11.463   4.146  0.00  0.00     0.123 C 
BRANCH   9  10
ATOM     10  C   UNL d   1      27.985 -11.816   5.619  0.00  0.00     0.020 C 
BRANCH  10  11
ATOM     11  C   UNL d   1      27.776 -13.314   5.862  0.00  0.00     0.004 C 
BRANCH  11  12
ATOM     12  C   UNL d   1      29.094 -14.021   6.168  0.00  0.00     0.026 C 
BRANCH  12  13
ATOM     13  C   UNL d   1      29.422 -15.063   5.106  0.00  0.00     0.164 C 
BRANCH  13  14
ATOM     14  O   UNL d   1      28.255 -15.386   4.366  0.00  0.00    -0.401 OA
ATOM     15  H   UNL d   1      28.529 -15.926   3.605  0.00  0.00     0.209 HD
ENDBRANCH  13  14
ENDBRANCH  12  13
ENDBRANCH  11  12
ENDBRANCH  10  11
ENDBRANCH   9  10
ENDBRANCH   7   9
ENDBRANCH   2   5
BRANCH   1  16
ATOM     16  C   UNL d   1      26.725 -15.127  -0.873  0.00  0.00     0.114 C 
ATOM     17  C   UNL d   1      26.368 -14.708  -2.309  0.00  0.00     0.037 C 
BRANCH  16  18
ATOM     18  C   UNL d   1      25.777 -16.264  -0.498  0.00  0.00    -0.036 A 
ATOM     19  C   UNL d   1      26.256 -17.422   0.144  0.00  0.00     0.009 A 
ATOM     20  C   UNL d   1      25.459 -18.572   0.224  0.00  0.00     0.001 A 
ATOM     21  C   UNL d   1      24.151 -18.553  -0.256  0.00  0.00     0.000 A 
ATOM     22  C   UNL d   1      23.647 -17.398  -0.846  0.00  0.00     0.001 A 
ATOM     23  C   UNL d   1      24.456 -16.269  -0.976  0.00  0.00     0.009 A 
ENDBRANCH  16  18
ENDBRANCH   1  16
TORSDOF 9
ENDMDL
MODEL 9
REMARK VINA RESULT:    -4.735      3.954      8.548
REMARK INTER + INTRA:         -10.636
REMARK INTER:                  -7.420
REMARK INTRA:                  -3.216
REMARK CONF_INDEPENDENT:        2.685
REMARK UNBOUND:                -3.216
REMARK  9 active torsions:
REMARK  status: ('A' for Active; 'I' for Inactive)
REMARK    1  A    between atoms: C_2  and  N_3 
REMARK    2  A    between atoms: C_2  and  C_15 
REMARK       I    between atoms: N_3  and  C_4 
REMARK    3  A    between atoms: C_4  and  C_6 
REMARK       I    between atoms: C_6  and  N_8 
REMARK    4  A    between atoms: N_8  and  C_9 
REMARK    5  A    between atoms: C_9  and  C_10 
REMARK    6  A    between atoms: C_10  and  C_11 
REMARK    7  A    between atoms: C_11  and  C_12 
REMARK    8  A    between atoms: C_12  and  C_13 
REMARK    9  A    between atoms: C_13  and  O_14 
ROOT
ATOM      1  N   UNL d   1      25.333 -15.507  -2.229  0.00  0.00    -0.345 N 
ATOM      2  C   UNL d   1      25.660 -14.180  -2.448  0.00  0.00     0.309 C 
ATOM      3  O   UNL d   1      25.974 -13.370  -1.582  0.00  0.00    -0.262 OA
ATOM      4  H   UNL d   1      25.039 -16.047  -3.038  0.00  0.00     0.163 HD
ENDROOT
BRANCH   2   5
ATOM      5  C   UNL d   1      25.632 -13.723  -3.931  0.00  0.00     0.309 C 
ATOM      6  O   UNL d   1      25.139 -14.451  -4.787  0.00  0.00    -0.262 OA
ATOM      7  N   UNL d   1      26.194 -12.479  -4.165  0.00  0.00    -0.353 N 
ATOM      8  H   UNL d   1      26.579 -11.985  -3.362  0.00  0.00     0.162 HD
BRANCH   7   9
ATOM      9  C   UNL d   1      26.225 -11.892  -5.491  0.00  0.00     0.123 C 
BRANCH   9  10
ATOM     10  C   UNL d   1      26.051 -10.373  -5.484  0.00  0.00     0.020 C 
BRANCH  10  11
ATOM     11  C   UNL d   1      25.532  -9.883  -4.128  0.00  0.00     0.004 C 
BRANCH  11  12
ATOM     12  C   UNL d   1      26.627  -9.182  -3.329  0.00  0.00     0.026 C 
BRANCH  12  13
ATOM     13  C   UNL d   1      26.814  -9.826  -1.962  0.00  0.00     0.164 C 
BRANCH  13  14
ATOM     14  O   UNL d   1      27.425 -11.100  -2.105  0.00  0.00    -0.401 OA
ATOM     15  H   UNL d   1      27.209 -11.620  -1.313  0.00  0.00     0.209 HD
ENDBRANCH  13  14
ENDBRANCH  12  13
ENDBRANCH  11  12
ENDBRANCH  10  11
ENDBRANCH   9  10
ENDBRANCH   7   9
ENDBRANCH   2   5
BRANCH   1  16
ATOM     16  C   UNL d   1      25.350 -16.123  -0.903  0.00  0.00     0.114 C 
ATOM     17  C   UNL d   1      26.624 -16.961  -0.700  0.00  0.00     0.037 C 
BRANCH  16  18
ATOM     18  C   UNL d   1      24.167 -17.058  -0.660  0.00  0.00    -0.036 A 
ATOM     19  C   UNL d   1      24.368 -18.430  -0.419  0.00  0.00     0.009 A 
ATOM     20  C   UNL d   1      23.295 -19.329  -0.487  0.00  0.00     0.001 A 
ATOM     21  C   UNL d   1      22.002 -18.861  -0.708  0.00  0.00     0.000 A 
ATOM     22  C   UNL d   1      21.781 -17.500  -0.895  0.00  0.00     0.001 A 
ATOM     23  C   UNL d   1      22.855 -16.609  -0.882  0.00  0.00     0.009 A 
ENDBRANCH  16  18
ENDBRANCH   1  16
TORSDOF 9
ENDMDL
