MODEL 1
REMARK VINA RESULT:   -31.848      0.000      0.000
REMARK INTER + INTRA:         -34.275
REMARK INTER:                 -33.638
REMARK INTRA:                  -0.637
REMARK CONF_INDEPENDENT:        1.790
REMARK UNBOUND:                -0.637
REMARK  6 active torsions:
REMARK  status: ('A' for Active; 'I' for Inactive)
REMARK    1  A    between atoms: C_2  and  C_3 
REMARK       I    between atoms: C_2  and  N_14 
REMARK    2  A    between atoms: C_3  and  C_4 
REMARK    3  A    between atoms: C_4  and  C_5 
REMARK    4  A    between atoms: C_5  and  C_6 
REMARK       I    between atoms: C_6  and  N_8 
REMARK    5  A    between atoms: N_8  and  C_9 
REMARK    6  A    between atoms: N_14  and  C_15 
ROOT
ATOM      1  C   UNL d   1      24.116 -16.487  -1.222  0.00  0.00     0.019 C 
ENDROOT
BRANCH   1   2
ATOM      2  C   UNL d   1      25.427 -15.906  -0.719  0.00  0.00     0.103 C 
BRANCH   2   3
ATOM      3  C   UNL d   1      26.657 -16.385  -1.492  0.00  0.00     0.223 C 
ATOM      4  O   UNL d   1      27.391 -17.285  -1.067  0.00  0.00    -0.273 OA
ATOM      5  N   UNL d   1      26.895 -15.852  -2.732  0.00  0.00    -0.310 N 
ATOM      6  H   UNL d   1      27.540 -16.357  -3.325  0.00  0.00     0.170 HD
BRANCH   5   7
ATOM      7  C   UNL d   1      26.218 -14.808  -3.314  0.00  0.00     0.151 C 
ATOM      8  C   UNL d   1      26.480 -13.430  -3.164  0.00  0.00     0.071 C 
ATOM      9  C   UNL d   1      25.495 -12.787  -3.865  0.00  0.00     0.113 C 
ATOM     10  N   UNL d   1      24.752 -13.775  -4.432  0.00  0.00    -0.287 N 
ATOM     11  N   UNL d   1      25.222 -15.013  -4.178  0.00  0.00    -0.157 NA
ATOM     12  H   UNL d   1      23.929 -13.674  -5.019  0.00  0.00     0.188 HD
ENDBRANCH   5   7
ENDBRANCH   2   3
ENDBRANCH   1   2
BRANCH   1  13
ATOM     13  C   UNL d   1      23.858 -17.922  -0.711  0.00  0.00     0.103 C 
BRANCH  13  14
ATOM     14  C   UNL d   1      22.359 -18.156  -0.599  0.00  0.00     0.223 C 
ATOM     15  O   UNL d   1      21.567 -17.256  -0.895  0.00  0.00    -0.273 OA
ATOM     16  N   UNL d   1      21.965 -19.399  -0.144  0.00  0.00    -0.310 N 
ATOM     17  H   UNL d   1      22.588 -20.015   0.360  0.00  0.00     0.170 HD
BRANCH  16  18
ATOM     18  C   UNL d   1      20.619 -19.715  -0.074  0.00  0.00     0.151 C 
ATOM     19  C   UNL d   1      19.990 -20.430   0.973  0.00  0.00     0.071 C 
ATOM     20  C   UNL d   1      18.668 -20.520   0.625  0.00  0.00     0.113 C 
ATOM     21  N   UNL d   1      18.575 -19.912  -0.590  0.00  0.00    -0.287 N 
ATOM     22  N   UNL d   1      19.726 -19.321  -0.989  0.00  0.00    -0.157 NA
ATOM     23  H   UNL d   1      17.750 -19.838  -1.178  0.00  0.00     0.188 HD
ENDBRANCH  16  18
ENDBRANCH  13  14
ENDBRANCH   1  13
TORSDOF 6
ENDMDL
MODEL 2
REMARK VINA RESULT:   -31.425      1.671      2.822
REMARK INTER + INTRA:         -33.918
REMARK INTER:                 -33.215
REMARK INTRA:                  -0.703
REMARK CONF_INDEPENDENT:        1.790
REMARK UNBOUND:                -0.703
REMARK  6 active torsions:
REMARK  status: ('A' for Active; 'I' for Inactive)
REMARK    1  A    between atoms: C_2  and  C_3 
REMARK       I    between atoms: C_2  and  N_14 
REMARK    2  A    between atoms: C_3  and  C_4 
REMARK    3  A    between atoms: C_4  and  C_5 
REMARK    4  A    between atoms: C_5  and  C_6 
REMARK       I    between atoms: C_6  and  N_8 
REMARK    5  A    between atoms: N_8  and  C_9 
REMARK    6  A    between atoms: N_14  and  C_15 
ROOT
ATOM      1  C   UNL d   1      24.385 -17.380  -1.905  0.00  0.00     0.019 C 
ENDROOT
BRANCH   1   2
ATOM      2  C   UNL d   1      24.415 -15.863  -1.979  0.00  0.00     0.103 C 
BRANCH   2   3
ATOM      3  C   UNL d   1      25.491 -15.305  -2.912  0.00  0.00     0.223 C 
ATOM      4  O   UNL d   1      25.217 -14.818  -4.015  0.00  0.00    -0.273 OA
ATOM      5  N   UNL d   1      26.786 -15.272  -2.465  0.00  0.00    -0.310 N 
ATOM      6  H   UNL d   1      27.424 -14.671  -2.971  0.00  0.00     0.170 HD
BRANCH   5   7
ATOM      7  C   UNL d   1      27.261 -15.825  -1.301  0.00  0.00     0.151 C 
ATOM      8  C   UNL d   1      26.993 -15.404   0.018  0.00  0.00     0.071 C 
ATOM      9  C   UNL d   1      27.752 -16.207   0.827  0.00  0.00     0.113 C 
ATOM     10  N   UNL d   1      28.372 -17.081  -0.012  0.00  0.00    -0.287 N 
ATOM     11  N   UNL d   1      28.024 -16.921  -1.305  0.00  0.00    -0.157 NA
ATOM     12  H   UNL d   1      29.022 -17.821   0.232  0.00  0.00     0.188 HD
ENDBRANCH   5   7
ENDBRANCH   2   3
ENDBRANCH   1   2
BRANCH   1  13
ATOM     13  C   UNL d   1      24.016 -17.906  -0.501  0.00  0.00     0.103 C 
BRANCH  13  14
ATOM     14  C   UNL d   1      22.512 -18.123  -0.421  0.00  0.00     0.223 C 
ATOM     15  O   UNL d   1      21.739 -17.182  -0.628  0.00  0.00    -0.273 OA
ATOM     16  N   UNL d   1      22.091 -19.398  -0.098  0.00  0.00    -0.310 N 
ATOM     17  H   UNL d   1      22.699 -20.074   0.343  0.00  0.00     0.170 HD
BRANCH  16  18
ATOM     18  C   UNL d   1      20.739 -19.693  -0.069  0.00  0.00     0.151 C 
ATOM     19  C   UNL d   1      20.064 -20.378   0.969  0.00  0.00     0.071 C 
ATOM     20  C   UNL d   1      18.754 -20.457   0.577  0.00  0.00     0.113 C 
ATOM     21  N   UNL d   1      18.711 -19.872  -0.651  0.00  0.00    -0.287 N 
ATOM     22  N   UNL d   1      19.884 -19.306  -1.022  0.00  0.00    -0.157 NA
ATOM     23  H   UNL d   1      17.908 -19.799  -1.269  0.00  0.00     0.188 HD
ENDBRANCH  16  18
ENDBRANCH  13  14
ENDBRANCH   1  13
TORSDOF 6
ENDMDL
MODEL 3
REMARK VINA RESULT:   -31.207      1.935      2.874
REMARK INTER + INTRA:         -33.650
REMARK INTER:                 -32.997
REMARK INTRA:                  -0.653
REMARK CONF_INDEPENDENT:        1.790
REMARK UNBOUND:                -0.653
REMARK  6 active torsions:
REMARK  status: ('A' for Active; 'I' for Inactive)
REMARK    1  A    between atoms: C_2  and  C_3 
REMARK       I    between atoms: C_2  and  N_14 
REMARK    2  A    between atoms: C_3  and  C_4 
REMARK    3  A    between atoms: C_4  and  C_5 
REMARK    4  A    between atoms: C_5  and  C_6 
REMARK       I    between atoms: C_6  and  N_8 
REMARK    5  A    between atoms: N_8  and  C_9 
REMARK    6  A    between atoms: N_14  and  C_15 
ROOT
ATOM      1  C   UNL d   1      24.068 -16.663  -1.158  0.00  0.00     0.019 C 
ENDROOT
BRANCH   1   2
ATOM      2  C   UNL d   1      25.183 -16.646  -2.190  0.00  0.00     0.103 C 
BRANCH   2   3
ATOM      3  C   UNL d   1      25.559 -15.246  -2.679  0.00  0.00     0.223 C 
ATOM      4  O   UNL d   1      25.155 -14.796  -3.758  0.00  0.00    -0.273 OA
ATOM      5  N   UNL d   1      26.296 -14.443  -1.849  0.00  0.00    -0.310 N 
ATOM      6  H   UNL d   1      26.306 -13.455  -2.067  0.00  0.00     0.170 HD
BRANCH   5   7
ATOM      7  C   UNL d   1      26.870 -14.812  -0.657  0.00  0.00     0.151 C 
ATOM      8  C   UNL d   1      26.723 -14.178   0.595  0.00  0.00     0.071 C 
ATOM      9  C   UNL d   1      27.548 -14.855   1.454  0.00  0.00     0.113 C 
ATOM     10  N   UNL d   1      28.085 -15.864   0.717  0.00  0.00    -0.287 N 
ATOM     11  N   UNL d   1      27.623 -15.908  -0.549  0.00  0.00    -0.157 NA
ATOM     12  H   UNL d   1      28.750 -16.568   1.020  0.00  0.00     0.188 HD
ENDBRANCH   5   7
ENDBRANCH   2   3
ENDBRANCH   1   2
BRANCH   1  13
ATOM     13  C   UNL d   1      24.021 -17.976  -0.345  0.00  0.00     0.103 C 
BRANCH  13  14
ATOM     14  C   UNL d   1      22.714 -18.700  -0.630  0.00  0.00     0.223 C 
ATOM     15  O   UNL d   1      22.567 -19.322  -1.687  0.00  0.00    -0.273 OA
ATOM     16  N   UNL d   1      21.735 -18.601   0.339  0.00  0.00    -0.310 N 
ATOM     17  H   UNL d   1      21.741 -17.879   1.045  0.00  0.00     0.170 HD
BRANCH  16  18
ATOM     18  C   UNL d   1      20.540 -19.284   0.186  0.00  0.00     0.151 C 
ATOM     19  C   UNL d   1      19.946 -20.139   1.145  0.00  0.00     0.071 C 
ATOM     20  C   UNL d   1      18.792 -20.602   0.572  0.00  0.00     0.113 C 
ATOM     21  N   UNL d   1      18.765 -20.055  -0.674  0.00  0.00    -0.287 N 
ATOM     22  N   UNL d   1      19.763 -19.166  -0.896  0.00  0.00    -0.157 NA
ATOM     23  H   UNL d   1      18.079 -20.222  -1.405  0.00  0.00     0.188 HD
ENDBRANCH  16  18
ENDBRANCH  13  14
ENDBRANCH   1  13
TORSDOF 6
ENDMDL
MODEL 4
REMARK VINA RESULT:   -30.895      1.583      2.098
REMARK INTER + INTRA:         -33.313
REMARK INTER:                 -32.685
REMARK INTRA:                  -0.628
REMARK CONF_INDEPENDENT:        1.790
REMARK UNBOUND:                -0.628
REMARK  6 active torsions:
REMARK  status: ('A' for Active; 'I' for Inactive)
REMARK    1  A    between atoms: C_2  and  C_3 
REMARK       I    between atoms: C_2  and  N_14 
REMARK    2  A    between atoms: C_3  and  C_4 
REMARK    3  A    between atoms: C_4  and  C_5 
REMARK    4  A    between atoms: C_5  and  C_6 
REMARK       I    between atoms: C_6  and  N_8 
REMARK    5  A    between atoms: N_8  and  C_9 
REMARK    6  A    between atoms: N_14  and  C_15 
ROOT
ATOM      1  C   UNL d   1      24.421 -16.281  -0.831  0.00  0.00     0.019 C 
ENDROOT
BRANCH   1   2
ATOM      2  C   UNL d   1      25.335 -15.718  -1.907  0.00  0.00     0.103 C 
BRANCH   2   3
ATOM      3  C   UNL d   1      24.630 -14.797  -2.904  0.00  0.00     0.223 C 
ATOM      4  O   UNL d   1      23.452 -14.451  -2.761  0.00  0.00    -0.273 OA
ATOM      5  N   UNL d   1      25.362 -14.278  -3.940  0.00  0.00    -0.310 N 
ATOM      6  H   UNL d   1      24.964 -13.482  -4.421  0.00  0.00     0.170 HD
BRANCH   5   7
ATOM      7  C   UNL d   1      26.652 -14.610  -4.273  0.00  0.00     0.151 C 
ATOM      8  C   UNL d   1      27.840 -14.077  -3.730  0.00  0.00     0.071 C 
ATOM      9  C   UNL d   1      28.863 -14.655  -4.434  0.00  0.00     0.113 C 
ATOM     10  N   UNL d   1      28.264 -15.521  -5.295  0.00  0.00    -0.287 N 
ATOM     11  N   UNL d   1      26.924 -15.573  -5.158  0.00  0.00    -0.157 NA
ATOM     12  H   UNL d   1      28.709 -16.122  -5.981  0.00  0.00     0.188 HD
ENDBRANCH   5   7
ENDBRANCH   2   3
ENDBRANCH   1   2
BRANCH   1  13
ATOM     13  C   UNL d   1      24.058 -17.764  -1.067  0.00  0.00     0.103 C 
BRANCH  13  14
ATOM     14  C   UNL d   1      22.570 -17.965  -0.818  0.00  0.00     0.223 C 
ATOM     15  O   UNL d   1      21.794 -17.009  -0.899  0.00  0.00    -0.273 OA
ATOM     16  N   UNL d   1      22.171 -19.247  -0.492  0.00  0.00    -0.310 N 
ATOM     17  H   UNL d   1      22.815 -19.945  -0.149  0.00  0.00     0.170 HD
BRANCH  16  18
ATOM     18  C   UNL d   1      20.827 -19.527  -0.313  0.00  0.00     0.151 C 
ATOM     19  C   UNL d   1      20.233 -20.008   0.878  0.00  0.00     0.071 C 
ATOM     20  C   UNL d   1      18.900 -20.153   0.602  0.00  0.00     0.113 C 
ATOM     21  N   UNL d   1      18.765 -19.803  -0.707  0.00  0.00    -0.287 N 
ATOM     22  N   UNL d   1      19.903 -19.318  -1.257  0.00  0.00    -0.157 NA
ATOM     23  H   UNL d   1      17.920 -19.842  -1.270  0.00  0.00     0.188 HD
ENDBRANCH  16  18
ENDBRANCH  13  14
ENDBRANCH   1  13
TORSDOF 6
ENDMDL
MODEL 5
REMARK VINA RESULT:   -30.488      2.130      2.449
REMARK INTER + INTRA:         -32.913
REMARK INTER:                 -32.278
REMARK INTRA:                  -0.635
REMARK CONF_INDEPENDENT:        1.790
REMARK UNBOUND:                -0.635
REMARK  6 active torsions:
REMARK  status: ('A' for Active; 'I' for Inactive)
REMARK    1  A    between atoms: C_2  and  C_3 
REMARK       I    between atoms: C_2  and  N_14 
REMARK    2  A    between atoms: C_3  and  C_4 
REMARK    3  A    between atoms: C_4  and  C_5 
REMARK    4  A    between atoms: C_5  and  C_6 
REMARK       I    between atoms: C_6  and  N_8 
REMARK    5  A    between atoms: N_8  and  C_9 
REMARK    6  A    between atoms: N_14  and  C_15 
ROOT
ATOM      1  C   UNL d   1      24.500 -18.230  -0.430  0.00  0.00     0.019 C 
ENDROOT
BRANCH   1   2
ATOM      2  C   UNL d   1      25.932 -17.822  -0.737  0.00  0.00     0.103 C 
BRANCH   2   3
ATOM      3  C   UNL d   1      26.856 -17.827   0.481  0.00  0.00     0.223 C 
ATOM      4  O   UNL d   1      27.030 -18.839   1.171  0.00  0.00    -0.273 OA
ATOM      5  N   UNL d   1      27.576 -16.694   0.757  0.00  0.00    -0.310 N 
ATOM      6  H   UNL d   1      28.360 -16.798   1.386  0.00  0.00     0.170 HD
BRANCH   5   7
ATOM      7  C   UNL d   1      27.451 -15.477   0.132  0.00  0.00     0.151 C 
ATOM      8  C   UNL d   1      27.036 -14.259   0.710  0.00  0.00     0.071 C 
ATOM      9  C   UNL d   1      26.990 -13.356  -0.320  0.00  0.00     0.113 C 
ATOM     10  N   UNL d   1      27.422 -14.037  -1.415  0.00  0.00    -0.287 N 
ATOM     11  N   UNL d   1      27.787 -15.307  -1.148  0.00  0.00    -0.157 NA
ATOM     12  H   UNL d   1      27.513 -13.691  -2.365  0.00  0.00     0.188 HD
ENDBRANCH   5   7
ENDBRANCH   2   3
ENDBRANCH   1   2
BRANCH   1  13
ATOM     13  C   UNL d   1      23.506 -17.052  -0.527  0.00  0.00     0.103 C 
BRANCH  13  14
ATOM     14  C   UNL d   1      22.083 -17.590  -0.519  0.00  0.00     0.223 C 
ATOM     15  O   UNL d   1      21.157 -16.898  -0.953  0.00  0.00    -0.273 OA
ATOM     16  N   UNL d   1      21.909 -18.856   0.002  0.00  0.00    -0.310 N 
ATOM     17  H   UNL d   1      22.592 -19.294   0.605  0.00  0.00     0.170 HD
BRANCH  16  18
ATOM     18  C   UNL d   1      20.656 -19.444  -0.013  0.00  0.00     0.151 C 
ATOM     19  C   UNL d   1      20.079 -20.192   1.041  0.00  0.00     0.071 C 
ATOM     20  C   UNL d   1      18.848 -20.588   0.591  0.00  0.00     0.113 C 
ATOM     21  N   UNL d   1      18.760 -20.110  -0.681  0.00  0.00    -0.287 N 
ATOM     22  N   UNL d   1      19.802 -19.321  -1.036  0.00  0.00    -0.157 NA
ATOM     23  H   UNL d   1      18.004 -20.259  -1.343  0.00  0.00     0.188 HD
ENDBRANCH  16  18
ENDBRANCH  13  14
ENDBRANCH   1  13
TORSDOF 6
ENDMDL
MODEL 6
REMARK VINA RESULT:   -30.427      2.589      2.786
REMARK INTER + INTRA:         -32.797
REMARK INTER:                 -32.217
REMARK INTRA:                  -0.580
REMARK CONF_INDEPENDENT:        1.790
REMARK UNBOUND:                -0.580
REMARK  6 active torsions:
REMARK  status: ('A' for Active; 'I' for Inactive)
REMARK    1  A    between atoms: C_2  and  C_3 
REMARK       I    between atoms: C_2  and  N_14 
REMARK    2  A    between atoms: C_3  and  C_4 
REMARK    3  A    between atoms: C_4  and  C_5 
REMARK    4  A    between atoms: C_5  and  C_6 
REMARK       I    between atoms: C_6  and  N_8 
REMARK    5  A    between atoms: N_8  and  C_9 
REMARK    6  A    between atoms: N_14  and  C_15 
ROOT
ATOM      1  C   UNL d   1      24.389 -17.500  -1.469  0.00  0.00     0.019 C 
ENDROOT
BRANCH   1   2
ATOM      2  C   UNL d   1      25.855 -17.115  -1.353  0.00  0.00     0.103 C 
BRANCH   2   3
ATOM      3  C   UNL d   1      26.588 -17.795  -0.196  0.00  0.00     0.223 C 
ATOM      4  O   UNL d   1      26.020 -18.578   0.574  0.00  0.00    -0.273 OA
ATOM      5  N   UNL d   1      27.938 -17.590  -0.071  0.00  0.00    -0.310 N 
ATOM      6  H   UNL d   1      28.441 -18.240   0.518  0.00  0.00     0.170 HD
BRANCH   5   7
ATOM      7  C   UNL d   1      28.699 -16.709  -0.799  0.00  0.00     0.151 C 
ATOM      8  C   UNL d   1      29.176 -15.447  -0.385  0.00  0.00     0.071 C 
ATOM      9  C   UNL d   1      29.809 -14.913  -1.476  0.00  0.00     0.113 C 
ATOM     10  N   UNL d   1      29.737 -15.871  -2.440  0.00  0.00    -0.287 N 
ATOM     11  N   UNL d   1      29.138 -17.005  -2.024  0.00  0.00    -0.157 NA
ATOM     12  H   UNL d   1      30.093 -15.825  -3.389  0.00  0.00     0.188 HD
ENDBRANCH   5   7
ENDBRANCH   2   3
ENDBRANCH   1   2
BRANCH   1  13
ATOM     13  C   UNL d   1      23.581 -17.180  -0.192  0.00  0.00     0.103 C 
BRANCH  13  14
ATOM     14  C   UNL d   1      22.157 -17.689  -0.355  0.00  0.00     0.223 C 
ATOM     15  O   UNL d   1      21.303 -16.978  -0.895  0.00  0.00    -0.273 OA
ATOM     16  N   UNL d   1      21.896 -18.952   0.139  0.00  0.00    -0.310 N 
ATOM     17  H   UNL d   1      22.493 -19.402   0.818  0.00  0.00     0.170 HD
BRANCH  16  18
ATOM     18  C   UNL d   1      20.641 -19.513  -0.027  0.00  0.00     0.151 C 
ATOM     19  C   UNL d   1      19.983 -20.356   0.900  0.00  0.00     0.071 C 
ATOM     20  C   UNL d   1      18.784 -20.683   0.324  0.00  0.00     0.113 C 
ATOM     21  N   UNL d   1      18.793 -20.075  -0.894  0.00  0.00    -0.287 N 
ATOM     22  N   UNL d   1      19.866 -19.272  -1.089  0.00  0.00    -0.157 NA
ATOM     23  H   UNL d   1      18.086 -20.143  -1.620  0.00  0.00     0.188 HD
ENDBRANCH  16  18
ENDBRANCH  13  14
ENDBRANCH   1  13
TORSDOF 6
ENDMDL
MODEL 7
REMARK VINA RESULT:   -30.203      1.242      7.180
REMARK INTER + INTRA:         -33.195
REMARK INTER:                 -31.993
REMARK INTRA:                  -1.202
REMARK CONF_INDEPENDENT:        1.790
REMARK UNBOUND:                -1.202
REMARK  6 active torsions:
REMARK  status: ('A' for Active; 'I' for Inactive)
REMARK    1  A    between atoms: C_2  and  C_3 
REMARK       I    between atoms: C_2  and  N_14 
REMARK    2  A    between atoms: C_3  and  C_4 
REMARK    3  A    between atoms: C_4  and  C_5 
REMARK    4  A    between atoms: C_5  and  C_6 
REMARK       I    between atoms: C_6  and  N_8 
REMARK    5  A    between atoms: N_8  and  C_9 
REMARK    6  A    between atoms: N_14  and  C_15 
ROOT
ATOM      1  C   UNL d   1      24.678 -18.141   0.528  0.00  0.00     0.019 C 
ENDROOT
BRANCH   1   2
ATOM      2  C   UNL d   1      23.498 -18.619  -0.302  0.00  0.00     0.103 C 
BRANCH   2   3
ATOM      3  C   UNL d   1      22.631 -17.489  -0.860  0.00  0.00     0.223 C 
ATOM      4  O   UNL d   1      23.115 -16.426  -1.264  0.00  0.00    -0.273 OA
ATOM      5  N   UNL d   1      21.284 -17.708  -0.990  0.00  0.00    -0.310 N 
ATOM      6  H   UNL d   1      20.779 -17.071  -1.593  0.00  0.00     0.170 HD
BRANCH   5   7
ATOM      7  C   UNL d   1      20.587 -18.799  -0.534  0.00  0.00     0.151 C 
ATOM      8  C   UNL d   1      20.762 -19.473   0.693  0.00  0.00     0.071 C 
ATOM      9  C   UNL d   1      19.902 -20.539   0.658  0.00  0.00     0.113 C 
ATOM     10  N   UNL d   1      19.232 -20.422  -0.520  0.00  0.00    -0.287 N 
ATOM     11  N   UNL d   1      19.573 -19.325  -1.225  0.00  0.00    -0.157 NA
ATOM     12  H   UNL d   1      18.517 -21.040  -0.891  0.00  0.00     0.188 HD
ENDBRANCH   5   7
ENDBRANCH   2   3
ENDBRANCH   1   2
BRANCH   1  13
ATOM     13  C   UNL d   1      25.992 -18.068  -0.282  0.00  0.00     0.103 C 
BRANCH  13  14
ATOM     14  C   UNL d   1      26.078 -16.720  -0.983  0.00  0.00     0.223 C 
ATOM     15  O   UNL d   1      26.685 -15.784  -0.454  0.00  0.00    -0.273 OA
ATOM     16  N   UNL d   1      25.439 -16.622  -2.204  0.00  0.00    -0.310 N 
ATOM     17  H   UNL d   1      24.721 -17.270  -2.494  0.00  0.00     0.170 HD
BRANCH  16  18
ATOM     18  C   UNL d   1      25.525 -15.450  -2.936  0.00  0.00     0.151 C 
ATOM     19  C   UNL d   1      26.708 -14.902  -3.486  0.00  0.00     0.071 C 
ATOM     20  C   UNL d   1      26.330 -13.744  -4.111  0.00  0.00     0.113 C 
ATOM     21  N   UNL d   1      24.992 -13.633  -3.885  0.00  0.00    -0.287 N 
ATOM     22  N   UNL d   1      24.458 -14.711  -3.262  0.00  0.00    -0.157 NA
ATOM     23  H   UNL d   1      24.384 -12.866  -4.156  0.00  0.00     0.188 HD
ENDBRANCH  16  18
ENDBRANCH  13  14
ENDBRANCH   1  13
TORSDOF 6
ENDMDL
MODEL 8
REMARK VINA RESULT:   -29.316      2.212      7.566
REMARK INTER + INTRA:         -32.404
REMARK INTER:                 -31.106
REMARK INTRA:                  -1.298
REMARK CONF_INDEPENDENT:        1.790
REMARK UNBOUND:                -1.298
REMARK  6 active torsions:
REMARK  status: ('A' for Active; 'I' for Inactive)
REMARK    1  A    between atoms: C_2  and  C_3 
REMARK       I    between atoms: C_2  and  N_14 
REMARK    2  A    between atoms: C_3  and  C_4 
REMARK    3  A    between atoms: C_4  and  C_5 
REMARK    4  A    between atoms: C_5  and  C_6 
REMARK       I    between atoms: C_6  and  N_8 
REMARK    5  A    between atoms: N_8  and  C_9 
REMARK    6  A    between atoms: N_14  and  C_15 
ROOT
ATOM      1  C   UNL d   1      23.212 -16.000  -0.797  0.00  0.00     0.019 C 
ENDROOT
BRANCH   1   2
ATOM      2  C   UNL d   1      22.228 -17.157  -0.745  0.00  0.00     0.103 C 
BRANCH   2   3
ATOM      3  C   UNL d   1      22.889 -18.537  -0.731  0.00  0.00     0.223 C 
ATOM      4  O   UNL d   1      24.091 -18.692  -0.971  0.00  0.00    -0.273 OA
ATOM      5  N   UNL d   1      22.132 -19.616  -0.355  0.00  0.00    -0.310 N 
ATOM      6  H   UNL d   1      22.637 -20.454  -0.098  0.00  0.00     0.170 HD
BRANCH   5   7
ATOM      7  C   UNL d   1      20.779 -19.622  -0.121  0.00  0.00     0.151 C 
ATOM      8  C   UNL d   1      20.123 -19.911   1.094  0.00  0.00     0.071 C 
ATOM      9  C   UNL d   1      18.784 -19.871   0.813  0.00  0.00     0.113 C 
ATOM     10  N   UNL d   1      18.702 -19.513  -0.497  0.00  0.00    -0.287 N 
ATOM     11  N   UNL d   1      19.901 -19.274  -1.064  0.00  0.00    -0.157 NA
ATOM     12  H   UNL d   1      17.863 -19.391  -1.056  0.00  0.00     0.188 HD
ENDBRANCH   5   7
ENDBRANCH   2   3
ENDBRANCH   1   2
BRANCH   1  13
ATOM     13  C   UNL d   1      24.169 -16.079  -2.007  0.00  0.00     0.103 C 
BRANCH  13  14
ATOM     14  C   UNL d   1      25.584 -15.755  -1.552  0.00  0.00     0.223 C 
ATOM     15  O   UNL d   1      26.030 -14.610  -1.683  0.00  0.00    -0.273 OA
ATOM     16  N   UNL d   1      26.311 -16.800  -1.017  0.00  0.00    -0.310 N 
ATOM     17  H   UNL d   1      26.065 -17.767  -1.172  0.00  0.00     0.170 HD
BRANCH  16  18
ATOM     18  C   UNL d   1      27.584 -16.574  -0.521  0.00  0.00     0.151 C 
ATOM     19  C   UNL d   1      28.794 -16.999  -1.120  0.00  0.00     0.071 C 
ATOM     20  C   UNL d   1      29.795 -16.572  -0.289  0.00  0.00     0.113 C 
ATOM     21  N   UNL d   1      29.163 -15.965   0.753  0.00  0.00    -0.287 N 
ATOM     22  N   UNL d   1      27.823 -15.860   0.585  0.00  0.00    -0.157 NA
ATOM     23  H   UNL d   1      29.589 -15.576   1.588  0.00  0.00     0.188 HD
ENDBRANCH  16  18
ENDBRANCH  13  14
ENDBRANCH   1  13
TORSDOF 6
ENDMDL
