MODEL 1
REMARK VINA RESULT:   -11.219      0.000      0.000
REMARK INTER + INTRA:         -15.879
REMARK INTER:                 -13.904
REMARK INTRA:                  -1.975
REMARK CONF_INDEPENDENT:        2.685
REMARK UNBOUND:                -1.975
REMARK  9 active torsions:
REMARK  status: ('A' for Active; 'I' for Inactive)
REMARK    1  A    between atoms: O_2  and  C_3 
REMARK    2  A    between atoms: C_3  and  C_5 
REMARK    3  A    between atoms: C_8  and  O_9 
REMARK    4  A    between atoms: O_9  and  C_10 
REMARK    5  A    between atoms: C_11  and  C_10 
REMARK    6  A    between atoms: C_14  and  C_15 
REMARK       I    between atoms: C_15  and  N_17 
REMARK    7  A    between atoms: N_17  and  C_18 
REMARK    8  A    between atoms: C_18  and  C_19 
REMARK    9  A    between atoms: C_19  and  C_20 
ROOT
ATOM      1  C   UNL d   1      28.023 -17.497  -0.388  0.00  0.00     0.345 C 
ATOM      2  N   UNL d   1      28.155 -17.074  -1.785  0.00  0.00    -0.168 NA
ATOM      3  O   UNL d   1      28.924 -15.823  -1.743  0.00  0.00    -0.258 OA
ATOM      4  C   UNL d   1      29.505 -15.741  -0.444  0.00  0.00     0.471 C 
ATOM      5  N   UNL d   1      29.259 -17.018   0.230  0.00  0.00     0.145 N 
ATOM      6  H   UNL d   1      27.241 -16.772  -2.125  0.00  0.00     0.156 HD
ATOM      7  H   UNL d   1      29.150 -16.869   1.230  0.00  0.00     0.322 HD
ENDROOT
BRANCH   4   8
ATOM      8  C   UNL d   1      28.839 -14.562   0.335  0.00  0.00     0.279 C 
ATOM      9  O   UNL d   1      28.107 -13.730  -0.211  0.00  0.00    -0.268 OA
ATOM     10  N   UNL d   1      29.102 -14.464   1.688  0.00  0.00    -0.357 N 
ATOM     11  H   UNL d   1      29.612 -15.207   2.159  0.00  0.00     0.162 HD
BRANCH  10  12
ATOM     12  C   UNL d   1      28.638 -13.288   2.394  0.00  0.00     0.127 C 
BRANCH  12  13
ATOM     13  C   UNL d   1      27.524 -13.601   3.360  0.00  0.00     0.056 C 
BRANCH  13  14
ATOM     14  C   UNL d   1      27.919 -13.884   4.774  0.00  0.00    -0.048 A 
ATOM     15  C   UNL d   1      28.142 -12.871   5.610  0.00  0.00    -0.003 A 
ATOM     16  C   UNL d   1      28.080 -11.469   5.401  0.00  0.00     0.056 A 
ATOM     17  C   UNL d   1      28.568 -13.466   6.881  0.00  0.00     0.039 A 
ATOM     18  C   UNL d   1      28.531 -10.677   6.372  0.00  0.00     0.117 A 
ATOM     19  F   UNL d   1      28.637  -9.355   6.147  0.00  0.00    -0.206 F 
ATOM     20  C   UNL d   1      28.937 -11.205   7.661  0.00  0.00     0.044 A 
ATOM     21  C   UNL d   1      28.966 -12.525   7.954  0.00  0.00     0.033 A 
ATOM     22  N   UNL d   1      28.531 -14.744   6.836  0.00  0.00    -0.385 N 
ATOM     23  C   UNL d   1      28.152 -15.202   5.459  0.00  0.00     0.155 A 
ATOM     24  H   UNL d   1      28.734 -15.330   7.647  0.00  0.00     0.160 HD
ENDBRANCH  13  14
ENDBRANCH  12  13
ENDBRANCH  10  12
ENDBRANCH   4   8
BRANCH   1  25
ATOM     25  C   UNL d   1      26.731 -16.982   0.327  0.00  0.00     0.229 C 
BRANCH  25  26
ATOM     26  O   UNL d   1      25.750 -16.451  -0.575  0.00  0.00    -0.348 OA
BRANCH  26  27
ATOM     27  C   UNL d   1      24.570 -17.161  -0.631  0.00  0.00     0.069 A 
ATOM     28  C   UNL d   1      23.419 -16.398  -0.828  0.00  0.00     0.038 A 
ATOM     29  C   UNL d   1      22.152 -17.004  -0.866  0.00  0.00     0.020 A 
ATOM     30  C   UNL d   1      22.028 -18.396  -0.775  0.00  0.00     0.039 A 
ATOM     31  C   UNL d   1      23.177 -19.169  -0.592  0.00  0.00     0.020 A 
ATOM     32  C   UNL d   1      24.439 -18.553  -0.518  0.00  0.00     0.038 A 
BRANCH  30  33
ATOM     33  C   UNL d   1      20.702 -19.026  -1.038  0.00  0.00     0.292 C 
ATOM     34  O   UNL d   1      20.482 -19.701  -2.022  0.00  0.00    -0.259 OA
BRANCH  33  35
ATOM     35  O   UNL d   1      19.807 -18.735  -0.051  0.00  0.00    -0.323 OA
ATOM     36  C   UNL d   1      19.789 -19.705   1.010  0.00  0.00     0.213 C 
ENDBRANCH  33  35
ENDBRANCH  30  33
ENDBRANCH  26  27
ENDBRANCH  25  26
ENDBRANCH   1  25
TORSDOF 9
ENDMDL
MODEL 2
REMARK VINA RESULT:   -11.058      1.646      2.299
REMARK INTER + INTRA:         -15.663
REMARK INTER:                 -13.743
REMARK INTRA:                  -1.920
REMARK CONF_INDEPENDENT:        2.685
REMARK UNBOUND:                -1.920
REMARK  9 active torsions:
REMARK  status: ('A' for Active; 'I' for Inactive)
REMARK    1  A    between atoms: O_2  and  C_3 
REMARK    2  A    between atoms: C_3  and  C_5 
REMARK    3  A    between atoms: C_8  and  O_9 
REMARK    4  A    between atoms: O_9  and  C_10 
REMARK    5  A    between atoms: C_11  and  C_10 
REMARK    6  A    between atoms: C_14  and  C_15 
REMARK       I    between atoms: C_15  and  N_17 
REMARK    7  A    between atoms: N_17  and  C_18 
REMARK    8  A    between atoms: C_18  and  C_19 
REMARK    9  A    between atoms: C_19  and  C_20 
ROOT
ATOM      1  C   UNL d   1      28.255 -17.169  -0.509  0.00  0.00     0.345 C 
ATOM      2  N   UNL d   1      28.202 -16.224  -1.628  0.00  0.00    -0.168 NA
ATOM      3  O   UNL d   1      28.461 -14.904  -1.038  0.00  0.00    -0.258 OA
ATOM      4  C   UNL d   1      28.992 -15.134   0.264  0.00  0.00     0.471 C 
ATOM      5  N   UNL d   1      29.240 -16.572   0.392  0.00  0.00     0.145 N 
ATOM      6  H   UNL d   1      27.235 -16.148  -1.948  0.00  0.00     0.156 HD
ATOM      7  H   UNL d   1      29.100 -16.866   1.355  0.00  0.00     0.322 HD
ENDROOT
BRANCH   4   8
ATOM      8  C   UNL d   1      27.954 -14.651   1.327  0.00  0.00     0.279 C 
ATOM      9  O   UNL d   1      26.827 -14.245   1.023  0.00  0.00    -0.268 OA
ATOM     10  N   UNL d   1      28.338 -14.682   2.653  0.00  0.00    -0.357 N 
ATOM     11  H   UNL d   1      29.220 -15.118   2.914  0.00  0.00     0.162 HD
BRANCH  10  12
ATOM     12  C   UNL d   1      27.462 -14.082   3.637  0.00  0.00     0.127 C 
BRANCH  12  13
ATOM     13  C   UNL d   1      28.004 -14.203   5.038  0.00  0.00     0.056 C 
BRANCH  13  14
ATOM     14  C   UNL d   1      28.185 -12.930   5.801  0.00  0.00    -0.048 A 
ATOM     15  C   UNL d   1      28.602 -12.974   7.066  0.00  0.00    -0.003 A 
ATOM     16  C   UNL d   1      28.923 -14.080   7.894  0.00  0.00     0.056 A 
ATOM     17  C   UNL d   1      28.617 -11.590   7.549  0.00  0.00     0.039 A 
ATOM     18  C   UNL d   1      29.143 -13.843   9.187  0.00  0.00     0.117 A 
ATOM     19  F   UNL d   1      29.291 -14.881  10.029  0.00  0.00    -0.206 F 
ATOM     20  C   UNL d   1      29.200 -12.493   9.716  0.00  0.00     0.044 A 
ATOM     21  C   UNL d   1      28.963 -11.388   8.975  0.00  0.00     0.033 A 
ATOM     22  N   UNL d   1      28.306 -10.766   6.619  0.00  0.00    -0.385 N 
ATOM     23  C   UNL d   1      27.937 -11.511   5.371  0.00  0.00     0.155 A 
ATOM     24  H   UNL d   1      28.323  -9.754   6.752  0.00  0.00     0.160 HD
ENDBRANCH  13  14
ENDBRANCH  12  13
ENDBRANCH  10  12
ENDBRANCH   4   8
BRANCH   1  25
ATOM     25  C   UNL d   1      26.875 -17.445   0.174  0.00  0.00     0.229 C 
BRANCH  25  26
ATOM     26  O   UNL d   1      25.825 -16.583  -0.286  0.00  0.00    -0.348 OA
BRANCH  26  27
ATOM     27  C   UNL d   1      24.594 -17.188  -0.415  0.00  0.00     0.069 A 
ATOM     28  C   UNL d   1      24.602 -18.583  -0.367  0.00  0.00     0.038 A 
ATOM     29  C   UNL d   1      23.413 -19.315  -0.524  0.00  0.00     0.020 A 
ATOM     30  C   UNL d   1      22.186 -18.654  -0.664  0.00  0.00     0.039 A 
ATOM     31  C   UNL d   1      22.167 -17.257  -0.697  0.00  0.00     0.020 A 
ATOM     32  C   UNL d   1      23.365 -16.531  -0.575  0.00  0.00     0.038 A 
BRANCH  30  33
ATOM     33  C   UNL d   1      20.924 -19.446  -0.607  0.00  0.00     0.292 C 
ATOM     34  O   UNL d   1      20.266 -19.701  -1.595  0.00  0.00    -0.259 OA
BRANCH  33  35
ATOM     35  O   UNL d   1      20.626 -19.820   0.670  0.00  0.00    -0.323 OA
ATOM     36  C   UNL d   1      19.273 -19.517   1.053  0.00  0.00     0.213 C 
ENDBRANCH  33  35
ENDBRANCH  30  33
ENDBRANCH  26  27
ENDBRANCH  25  26
ENDBRANCH   1  25
TORSDOF 9
ENDMDL
MODEL 3
REMARK VINA RESULT:   -10.270      1.750      2.261
REMARK INTER + INTRA:         -16.276
REMARK INTER:                 -12.955
REMARK INTRA:                  -3.321
REMARK CONF_INDEPENDENT:        2.685
REMARK UNBOUND:                -3.321
REMARK  9 active torsions:
REMARK  status: ('A' for Active; 'I' for Inactive)
REMARK    1  A    between atoms: O_2  and  C_3 
REMARK    2  A    between atoms: C_3  and  C_5 
REMARK    3  A    between atoms: C_8  and  O_9 
REMARK    4  A    between atoms: O_9  and  C_10 
REMARK    5  A    between atoms: C_11  and  C_10 
REMARK    6  A    between atoms: C_14  and  C_15 
REMARK       I    between atoms: C_15  and  N_17 
REMARK    7  A    between atoms: N_17  and  C_18 
REMARK    8  A    between atoms: C_18  and  C_19 
REMARK    9  A    between atoms: C_19  and  C_20 
ROOT
ATOM      1  C   UNL d   1      27.967 -17.529  -0.428  0.00  0.00     0.345 C 
ATOM      2  N   UNL d   1      27.884 -16.938  -1.766  0.00  0.00    -0.168 NA
ATOM      3  O   UNL d   1      28.617 -15.668  -1.678  0.00  0.00    -0.258 OA
ATOM      4  C   UNL d   1      29.378 -15.716  -0.474  0.00  0.00     0.471 C 
ATOM      5  N   UNL d   1      29.266 -17.074   0.065  0.00  0.00     0.145 N 
ATOM      6  H   UNL d   1      26.922 -16.638  -1.934  0.00  0.00     0.156 HD
ATOM      7  H   UNL d   1      29.299 -17.050   1.080  0.00  0.00     0.322 HD
ENDROOT
BRANCH   4   8
ATOM      8  C   UNL d   1      28.801 -14.669   0.531  0.00  0.00     0.279 C 
ATOM      9  O   UNL d   1      29.484 -14.150   1.421  0.00  0.00    -0.268 OA
ATOM     10  N   UNL d   1      27.468 -14.330   0.403  0.00  0.00    -0.357 N 
ATOM     11  H   UNL d   1      26.935 -14.669  -0.394  0.00  0.00     0.162 HD
BRANCH  10  12
ATOM     12  C   UNL d   1      26.870 -13.496   1.424  0.00  0.00     0.127 C 
BRANCH  12  13
ATOM     13  C   UNL d   1      27.557 -12.161   1.551  0.00  0.00     0.056 C 
BRANCH  13  14
ATOM     14  C   UNL d   1      27.564 -11.534   2.909  0.00  0.00    -0.048 A 
ATOM     15  C   UNL d   1      27.943 -12.253   3.964  0.00  0.00    -0.003 A 
ATOM     16  C   UNL d   1      28.367 -13.603   4.058  0.00  0.00     0.056 A 
ATOM     17  C   UNL d   1      27.780 -11.388   5.138  0.00  0.00     0.039 A 
ATOM     18  C   UNL d   1      28.517 -14.122   5.276  0.00  0.00     0.117 A 
ATOM     19  F   UNL d   1      28.760 -15.439   5.404  0.00  0.00    -0.206 F 
ATOM     20  C   UNL d   1      28.398 -13.309   6.472  0.00  0.00     0.044 A 
ATOM     21  C   UNL d   1      28.055 -12.002   6.457  0.00  0.00     0.033 A 
ATOM     22  N   UNL d   1      27.403 -10.212   4.804  0.00  0.00    -0.385 N 
ATOM     23  C   UNL d   1      27.163 -10.146   3.324  0.00  0.00     0.155 A 
ATOM     24  H   UNL d   1      27.296  -9.455   5.480  0.00  0.00     0.160 HD
ENDBRANCH  13  14
ENDBRANCH  12  13
ENDBRANCH  10  12
ENDBRANCH   4   8
BRANCH   1  25
ATOM     25  C   UNL d   1      26.779 -17.160   0.520  0.00  0.00     0.229 C 
BRANCH  25  26
ATOM     26  O   UNL d   1      25.713 -16.466  -0.141  0.00  0.00    -0.348 OA
BRANCH  26  27
ATOM     27  C   UNL d   1      24.554 -17.196  -0.296  0.00  0.00     0.069 A 
ATOM     28  C   UNL d   1      23.397 -16.447  -0.519  0.00  0.00     0.038 A 
ATOM     29  C   UNL d   1      22.148 -17.076  -0.656  0.00  0.00     0.020 A 
ATOM     30  C   UNL d   1      22.052 -18.473  -0.639  0.00  0.00     0.039 A 
ATOM     31  C   UNL d   1      23.207 -19.231  -0.432  0.00  0.00     0.020 A 
ATOM     32  C   UNL d   1      24.449 -18.594  -0.259  0.00  0.00     0.038 A 
BRANCH  30  33
ATOM     33  C   UNL d   1      20.757 -19.116  -1.004  0.00  0.00     0.292 C 
ATOM     34  O   UNL d   1      20.590 -19.700  -2.055  0.00  0.00    -0.259 OA
BRANCH  33  35
ATOM     35  O   UNL d   1      19.822 -18.948  -0.025  0.00  0.00    -0.323 OA
ATOM     36  C   UNL d   1      20.098 -19.709   1.164  0.00  0.00     0.213 C 
ENDBRANCH  33  35
ENDBRANCH  30  33
ENDBRANCH  26  27
ENDBRANCH  25  26
ENDBRANCH   1  25
TORSDOF 9
ENDMDL
MODEL 4
REMARK VINA RESULT:    -8.832      2.534      3.063
REMARK INTER + INTRA:         -15.037
REMARK INTER:                 -11.517
REMARK INTRA:                  -3.520
REMARK CONF_INDEPENDENT:        2.685
REMARK UNBOUND:                -3.520
REMARK  9 active torsions:
REMARK  status: ('A' for Active; 'I' for Inactive)
REMARK    1  A    between atoms: O_2  and  C_3 
REMARK    2  A    between atoms: C_3  and  C_5 
REMARK    3  A    between atoms: C_8  and  O_9 
REMARK    4  A    between atoms: O_9  and  C_10 
REMARK    5  A    between atoms: C_11  and  C_10 
REMARK    6  A    between atoms: C_14  and  C_15 
REMARK       I    between atoms: C_15  and  N_17 
REMARK    7  A    between atoms: N_17  and  C_18 
REMARK    8  A    between atoms: C_18  and  C_19 
REMARK    9  A    between atoms: C_19  and  C_20 
ROOT
ATOM      1  C   UNL d   1      29.128 -17.407  -0.546  0.00  0.00     0.345 C 
ATOM      2  N   UNL d   1      29.115 -16.558  -1.741  0.00  0.00    -0.168 NA
ATOM      3  O   UNL d   1      29.561 -15.235  -1.283  0.00  0.00    -0.258 OA
ATOM      4  C   UNL d   1      30.141 -15.420   0.005  0.00  0.00     0.471 C 
ATOM      5  N   UNL d   1      30.228 -16.862   0.247  0.00  0.00     0.145 N 
ATOM      6  H   UNL d   1      28.146 -16.393  -2.016  0.00  0.00     0.156 HD
ATOM      7  H   UNL d   1      30.114 -17.056   1.238  0.00  0.00     0.322 HD
ENDROOT
BRANCH   4   8
ATOM      8  C   UNL d   1      29.232 -14.730   1.072  0.00  0.00     0.279 C 
ATOM      9  O   UNL d   1      29.622 -14.474   2.217  0.00  0.00    -0.268 OA
ATOM     10  N   UNL d   1      27.942 -14.409   0.698  0.00  0.00    -0.357 N 
ATOM     11  H   UNL d   1      27.655 -14.516  -0.272  0.00  0.00     0.162 HD
BRANCH  10  12
ATOM     12  C   UNL d   1      27.031 -13.928   1.716  0.00  0.00     0.127 C 
BRANCH  12  13
ATOM     13  C   UNL d   1      26.742 -12.455   1.578  0.00  0.00     0.056 C 
BRANCH  13  14
ATOM     14  C   UNL d   1      27.096 -11.589   2.744  0.00  0.00    -0.048 A 
ATOM     15  C   UNL d   1      26.936 -10.269   2.655  0.00  0.00    -0.003 A 
ATOM     16  C   UNL d   1      26.468  -9.465   1.584  0.00  0.00     0.056 A 
ATOM     17  C   UNL d   1      27.425  -9.704   3.918  0.00  0.00     0.039 A 
ATOM     18  C   UNL d   1      26.582  -8.143   1.707  0.00  0.00     0.117 A 
ATOM     19  F   UNL d   1      26.298  -7.358   0.652  0.00  0.00    -0.206 F 
ATOM     20  C   UNL d   1      27.030  -7.526   2.942  0.00  0.00     0.044 A 
ATOM     21  C   UNL d   1      27.436  -8.227   4.024  0.00  0.00     0.033 A 
ATOM     22  N   UNL d   1      27.781 -10.623   4.735  0.00  0.00    -0.385 N 
ATOM     23  C   UNL d   1      27.665 -11.969   4.082  0.00  0.00     0.155 A 
ATOM     24  H   UNL d   1      28.090 -10.424   5.687  0.00  0.00     0.160 HD
ENDBRANCH  13  14
ENDBRANCH  12  13
ENDBRANCH  10  12
ENDBRANCH   4   8
BRANCH   1  25
ATOM     25  C   UNL d   1      27.770 -17.459   0.228  0.00  0.00     0.229 C 
BRANCH  25  26
ATOM     26  O   UNL d   1      26.799 -16.521  -0.255  0.00  0.00    -0.348 OA
BRANCH  26  27
ATOM     27  C   UNL d   1      25.512 -17.009  -0.337  0.00  0.00     0.069 A 
ATOM     28  C   UNL d   1      24.577 -16.145  -0.910  0.00  0.00     0.038 A 
ATOM     29  C   UNL d   1      23.226 -16.515  -1.015  0.00  0.00     0.020 A 
ATOM     30  C   UNL d   1      22.805 -17.787  -0.607  0.00  0.00     0.039 A 
ATOM     31  C   UNL d   1      23.737 -18.663  -0.046  0.00  0.00     0.020 A 
ATOM     32  C   UNL d   1      25.081 -18.273   0.090  0.00  0.00     0.038 A 
BRANCH  30  33
ATOM     33  C   UNL d   1      21.418 -18.231  -0.931  0.00  0.00     0.292 C 
ATOM     34  O   UNL d   1      20.546 -17.459  -1.270  0.00  0.00    -0.259 OA
BRANCH  33  35
ATOM     35  O   UNL d   1      21.280 -19.581  -0.785  0.00  0.00    -0.323 OA
ATOM     36  C   UNL d   1      20.135 -19.956  -0.000  0.00  0.00     0.213 C 
ENDBRANCH  33  35
ENDBRANCH  30  33
ENDBRANCH  26  27
ENDBRANCH  25  26
ENDBRANCH   1  25
TORSDOF 9
ENDMDL
MODEL 5
REMARK VINA RESULT:    -8.815      4.317      6.605
REMARK INTER + INTRA:         -15.673
REMARK INTER:                 -11.499
REMARK INTRA:                  -4.173
REMARK CONF_INDEPENDENT:        2.685
REMARK UNBOUND:                -4.173
REMARK  9 active torsions:
REMARK  status: ('A' for Active; 'I' for Inactive)
REMARK    1  A    between atoms: O_2  and  C_3 
REMARK    2  A    between atoms: C_3  and  C_5 
REMARK    3  A    between atoms: C_8  and  O_9 
REMARK    4  A    between atoms: O_9  and  C_10 
REMARK    5  A    between atoms: C_11  and  C_10 
REMARK    6  A    between atoms: C_14  and  C_15 
REMARK       I    between atoms: C_15  and  N_17 
REMARK    7  A    between atoms: N_17  and  C_18 
REMARK    8  A    between atoms: C_18  and  C_19 
REMARK    9  A    between atoms: C_19  and  C_20 
ROOT
ATOM      1  C   UNL d   1      30.102 -17.294  -0.710  0.00  0.00     0.345 C 
ATOM      2  N   UNL d   1      30.963 -16.507  -1.597  0.00  0.00    -0.168 NA
ATOM      3  O   UNL d   1      30.993 -15.158  -1.015  0.00  0.00    -0.258 OA
ATOM      4  C   UNL d   1      30.486 -15.272   0.312  0.00  0.00     0.471 C 
ATOM      5  N   UNL d   1      30.334 -16.700   0.605  0.00  0.00     0.145 N 
ATOM      6  H   UNL d   1      30.479 -16.364  -2.484  0.00  0.00     0.156 HD
ATOM      7  H   UNL d   1      29.546 -16.845   1.231  0.00  0.00     0.322 HD
ENDROOT
BRANCH   4   8
ATOM      8  C   UNL d   1      29.110 -14.537   0.392  0.00  0.00     0.279 C 
ATOM      9  O   UNL d   1      28.287 -14.756   1.288  0.00  0.00    -0.268 OA
ATOM     10  N   UNL d   1      28.822 -13.615  -0.595  0.00  0.00    -0.357 N 
ATOM     11  H   UNL d   1      29.540 -13.353  -1.267  0.00  0.00     0.162 HD
BRANCH  10  12
ATOM     12  C   UNL d   1      27.490 -13.049  -0.640  0.00  0.00     0.127 C 
BRANCH  12  13
ATOM     13  C   UNL d   1      26.447 -14.068  -1.021  0.00  0.00     0.056 C 
BRANCH  13  14
ATOM     14  C   UNL d   1      26.072 -14.138  -2.467  0.00  0.00    -0.048 A 
ATOM     15  C   UNL d   1      26.959 -14.583  -3.356  0.00  0.00    -0.003 A 
ATOM     16  C   UNL d   1      28.295 -15.029  -3.184  0.00  0.00     0.056 A 
ATOM     17  C   UNL d   1      26.322 -14.471  -4.672  0.00  0.00     0.039 A 
ATOM     18  C   UNL d   1      29.019 -15.251  -4.280  0.00  0.00     0.117 A 
ATOM     19  F   UNL d   1      30.332 -15.519  -4.157  0.00  0.00    -0.206 F 
ATOM     20  C   UNL d   1      28.436 -15.185  -5.607  0.00  0.00     0.044 A 
ATOM     21  C   UNL d   1      27.156 -14.824  -5.845  0.00  0.00     0.033 A 
ATOM     22  N   UNL d   1      25.114 -14.060  -4.574  0.00  0.00    -0.385 N 
ATOM     23  C   UNL d   1      24.790 -13.741  -3.145  0.00  0.00     0.155 A 
ATOM     24  H   UNL d   1      24.493 -13.980  -5.381  0.00  0.00     0.160 HD
ENDBRANCH  13  14
ENDBRANCH  12  13
ENDBRANCH  10  12
ENDBRANCH   4   8
BRANCH   1  25
ATOM     25  C   UNL d   1      28.594 -17.318  -1.124  0.00  0.00     0.229 C 
BRANCH  25  26
ATOM     26  O   UNL d   1      27.693 -17.345  -0.008  0.00  0.00    -0.348 OA
BRANCH  26  27
ATOM     27  C   UNL d   1      26.365 -17.504  -0.339  0.00  0.00     0.069 A 
ATOM     28  C   UNL d   1      25.586 -18.172   0.607  0.00  0.00     0.038 A 
ATOM     29  C   UNL d   1      24.225 -18.428   0.368  0.00  0.00     0.020 A 
ATOM     30  C   UNL d   1      23.609 -17.954  -0.798  0.00  0.00     0.039 A 
ATOM     31  C   UNL d   1      24.378 -17.270  -1.743  0.00  0.00     0.020 A 
ATOM     32  C   UNL d   1      25.748 -17.050  -1.514  0.00  0.00     0.038 A 
BRANCH  30  33
ATOM     33  C   UNL d   1      22.126 -18.046  -0.924  0.00  0.00     0.292 C 
ATOM     34  O   UNL d   1      21.405 -17.070  -0.894  0.00  0.00    -0.259 OA
BRANCH  33  35
ATOM     35  O   UNL d   1      21.716 -19.340  -1.061  0.00  0.00    -0.323 OA
ATOM     36  C   UNL d   1      20.558 -19.659  -0.271  0.00  0.00     0.213 C 
ENDBRANCH  33  35
ENDBRANCH  30  33
ENDBRANCH  26  27
ENDBRANCH  25  26
ENDBRANCH   1  25
TORSDOF 9
ENDMDL
MODEL 6
REMARK VINA RESULT:    -8.813      1.529      1.923
REMARK INTER + INTRA:         -15.378
REMARK INTER:                 -11.497
REMARK INTRA:                  -3.880
REMARK CONF_INDEPENDENT:        2.685
REMARK UNBOUND:                -3.880
REMARK  9 active torsions:
REMARK  status: ('A' for Active; 'I' for Inactive)
REMARK    1  A    between atoms: O_2  and  C_3 
REMARK    2  A    between atoms: C_3  and  C_5 
REMARK    3  A    between atoms: C_8  and  O_9 
REMARK    4  A    between atoms: O_9  and  C_10 
REMARK    5  A    between atoms: C_11  and  C_10 
REMARK    6  A    between atoms: C_14  and  C_15 
REMARK       I    between atoms: C_15  and  N_17 
REMARK    7  A    between atoms: N_17  and  C_18 
REMARK    8  A    between atoms: C_18  and  C_19 
REMARK    9  A    between atoms: C_19  and  C_20 
ROOT
ATOM      1  C   UNL d   1      28.404 -17.425  -0.194  0.00  0.00     0.345 C 
ATOM      2  N   UNL d   1      28.433 -17.299  -1.654  0.00  0.00    -0.168 NA
ATOM      3  O   UNL d   1      29.103 -16.020  -1.923  0.00  0.00    -0.258 OA
ATOM      4  C   UNL d   1      29.740 -15.627  -0.710  0.00  0.00     0.471 C 
ATOM      5  N   UNL d   1      29.628 -16.745   0.230  0.00  0.00     0.145 N 
ATOM      6  H   UNL d   1      27.483 -17.137  -1.989  0.00  0.00     0.156 HD
ATOM      7  H   UNL d   1      29.557 -16.395   1.181  0.00  0.00     0.322 HD
ENDROOT
BRANCH   4   8
ATOM      8  C   UNL d   1      29.024 -14.356  -0.152  0.00  0.00     0.279 C 
ATOM      9  O   UNL d   1      29.565 -13.578   0.641  0.00  0.00    -0.268 OA
ATOM     10  N   UNL d   1      27.729 -14.119  -0.571  0.00  0.00    -0.357 N 
ATOM     11  H   UNL d   1      27.322 -14.693  -1.305  0.00  0.00     0.162 HD
BRANCH  10  12
ATOM     12  C   UNL d   1      26.987 -13.048   0.061  0.00  0.00     0.127 C 
BRANCH  12  13
ATOM     13  C   UNL d   1      26.310 -13.492   1.332  0.00  0.00     0.056 C 
BRANCH  13  14
ATOM     14  C   UNL d   1      27.089 -13.335   2.599  0.00  0.00    -0.048 A 
ATOM     15  C   UNL d   1      27.193 -12.133   3.164  0.00  0.00    -0.003 A 
ATOM     16  C   UNL d   1      26.675 -10.875   2.759  0.00  0.00     0.056 A 
ATOM     17  C   UNL d   1      28.058 -12.295   4.336  0.00  0.00     0.039 A 
ATOM     18  C   UNL d   1      27.087  -9.794   3.421  0.00  0.00     0.117 A 
ATOM     19  F   UNL d   1      26.744  -8.575   2.967  0.00  0.00    -0.206 F 
ATOM     20  C   UNL d   1      27.918  -9.895   4.606  0.00  0.00     0.044 A 
ATOM     21  C   UNL d   1      28.400 -11.064   5.084  0.00  0.00     0.033 A 
ATOM     22  N   UNL d   1      28.388 -13.520   4.508  0.00  0.00    -0.385 N 
ATOM     23  C   UNL d   1      27.851 -14.363   3.389  0.00  0.00     0.155 A 
ATOM     24  H   UNL d   1      28.937 -13.835   5.309  0.00  0.00     0.160 HD
ENDBRANCH  13  14
ENDBRANCH  12  13
ENDBRANCH  10  12
ENDBRANCH   4   8
BRANCH   1  25
ATOM     25  C   UNL d   1      27.113 -16.856   0.480  0.00  0.00     0.229 C 
BRANCH  25  26
ATOM     26  O   UNL d   1      26.151 -16.352  -0.457  0.00  0.00    -0.348 OA
BRANCH  26  27
ATOM     27  C   UNL d   1      24.972 -17.064  -0.516  0.00  0.00     0.069 A 
ATOM     28  C   UNL d   1      23.835 -16.318  -0.830  0.00  0.00     0.038 A 
ATOM     29  C   UNL d   1      22.569 -16.924  -0.883  0.00  0.00     0.020 A 
ATOM     30  C   UNL d   1      22.435 -18.306  -0.689  0.00  0.00     0.039 A 
ATOM     31  C   UNL d   1      23.570 -19.062  -0.389  0.00  0.00     0.020 A 
ATOM     32  C   UNL d   1      24.829 -18.442  -0.301  0.00  0.00     0.038 A 
BRANCH  30  33
ATOM     33  C   UNL d   1      21.121 -18.954  -0.967  0.00  0.00     0.292 C 
ATOM     34  O   UNL d   1      20.905 -19.586  -1.980  0.00  0.00    -0.259 OA
BRANCH  33  35
ATOM     35  O   UNL d   1      20.230 -18.730   0.041  0.00  0.00    -0.323 OA
ATOM     36  C   UNL d   1      20.191 -19.788   1.014  0.00  0.00     0.213 C 
ENDBRANCH  33  35
ENDBRANCH  30  33
ENDBRANCH  26  27
ENDBRANCH  25  26
ENDBRANCH   1  25
TORSDOF 9
ENDMDL
MODEL 7
REMARK VINA RESULT:    -8.650      4.485      7.113
REMARK INTER + INTRA:         -15.381
REMARK INTER:                 -11.334
REMARK INTRA:                  -4.047
REMARK CONF_INDEPENDENT:        2.685
REMARK UNBOUND:                -4.047
REMARK  9 active torsions:
REMARK  status: ('A' for Active; 'I' for Inactive)
REMARK    1  A    between atoms: O_2  and  C_3 
REMARK    2  A    between atoms: C_3  and  C_5 
REMARK    3  A    between atoms: C_8  and  O_9 
REMARK    4  A    between atoms: O_9  and  C_10 
REMARK    5  A    between atoms: C_11  and  C_10 
REMARK    6  A    between atoms: C_14  and  C_15 
REMARK       I    between atoms: C_15  and  N_17 
REMARK    7  A    between atoms: N_17  and  C_18 
REMARK    8  A    between atoms: C_18  and  C_19 
REMARK    9  A    between atoms: C_19  and  C_20 
ROOT
ATOM      1  C   UNL d   1      29.356 -17.215  -0.511  0.00  0.00     0.345 C 
ATOM      2  N   UNL d   1      30.133 -16.596  -1.589  0.00  0.00    -0.168 NA
ATOM      3  O   UNL d   1      30.007 -15.148  -1.378  0.00  0.00    -0.258 OA
ATOM      4  C   UNL d   1      29.502 -14.967  -0.057  0.00  0.00     0.471 C 
ATOM      5  N   UNL d   1      29.507 -16.276   0.600  0.00  0.00     0.145 N 
ATOM      6  H   UNL d   1      29.644 -16.744  -2.473  0.00  0.00     0.156 HD
ATOM      7  H   UNL d   1      28.735 -16.339   1.257  0.00  0.00     0.322 HD
ENDROOT
BRANCH   4   8
ATOM      8  C   UNL d   1      28.052 -14.393  -0.145  0.00  0.00     0.279 C 
ATOM      9  O   UNL d   1      27.260 -14.432   0.803  0.00  0.00    -0.268 OA
ATOM     10  N   UNL d   1      27.660 -13.831  -1.344  0.00  0.00    -0.357 N 
ATOM     11  H   UNL d   1      28.343 -13.698  -2.087  0.00  0.00     0.162 HD
BRANCH  10  12
ATOM     12  C   UNL d   1      26.273 -13.450  -1.504  0.00  0.00     0.127 C 
BRANCH  12  13
ATOM     13  C   UNL d   1      25.674 -13.983  -2.780  0.00  0.00     0.056 C 
BRANCH  13  14
ATOM     14  C   UNL d   1      26.313 -13.541  -4.058  0.00  0.00    -0.048 A 
ATOM     15  C   UNL d   1      27.274 -14.284  -4.605  0.00  0.00    -0.003 A 
ATOM     16  C   UNL d   1      27.860 -15.501  -4.172  0.00  0.00     0.056 A 
ATOM     17  C   UNL d   1      27.734 -13.561  -5.796  0.00  0.00     0.039 A 
ATOM     18  C   UNL d   1      28.937 -15.937  -4.824  0.00  0.00     0.117 A 
ATOM     19  F   UNL d   1      29.611 -16.997  -4.345  0.00  0.00    -0.206 F 
ATOM     20  C   UNL d   1      29.420 -15.281  -6.025  0.00  0.00     0.044 A 
ATOM     21  C   UNL d   1      28.877 -14.151  -6.530  0.00  0.00     0.033 A 
ATOM     22  N   UNL d   1      27.047 -12.499  -5.993  0.00  0.00    -0.385 N 
ATOM     23  C   UNL d   1      26.062 -12.305  -4.878  0.00  0.00     0.155 A 
ATOM     24  H   UNL d   1      27.181 -11.900  -6.808  0.00  0.00     0.160 HD
ENDBRANCH  13  14
ENDBRANCH  12  13
ENDBRANCH  10  12
ENDBRANCH   4   8
BRANCH   1  25
ATOM     25  C   UNL d   1      27.864 -17.512  -0.874  0.00  0.00     0.229 C 
BRANCH  25  26
ATOM     26  O   UNL d   1      26.929 -17.027   0.099  0.00  0.00    -0.348 OA
BRANCH  26  27
ATOM     27  C   UNL d   1      25.604 -17.251  -0.209  0.00  0.00     0.069 A 
ATOM     28  C   UNL d   1      25.183 -18.578  -0.117  0.00  0.00     0.038 A 
ATOM     29  C   UNL d   1      23.864 -18.938  -0.441  0.00  0.00     0.020 A 
ATOM     30  C   UNL d   1      22.928 -17.959  -0.797  0.00  0.00     0.039 A 
ATOM     31  C   UNL d   1      23.338 -16.626  -0.877  0.00  0.00     0.020 A 
ATOM     32  C   UNL d   1      24.669 -16.277  -0.586  0.00  0.00     0.038 A 
BRANCH  30  33
ATOM     33  C   UNL d   1      21.491 -18.338  -0.920  0.00  0.00     0.292 C 
ATOM     34  O   UNL d   1      20.628 -17.542  -1.228  0.00  0.00    -0.259 OA
BRANCH  33  35
ATOM     35  O   UNL d   1      21.298 -19.659  -0.638  0.00  0.00    -0.323 OA
ATOM     36  C   UNL d   1      20.435 -19.881   0.490  0.00  0.00     0.213 C 
ENDBRANCH  33  35
ENDBRANCH  30  33
ENDBRANCH  26  27
ENDBRANCH  25  26
ENDBRANCH   1  25
TORSDOF 9
ENDMDL
MODEL 8
REMARK VINA RESULT:    -8.546      3.954      5.701
REMARK INTER + INTRA:         -15.647
REMARK INTER:                 -11.231
REMARK INTRA:                  -4.416
REMARK CONF_INDEPENDENT:        2.685
REMARK UNBOUND:                -4.416
REMARK  9 active torsions:
REMARK  status: ('A' for Active; 'I' for Inactive)
REMARK    1  A    between atoms: O_2  and  C_3 
REMARK    2  A    between atoms: C_3  and  C_5 
REMARK    3  A    between atoms: C_8  and  O_9 
REMARK    4  A    between atoms: O_9  and  C_10 
REMARK    5  A    between atoms: C_11  and  C_10 
REMARK    6  A    between atoms: C_14  and  C_15 
REMARK       I    between atoms: C_15  and  N_17 
REMARK    7  A    between atoms: N_17  and  C_18 
REMARK    8  A    between atoms: C_18  and  C_19 
REMARK    9  A    between atoms: C_19  and  C_20 
ROOT
ATOM      1  C   UNL d   1      29.231 -17.607  -0.543  0.00  0.00     0.345 C 
ATOM      2  N   UNL d   1      29.313 -16.962  -1.857  0.00  0.00    -0.168 NA
ATOM      3  O   UNL d   1      29.760 -15.588  -1.589  0.00  0.00    -0.258 OA
ATOM      4  C   UNL d   1      30.254 -15.570  -0.252  0.00  0.00     0.471 C 
ATOM      5  N   UNL d   1      30.292 -16.956   0.223  0.00  0.00     0.145 N 
ATOM      6  H   UNL d   1      28.367 -16.830  -2.218  0.00  0.00     0.156 HD
ATOM      7  H   UNL d   1      30.111 -16.986   1.223  0.00  0.00     0.322 HD
ENDROOT
BRANCH   4   8
ATOM      8  C   UNL d   1      29.297 -14.705   0.629  0.00  0.00     0.279 C 
ATOM      9  O   UNL d   1      29.630 -14.248   1.728  0.00  0.00    -0.268 OA
ATOM     10  N   UNL d   1      28.028 -14.462   0.141  0.00  0.00    -0.357 N 
ATOM     11  H   UNL d   1      27.789 -14.742  -0.808  0.00  0.00     0.162 HD
BRANCH  10  12
ATOM     12  C   UNL d   1      27.070 -13.812   1.010  0.00  0.00     0.127 C 
BRANCH  12  13
ATOM     13  C   UNL d   1      26.658 -12.456   0.498  0.00  0.00     0.056 C 
BRANCH  13  14
ATOM     14  C   UNL d   1      27.292 -11.997  -0.776  0.00  0.00    -0.048 A 
ATOM     15  C   UNL d   1      26.922 -12.547  -1.932  0.00  0.00    -0.003 A 
ATOM     16  C   UNL d   1      25.977 -13.569  -2.207  0.00  0.00     0.056 A 
ATOM     17  C   UNL d   1      27.759 -11.939  -2.971  0.00  0.00     0.039 A 
ATOM     18  C   UNL d   1      25.935 -14.056  -3.446  0.00  0.00     0.117 A 
ATOM     19  F   UNL d   1      25.168 -15.130  -3.704  0.00  0.00    -0.206 F 
ATOM     20  C   UNL d   1      26.718 -13.476  -4.522  0.00  0.00     0.044 A 
ATOM     21  C   UNL d   1      27.595 -12.463  -4.346  0.00  0.00     0.033 A 
ATOM     22  N   UNL d   1      28.524 -11.034  -2.486  0.00  0.00    -0.385 N 
ATOM     23  C   UNL d   1      28.369 -10.970  -0.995  0.00  0.00     0.155 A 
ATOM     24  H   UNL d   1      29.134 -10.459  -3.068  0.00  0.00     0.160 HD
ENDBRANCH  13  14
ENDBRANCH  12  13
ENDBRANCH  10  12
ENDBRANCH   4   8
BRANCH   1  25
ATOM     25  C   UNL d   1      27.826 -17.515   0.138  0.00  0.00     0.229 C 
BRANCH  25  26
ATOM     26  O   UNL d   1      26.892 -16.697  -0.581  0.00  0.00    -0.348 OA
BRANCH  26  27
ATOM     27  C   UNL d   1      25.594 -17.159  -0.576  0.00  0.00     0.069 A 
ATOM     28  C   UNL d   1      24.637 -16.266  -1.059  0.00  0.00     0.038 A 
ATOM     29  C   UNL d   1      23.274 -16.608  -1.070  0.00  0.00     0.020 A 
ATOM     30  C   UNL d   1      22.859 -17.881  -0.659  0.00  0.00     0.039 A 
ATOM     31  C   UNL d   1      23.812 -18.787  -0.189  0.00  0.00     0.020 A 
ATOM     32  C   UNL d   1      25.170 -18.425  -0.146  0.00  0.00     0.038 A 
BRANCH  30  33
ATOM     33  C   UNL d   1      21.443 -18.292  -0.888  0.00  0.00     0.292 C 
ATOM     34  O   UNL d   1      20.590 -17.516  -1.266  0.00  0.00    -0.259 OA
BRANCH  33  35
ATOM     35  O   UNL d   1      21.256 -19.614  -0.609  0.00  0.00    -0.323 OA
ATOM     36  C   UNL d   1      19.896 -19.940  -0.273  0.00  0.00     0.213 C 
ENDBRANCH  33  35
ENDBRANCH  30  33
ENDBRANCH  26  27
ENDBRANCH  25  26
ENDBRANCH   1  25
TORSDOF 9
ENDMDL
