MODEL 1
REMARK VINA RESULT:    -7.447      0.000      0.000
REMARK INTER + INTRA:         -10.284
REMARK INTER:                  -8.640
REMARK INTRA:                  -1.644
REMARK CONF_INDEPENDENT:        1.193
REMARK UNBOUND:                -1.644
REMARK  4 active torsions:
REMARK  status: ('A' for Active; 'I' for Inactive)
REMARK    1  A    between atoms: C_5  and  C_6 
REMARK       I    between atoms: C_6  and  N_8 
REMARK    2  A    between atoms: N_8  and  N_9 
REMARK       I    between atoms: N_9  and  C_10 
REMARK    3  A    between atoms: C_10  and  C_12 
REMARK    4  A    between atoms: C_17  and  O_18 
ROOT
ATOM      1  C   UNL d   1      24.012 -17.900  -0.130  0.00  0.00     0.272 C 
ATOM      2  O   UNL d   1      24.330 -18.199   1.023  0.00  0.00    -0.266 OA
ATOM      3  N   UNL d   1      22.756 -18.202  -0.649  0.00  0.00    -0.263 N 
ATOM      4  H   UNL d   1      22.446 -17.976  -1.591  0.00  0.00     0.190 HD
ENDROOT
BRANCH   1   5
ATOM      5  C   UNL d   1      25.009 -17.175  -1.004  0.00  0.00     0.066 A 
ATOM      6  C   UNL d   1      24.609 -16.276  -2.006  0.00  0.00     0.020 A 
ATOM      7  C   UNL d   1      25.555 -15.596  -2.796  0.00  0.00     0.008 A 
ATOM      8  C   UNL d   1      26.925 -15.787  -2.599  0.00  0.00    -0.059 A 
ATOM      9  C   UNL d   1      27.958 -15.058  -3.410  0.00  0.00     0.048 C 
ATOM     10  C   UNL d   1      27.335 -16.686  -1.611  0.00  0.00     0.044 A 
ATOM     11  C   UNL d   1      26.395 -17.375  -0.832  0.00  0.00     0.082 A 
BRANCH  11  12
ATOM     12  O   UNL d   1      26.937 -18.237   0.086  0.00  0.00    -0.360 OA
ATOM     13  H   UNL d   1      26.475 -18.109   0.941  0.00  0.00     0.217 HD
ENDBRANCH  11  12
ENDBRANCH   1   5
BRANCH   3  14
ATOM     14  N   UNL d   1      21.771 -18.827   0.169  0.00  0.00    -0.263 N 
ATOM     15  C   UNL d   1      20.649 -19.386  -0.431  0.00  0.00     0.272 C 
ATOM     16  O   UNL d   1      20.468 -19.332  -1.652  0.00  0.00    -0.266 OA
ATOM     17  H   UNL d   1      22.007 -18.974   1.148  0.00  0.00     0.190 HD
BRANCH  15  18
ATOM     18  C   UNL d   1      19.707 -20.051   0.460  0.00  0.00     0.057 A 
ATOM     19  C   UNL d   1      18.539 -20.817   0.161  0.00  0.00     0.043 A 
ATOM     20  C   UNL d   1      18.037 -21.267   1.361  0.00  0.00     0.142 A 
ATOM     21  O   UNL d   1      18.810 -20.832   2.387  0.00  0.00    -0.334 OA
ATOM     22  C   UNL d   1      19.826 -20.116   1.837  0.00  0.00     0.158 A 
ENDBRANCH  15  18
ENDBRANCH   3  14
TORSDOF 4
ENDMDL
MODEL 2
REMARK VINA RESULT:    -7.403      1.117      1.319
REMARK INTER + INTRA:          -9.639
REMARK INTER:                  -8.597
REMARK INTRA:                  -1.042
REMARK CONF_INDEPENDENT:        1.193
REMARK UNBOUND:                -1.042
REMARK  4 active torsions:
REMARK  status: ('A' for Active; 'I' for Inactive)
REMARK    1  A    between atoms: C_5  and  C_6 
REMARK       I    between atoms: C_6  and  N_8 
REMARK    2  A    between atoms: N_8  and  N_9 
REMARK       I    between atoms: N_9  and  C_10 
REMARK    3  A    between atoms: C_10  and  C_12 
REMARK    4  A    between atoms: C_17  and  O_18 
ROOT
ATOM      1  C   UNL d   1      23.115 -17.157  -0.492  0.00  0.00     0.272 C 
ATOM      2  O   UNL d   1      22.104 -16.453  -0.524  0.00  0.00    -0.266 OA
ATOM      3  N   UNL d   1      23.111 -18.427   0.080  0.00  0.00    -0.263 N 
ATOM      4  H   UNL d   1      23.917 -19.045   0.129  0.00  0.00     0.190 HD
ENDROOT
BRANCH   1   5
ATOM      5  C   UNL d   1      24.396 -16.634  -1.099  0.00  0.00     0.066 A 
ATOM      6  C   UNL d   1      24.406 -15.579  -2.027  0.00  0.00     0.020 A 
ATOM      7  C   UNL d   1      25.613 -15.093  -2.565  0.00  0.00     0.008 A 
ATOM      8  C   UNL d   1      26.841 -15.638  -2.184  0.00  0.00    -0.059 A 
ATOM      9  C   UNL d   1      28.145 -15.125  -2.723  0.00  0.00     0.048 C 
ATOM     10  C   UNL d   1      26.843 -16.695  -1.269  0.00  0.00     0.044 A 
ATOM     11  C   UNL d   1      25.642 -17.190  -0.741  0.00  0.00     0.082 A 
BRANCH  11  12
ATOM     12  O   UNL d   1      25.792 -18.238   0.131  0.00  0.00    -0.360 OA
ATOM     13  H   UNL d   1      26.580 -18.066   0.687  0.00  0.00     0.217 HD
ENDBRANCH  11  12
ENDBRANCH   1   5
BRANCH   3  14
ATOM     14  N   UNL d   1      21.904 -18.976   0.603  0.00  0.00    -0.263 N 
ATOM     15  C   UNL d   1      20.926 -19.420  -0.279  0.00  0.00     0.272 C 
ATOM     16  O   UNL d   1      21.060 -19.325  -1.503  0.00  0.00    -0.266 OA
ATOM     17  H   UNL d   1      21.876 -19.163   1.602  0.00  0.00     0.190 HD
BRANCH  15  18
ATOM     18  C   UNL d   1      19.740 -20.014   0.324  0.00  0.00     0.057 A 
ATOM     19  C   UNL d   1      19.436 -20.277   1.695  0.00  0.00     0.043 A 
ATOM     20  C   UNL d   1      18.162 -20.800   1.730  0.00  0.00     0.142 A 
ATOM     21  O   UNL d   1      17.655 -20.883   0.475  0.00  0.00    -0.334 OA
ATOM     22  C   UNL d   1      18.601 -20.390  -0.366  0.00  0.00     0.158 A 
ENDBRANCH  15  18
ENDBRANCH   3  14
TORSDOF 4
ENDMDL
MODEL 3
REMARK VINA RESULT:    -7.201      1.000      1.609
REMARK INTER + INTRA:         -10.050
REMARK INTER:                  -8.394
REMARK INTRA:                  -1.656
REMARK CONF_INDEPENDENT:        1.193
REMARK UNBOUND:                -1.656
REMARK  4 active torsions:
REMARK  status: ('A' for Active; 'I' for Inactive)
REMARK    1  A    between atoms: C_5  and  C_6 
REMARK       I    between atoms: C_6  and  N_8 
REMARK    2  A    between atoms: N_8  and  N_9 
REMARK       I    between atoms: N_9  and  C_10 
REMARK    3  A    between atoms: C_10  and  C_12 
REMARK    4  A    between atoms: C_17  and  O_18 
ROOT
ATOM      1  C   UNL d   1      24.232 -17.999  -0.052  0.00  0.00     0.272 C 
ATOM      2  O   UNL d   1      24.585 -18.575   0.980  0.00  0.00    -0.266 OA
ATOM      3  N   UNL d   1      22.950 -18.144  -0.574  0.00  0.00    -0.263 N 
ATOM      4  H   UNL d   1      22.611 -17.690  -1.418  0.00  0.00     0.190 HD
ENDROOT
BRANCH   1   5
ATOM      5  C   UNL d   1      25.215 -17.101  -0.766  0.00  0.00     0.066 A 
ATOM      6  C   UNL d   1      26.603 -17.309  -0.698  0.00  0.00     0.020 A 
ATOM      7  C   UNL d   1      27.500 -16.473  -1.388  0.00  0.00     0.008 A 
ATOM      8  C   UNL d   1      27.036 -15.415  -2.174  0.00  0.00    -0.059 A 
ATOM      9  C   UNL d   1      27.968 -14.520  -2.941  0.00  0.00     0.048 C 
ATOM     10  C   UNL d   1      25.658 -15.192  -2.242  0.00  0.00     0.044 A 
ATOM     11  C   UNL d   1      24.763 -16.016  -1.545  0.00  0.00     0.082 A 
BRANCH  11  12
ATOM     12  O   UNL d   1      23.443 -15.672  -1.688  0.00  0.00    -0.360 OA
ATOM     13  H   UNL d   1      23.347 -15.152  -2.514  0.00  0.00     0.217 HD
ENDBRANCH  11  12
ENDBRANCH   1   5
BRANCH   3  14
ATOM     14  N   UNL d   1      21.979 -18.931   0.111  0.00  0.00    -0.263 N 
ATOM     15  C   UNL d   1      20.659 -18.907  -0.324  0.00  0.00     0.272 C 
ATOM     16  O   UNL d   1      20.298 -18.199  -1.270  0.00  0.00    -0.266 OA
ATOM     17  H   UNL d   1      22.325 -19.601   0.795  0.00  0.00     0.190 HD
BRANCH  15  18
ATOM     18  C   UNL d   1      19.731 -19.773   0.390  0.00  0.00     0.057 A 
ATOM     19  C   UNL d   1      18.626 -20.539  -0.095  0.00  0.00     0.043 A 
ATOM     20  C   UNL d   1      18.111 -21.224   0.983  0.00  0.00     0.142 A 
ATOM     21  O   UNL d   1      18.816 -20.934   2.104  0.00  0.00    -0.334 OA
ATOM     22  C   UNL d   1      19.802 -20.075   1.739  0.00  0.00     0.158 A 
ENDBRANCH  15  18
ENDBRANCH   3  14
TORSDOF 4
ENDMDL
MODEL 4
REMARK VINA RESULT:    -7.072      1.761      7.964
REMARK INTER + INTRA:          -9.916
REMARK INTER:                  -8.265
REMARK INTRA:                  -1.651
REMARK CONF_INDEPENDENT:        1.193
REMARK UNBOUND:                -1.651
REMARK  4 active torsions:
REMARK  status: ('A' for Active; 'I' for Inactive)
REMARK    1  A    between atoms: C_5  and  C_6 
REMARK       I    between atoms: C_6  and  N_8 
REMARK    2  A    between atoms: N_8  and  N_9 
REMARK       I    between atoms: N_9  and  C_10 
REMARK    3  A    between atoms: C_10  and  C_12 
REMARK    4  A    between atoms: C_17  and  O_18 
ROOT
ATOM      1  C   UNL d   1      21.935 -18.289  -0.360  0.00  0.00     0.272 C 
ATOM      2  O   UNL d   1      21.668 -17.439  -1.212  0.00  0.00    -0.266 OA
ATOM      3  N   UNL d   1      23.233 -18.481   0.108  0.00  0.00    -0.263 N 
ATOM      4  H   UNL d   1      23.503 -19.166   0.808  0.00  0.00     0.190 HD
ENDROOT
BRANCH   1   5
ATOM      5  C   UNL d   1      20.823 -19.144   0.200  0.00  0.00     0.066 A 
ATOM      6  C   UNL d   1      20.654 -19.338   1.581  0.00  0.00     0.020 A 
ATOM      7  C   UNL d   1      19.598 -20.122   2.084  0.00  0.00     0.008 A 
ATOM      8  C   UNL d   1      18.677 -20.722   1.222  0.00  0.00    -0.059 A 
ATOM      9  C   UNL d   1      17.527 -21.545   1.730  0.00  0.00     0.048 C 
ATOM     10  C   UNL d   1      18.840 -20.544  -0.154  0.00  0.00     0.044 A 
ATOM     11  C   UNL d   1      19.899 -19.775  -0.658  0.00  0.00     0.082 A 
BRANCH  11  12
ATOM     12  O   UNL d   1      19.947 -19.700  -2.026  0.00  0.00    -0.360 OA
ATOM     13  H   UNL d   1      20.373 -18.852  -2.274  0.00  0.00     0.217 HD
ENDBRANCH  11  12
ENDBRANCH   1   5
BRANCH   3  14
ATOM     14  N   UNL d   1      24.294 -17.648  -0.353  0.00  0.00    -0.263 N 
ATOM     15  C   UNL d   1      25.553 -17.778   0.221  0.00  0.00     0.272 C 
ATOM     16  O   UNL d   1      25.771 -18.575   1.139  0.00  0.00    -0.266 OA
ATOM     17  H   UNL d   1      24.121 -17.101  -1.193  0.00  0.00     0.190 HD
BRANCH  15  18
ATOM     18  C   UNL d   1      26.602 -16.931  -0.332  0.00  0.00     0.057 A 
ATOM     19  C   UNL d   1      28.010 -17.153  -0.430  0.00  0.00     0.043 A 
ATOM     20  C   UNL d   1      28.542 -16.064  -1.083  0.00  0.00     0.142 A 
ATOM     21  O   UNL d   1      27.563 -15.179  -1.395  0.00  0.00    -0.334 OA
ATOM     22  C   UNL d   1      26.394 -15.714  -0.958  0.00  0.00     0.158 A 
ENDBRANCH  15  18
ENDBRANCH   3  14
TORSDOF 4
ENDMDL
MODEL 5
REMARK VINA RESULT:    -6.223      2.227      3.007
REMARK INTER + INTRA:          -8.463
REMARK INTER:                  -7.417
REMARK INTRA:                  -1.046
REMARK CONF_INDEPENDENT:        1.193
REMARK UNBOUND:                -1.046
REMARK  4 active torsions:
REMARK  status: ('A' for Active; 'I' for Inactive)
REMARK    1  A    between atoms: C_5  and  C_6 
REMARK       I    between atoms: C_6  and  N_8 
REMARK    2  A    between atoms: N_8  and  N_9 
REMARK       I    between atoms: N_9  and  C_10 
REMARK    3  A    between atoms: C_10  and  C_12 
REMARK    4  A    between atoms: C_17  and  O_18 
ROOT
ATOM      1  C   UNL d   1      26.052 -17.526   0.164  0.00  0.00     0.272 C 
ATOM      2  O   UNL d   1      26.310 -18.677   0.522  0.00  0.00    -0.266 OA
ATOM      3  N   UNL d   1      24.768 -17.142  -0.215  0.00  0.00    -0.263 N 
ATOM      4  H   UNL d   1      24.506 -16.208  -0.516  0.00  0.00     0.190 HD
ENDROOT
BRANCH   1   5
ATOM      5  C   UNL d   1      27.158 -16.496   0.145  0.00  0.00     0.066 A 
ATOM      6  C   UNL d   1      26.925 -15.144   0.446  0.00  0.00     0.020 A 
ATOM      7  C   UNL d   1      27.973 -14.204   0.442  0.00  0.00     0.008 A 
ATOM      8  C   UNL d   1      29.283 -14.591   0.149  0.00  0.00    -0.059 A 
ATOM      9  C   UNL d   1      30.425 -13.616   0.160  0.00  0.00     0.048 C 
ATOM     10  C   UNL d   1      29.526 -15.932  -0.162  0.00  0.00     0.044 A 
ATOM     11  C   UNL d   1      28.481 -16.867  -0.172  0.00  0.00     0.082 A 
BRANCH  11  12
ATOM     12  O   UNL d   1      28.860 -18.141  -0.510  0.00  0.00    -0.360 OA
ATOM     13  H   UNL d   1      29.740 -18.317  -0.115  0.00  0.00     0.217 HD
ENDBRANCH  11  12
ENDBRANCH   1   5
BRANCH   3  14
ATOM     14  N   UNL d   1      23.691 -18.073  -0.147  0.00  0.00    -0.263 N 
ATOM     15  C   UNL d   1      22.416 -17.658  -0.513  0.00  0.00     0.272 C 
ATOM     16  O   UNL d   1      22.185 -16.498  -0.870  0.00  0.00    -0.266 OA
ATOM     17  H   UNL d   1      23.930 -19.047   0.020  0.00  0.00     0.190 HD
BRANCH  15  18
ATOM     18  C   UNL d   1      21.371 -18.673  -0.466  0.00  0.00     0.057 A 
ATOM     19  C   UNL d   1      20.775 -19.330   0.654  0.00  0.00     0.043 A 
ATOM     20  C   UNL d   1      19.799 -20.164   0.155  0.00  0.00     0.142 A 
ATOM     21  O   UNL d   1      19.750 -20.074  -1.197  0.00  0.00    -0.334 OA
ATOM     22  C   UNL d   1      20.686 -19.160  -1.565  0.00  0.00     0.158 A 
ENDBRANCH  15  18
ENDBRANCH   3  14
TORSDOF 4
ENDMDL
MODEL 6
REMARK VINA RESULT:    -5.594      3.029      4.933
REMARK INTER + INTRA:          -8.475
REMARK INTER:                  -6.787
REMARK INTRA:                  -1.688
REMARK CONF_INDEPENDENT:        1.193
REMARK UNBOUND:                -1.688
REMARK  4 active torsions:
REMARK  status: ('A' for Active; 'I' for Inactive)
REMARK    1  A    between atoms: C_5  and  C_6 
REMARK       I    between atoms: C_6  and  N_8 
REMARK    2  A    between atoms: N_8  and  N_9 
REMARK       I    between atoms: N_9  and  C_10 
REMARK    3  A    between atoms: C_10  and  C_12 
REMARK    4  A    between atoms: C_17  and  O_18 
ROOT
ATOM      1  C   UNL d   1      26.126 -15.116  -3.616  0.00  0.00     0.272 C 
ATOM      2  O   UNL d   1      25.192 -14.902  -4.392  0.00  0.00    -0.266 OA
ATOM      3  N   UNL d   1      25.973 -15.907  -2.481  0.00  0.00    -0.263 N 
ATOM      4  H   UNL d   1      26.711 -16.115  -1.813  0.00  0.00     0.190 HD
ENDROOT
BRANCH   1   5
ATOM      5  C   UNL d   1      27.480 -14.512  -3.909  0.00  0.00     0.066 A 
ATOM      6  C   UNL d   1      28.231 -13.849  -2.925  0.00  0.00     0.020 A 
ATOM      7  C   UNL d   1      29.499 -13.311  -3.214  0.00  0.00     0.008 A 
ATOM      8  C   UNL d   1      30.056 -13.431  -4.489  0.00  0.00    -0.059 A 
ATOM      9  C   UNL d   1      31.416 -12.888  -4.822  0.00  0.00     0.048 C 
ATOM     10  C   UNL d   1      29.314 -14.081  -5.480  0.00  0.00     0.044 A 
ATOM     11  C   UNL d   1      28.045 -14.606  -5.198  0.00  0.00     0.082 A 
BRANCH  11  12
ATOM     12  O   UNL d   1      27.425 -15.201  -6.267  0.00  0.00    -0.360 OA
ATOM     13  H   UNL d   1      26.461 -15.225  -6.090  0.00  0.00     0.217 HD
ENDBRANCH  11  12
ENDBRANCH   1   5
BRANCH   3  14
ATOM     14  N   UNL d   1      24.727 -16.544  -2.210  0.00  0.00    -0.263 N 
ATOM     15  C   UNL d   1      24.610 -17.348  -1.082  0.00  0.00     0.272 C 
ATOM     16  O   UNL d   1      25.563 -17.549  -0.323  0.00  0.00    -0.266 OA
ATOM     17  H   UNL d   1      23.929 -16.258  -2.772  0.00  0.00     0.190 HD
BRANCH  15  18
ATOM     18  C   UNL d   1      23.295 -17.927  -0.840  0.00  0.00     0.057 A 
ATOM     19  C   UNL d   1      22.924 -19.271  -0.524  0.00  0.00     0.043 A 
ATOM     20  C   UNL d   1      21.559 -19.277  -0.343  0.00  0.00     0.142 A 
ATOM     21  O   UNL d   1      21.055 -18.032  -0.527  0.00  0.00    -0.334 OA
ATOM     22  C   UNL d   1      22.107 -17.218  -0.807  0.00  0.00     0.158 A 
ENDBRANCH  15  18
ENDBRANCH   3  14
TORSDOF 4
ENDMDL
MODEL 7
REMARK VINA RESULT:    -5.553      3.478      5.380
REMARK INTER + INTRA:          -8.410
REMARK INTER:                  -6.746
REMARK INTRA:                  -1.664
REMARK CONF_INDEPENDENT:        1.193
REMARK UNBOUND:                -1.664
REMARK  4 active torsions:
REMARK  status: ('A' for Active; 'I' for Inactive)
REMARK    1  A    between atoms: C_5  and  C_6 
REMARK       I    between atoms: C_6  and  N_8 
REMARK    2  A    between atoms: N_8  and  N_9 
REMARK       I    between atoms: N_9  and  C_10 
REMARK    3  A    between atoms: C_10  and  C_12 
REMARK    4  A    between atoms: C_17  and  O_18 
ROOT
ATOM      1  C   UNL d   1      25.528 -14.521  -3.852  0.00  0.00     0.272 C 
ATOM      2  O   UNL d   1      24.408 -14.216  -4.268  0.00  0.00    -0.266 OA
ATOM      3  N   UNL d   1      25.710 -15.495  -2.874  0.00  0.00    -0.263 N 
ATOM      4  H   UNL d   1      26.611 -15.781  -2.500  0.00  0.00     0.190 HD
ENDROOT
BRANCH   1   5
ATOM      5  C   UNL d   1      26.740 -13.825  -4.426  0.00  0.00     0.066 A 
ATOM      6  C   UNL d   1      27.972 -14.480  -4.585  0.00  0.00     0.020 A 
ATOM      7  C   UNL d   1      29.084 -13.819  -5.140  0.00  0.00     0.008 A 
ATOM      8  C   UNL d   1      28.992 -12.491  -5.563  0.00  0.00    -0.059 A 
ATOM      9  C   UNL d   1      30.154 -11.766  -6.180  0.00  0.00     0.048 C 
ATOM     10  C   UNL d   1      27.774 -11.825  -5.401  0.00  0.00     0.044 A 
ATOM     11  C   UNL d   1      26.669 -12.477  -4.835  0.00  0.00     0.082 A 
BRANCH  11  12
ATOM     12  O   UNL d   1      25.545 -11.699  -4.722  0.00  0.00    -0.360 OA
ATOM     13  H   UNL d   1      24.760 -12.264  -4.882  0.00  0.00     0.217 HD
ENDBRANCH  11  12
ENDBRANCH   1   5
BRANCH   3  14
ATOM     14  N   UNL d   1      24.594 -16.215  -2.359  0.00  0.00    -0.263 N 
ATOM     15  C   UNL d   1      24.818 -17.294  -1.512  0.00  0.00     0.272 C 
ATOM     16  O   UNL d   1      25.959 -17.664  -1.216  0.00  0.00    -0.266 OA
ATOM     17  H   UNL d   1      23.673 -15.811  -2.510  0.00  0.00     0.190 HD
BRANCH  15  18
ATOM     18  C   UNL d   1      23.631 -17.954  -0.984  0.00  0.00     0.057 A 
ATOM     19  C   UNL d   1      22.912 -17.724   0.229  0.00  0.00     0.043 A 
ATOM     20  C   UNL d   1      21.835 -18.582   0.225  0.00  0.00     0.142 A 
ATOM     21  O   UNL d   1      21.836 -19.332  -0.905  0.00  0.00    -0.334 OA
ATOM     22  C   UNL d   1      22.909 -18.936  -1.639  0.00  0.00     0.158 A 
ENDBRANCH  15  18
ENDBRANCH   3  14
TORSDOF 4
ENDMDL
MODEL 8
REMARK VINA RESULT:    -5.525      3.600      8.717
REMARK INTER + INTRA:          -8.324
REMARK INTER:                  -6.718
REMARK INTRA:                  -1.606
REMARK CONF_INDEPENDENT:        1.193
REMARK UNBOUND:                -1.606
REMARK  4 active torsions:
REMARK  status: ('A' for Active; 'I' for Inactive)
REMARK    1  A    between atoms: C_5  and  C_6 
REMARK       I    between atoms: C_6  and  N_8 
REMARK    2  A    between atoms: N_8  and  N_9 
REMARK       I    between atoms: N_9  and  C_10 
REMARK    3  A    between atoms: C_10  and  C_12 
REMARK    4  A    between atoms: C_17  and  O_18 
ROOT
ATOM      1  C   UNL d   1      25.990 -16.116  -1.706  0.00  0.00     0.272 C 
ATOM      2  O   UNL d   1      26.967 -15.870  -0.995  0.00  0.00    -0.266 OA
ATOM      3  N   UNL d   1      25.958 -15.776  -3.056  0.00  0.00    -0.263 N 
ATOM      4  H   UNL d   1      25.178 -15.959  -3.683  0.00  0.00     0.190 HD
ENDROOT
BRANCH   1   5
ATOM      5  C   UNL d   1      24.796 -16.815  -1.100  0.00  0.00     0.066 A 
ATOM      6  C   UNL d   1      23.486 -16.337  -1.268  0.00  0.00     0.020 A 
ATOM      7  C   UNL d   1      22.385 -17.015  -0.711  0.00  0.00     0.008 A 
ATOM      8  C   UNL d   1      22.561 -18.193   0.018  0.00  0.00    -0.059 A 
ATOM      9  C   UNL d   1      21.404 -18.950   0.605  0.00  0.00     0.048 C 
ATOM     10  C   UNL d   1      23.861 -18.673   0.201  0.00  0.00     0.044 A 
ATOM     11  C   UNL d   1      24.960 -17.992  -0.341  0.00  0.00     0.082 A 
BRANCH  11  12
ATOM     12  O   UNL d   1      26.176 -18.567  -0.070  0.00  0.00    -0.360 OA
ATOM     13  H   UNL d   1      26.861 -17.866  -0.092  0.00  0.00     0.217 HD
ENDBRANCH  11  12
ENDBRANCH   1   5
BRANCH   3  14
ATOM     14  N   UNL d   1      27.093 -15.175  -3.674  0.00  0.00    -0.263 N 
ATOM     15  C   UNL d   1      27.149 -15.105  -5.061  0.00  0.00     0.272 C 
ATOM     16  O   UNL d   1      26.257 -15.576  -5.774  0.00  0.00    -0.266 OA
ATOM     17  H   UNL d   1      27.743 -14.682  -3.067  0.00  0.00     0.190 HD
BRANCH  15  18
ATOM     18  C   UNL d   1      28.314 -14.434  -5.624  0.00  0.00     0.057 A 
ATOM     19  C   UNL d   1      29.510 -14.979  -6.184  0.00  0.00     0.043 A 
ATOM     20  C   UNL d   1      30.268 -13.915  -6.620  0.00  0.00     0.142 A 
ATOM     21  O   UNL d   1      29.628 -12.747  -6.366  0.00  0.00    -0.334 OA
ATOM     22  C   UNL d   1      28.443 -13.066  -5.784  0.00  0.00     0.158 A 
ENDBRANCH  15  18
ENDBRANCH   3  14
TORSDOF 4
ENDMDL
