MODEL 1
REMARK VINA RESULT:    -8.357      0.000      0.000
REMARK INTER + INTRA:         -10.648
REMARK INTER:                  -9.848
REMARK INTRA:                  -0.800
REMARK CONF_INDEPENDENT:        1.492
REMARK UNBOUND:                -0.800
REMARK  5 active torsions:
REMARK  status: ('A' for Active; 'I' for Inactive)
REMARK    1  A    between atoms: C_2  and  C_4 
REMARK       I    between atoms: C_4  and  N_6 
REMARK    2  A    between atoms: N_6  and  C_7 
REMARK    3  A    between atoms: C_11  and  N_12 
REMARK       I    between atoms: N_12  and  C_13 
REMARK    4  A    between atoms: C_13  and  C_15 
REMARK    5  A    between atoms: C_18  and  N_19 
ROOT
ATOM      1  C   UNL d   1      26.441 -16.137  -0.950  0.00  0.00     0.036 A 
ATOM      2  C   UNL d   1      27.570 -16.755  -0.430  0.00  0.00     0.029 A 
ATOM      3  C   UNL d   1      27.428 -17.942   0.307  0.00  0.00     0.004 A 
ATOM      4  C   UNL d   1      26.157 -18.507   0.538  0.00  0.00     0.029 A 
ATOM      5  C   UNL d   1      25.021 -17.892   0.013  0.00  0.00     0.037 A 
ATOM      6  C   UNL d   1      25.199 -16.705  -0.692  0.00  0.00     0.059 A 
ENDROOT
BRANCH   5   7
ATOM      7  N   UNL d   1      23.728 -18.473   0.143  0.00  0.00    -0.323 N 
ATOM      8  C   UNL d   1      22.558 -17.884  -0.328  0.00  0.00     0.256 C 
ATOM      9  O   UNL d   1      22.436 -16.805  -0.915  0.00  0.00    -0.267 OA
ATOM     10  H   UNL d   1      23.684 -19.411   0.523  0.00  0.00     0.169 HD
BRANCH   8  11
ATOM     11  C   UNL d   1      21.279 -18.583  -0.145  0.00  0.00     0.032 A 
ATOM     12  C   UNL d   1      21.030 -19.161   1.117  0.00  0.00     0.019 A 
ATOM     13  C   UNL d   1      19.960 -20.033   1.296  0.00  0.00     0.037 A 
ATOM     14  C   UNL d   1      19.093 -20.267   0.223  0.00  0.00     0.102 A 
ATOM     15  C   UNL d   1      19.342 -19.700  -1.039  0.00  0.00     0.037 A 
ATOM     16  C   UNL d   1      20.444 -18.862  -1.226  0.00  0.00     0.019 A 
BRANCH  14  17
ATOM     17  N   UNL d   1      17.879 -21.062   0.438  0.00  0.00    -0.116 N 
ATOM     18  O   UNL d   1      17.685 -21.526   1.572  0.00  0.00    -0.532 OA
ATOM     19  O   UNL d   1      17.102 -21.191  -0.518  0.00  0.00    -0.532 OA
ENDBRANCH  14  17
ENDBRANCH   8  11
ENDBRANCH   5   7
BRANCH   1  20
ATOM     20  N   UNL d   1      26.510 -15.020  -1.819  0.00  0.00    -0.327 N 
ATOM     21  C   UNL d   1      26.109 -15.081  -3.152  0.00  0.00     0.225 C 
ATOM     22  O   UNL d   1      25.493 -16.028  -3.640  0.00  0.00    -0.273 OA
ATOM     23  H   UNL d   1      26.882 -14.162  -1.437  0.00  0.00     0.169 HD
BRANCH  21  24
ATOM     24  C   UNL d   1      26.432 -13.860  -4.014  0.00  0.00     0.070 C 
ATOM     25  C   UNL d   1      25.119 -13.265  -4.552  0.00  0.00     0.019 C 
ATOM     26  C   UNL d   1      27.160 -12.802  -3.199  0.00  0.00     0.019 C 
ENDBRANCH  21  24
ENDBRANCH   1  20
TORSDOF 5
ENDMDL
MODEL 2
REMARK VINA RESULT:    -7.836      4.080      5.621
REMARK INTER + INTRA:         -10.173
REMARK INTER:                  -9.328
REMARK INTRA:                  -0.845
REMARK CONF_INDEPENDENT:        1.492
REMARK UNBOUND:                -0.845
REMARK  5 active torsions:
REMARK  status: ('A' for Active; 'I' for Inactive)
REMARK    1  A    between atoms: C_2  and  C_4 
REMARK       I    between atoms: C_4  and  N_6 
REMARK    2  A    between atoms: N_6  and  C_7 
REMARK    3  A    between atoms: C_11  and  N_12 
REMARK       I    between atoms: N_12  and  C_13 
REMARK    4  A    between atoms: C_13  and  C_15 
REMARK    5  A    between atoms: C_18  and  N_19 
ROOT
ATOM      1  C   UNL d   1      28.902 -14.447   1.715  0.00  0.00     0.036 A 
ATOM      2  C   UNL d   1      29.614 -13.701   0.785  0.00  0.00     0.029 A 
ATOM      3  C   UNL d   1      29.143 -13.614  -0.535  0.00  0.00     0.004 A 
ATOM      4  C   UNL d   1      27.968 -14.284  -0.933  0.00  0.00     0.029 A 
ATOM      5  C   UNL d   1      27.247 -15.030  -0.002  0.00  0.00     0.037 A 
ATOM      6  C   UNL d   1      27.756 -15.112   1.291  0.00  0.00     0.059 A 
ENDROOT
BRANCH   5   7
ATOM      7  N   UNL d   1      26.009 -15.648  -0.335  0.00  0.00    -0.323 N 
ATOM      8  C   UNL d   1      25.747 -17.006  -0.170  0.00  0.00     0.256 C 
ATOM      9  O   UNL d   1      26.502 -17.876   0.272  0.00  0.00    -0.267 OA
ATOM     10  H   UNL d   1      25.256 -15.037  -0.623  0.00  0.00     0.169 HD
BRANCH   8  11
ATOM     11  C   UNL d   1      24.425 -17.531  -0.542  0.00  0.00     0.032 A 
ATOM     12  C   UNL d   1      23.397 -16.596  -0.774  0.00  0.00     0.019 A 
ATOM     13  C   UNL d   1      22.075 -17.014  -0.895  0.00  0.00     0.037 A 
ATOM     14  C   UNL d   1      21.795 -18.384  -0.858  0.00  0.00     0.102 A 
ATOM     15  C   UNL d   1      22.816 -19.321  -0.617  0.00  0.00     0.037 A 
ATOM     16  C   UNL d   1      24.135 -18.892  -0.450  0.00  0.00     0.019 A 
BRANCH  14  17
ATOM     17  N   UNL d   1      20.431 -18.849  -1.134  0.00  0.00    -0.116 N 
ATOM     18  O   UNL d   1      20.288 -20.006  -1.554  0.00  0.00    -0.532 OA
ATOM     19  O   UNL d   1      19.500 -18.066  -0.895  0.00  0.00    -0.532 OA
ENDBRANCH  14  17
ENDBRANCH   8  11
ENDBRANCH   5   7
BRANCH   1  20
ATOM     20  N   UNL d   1      29.230 -14.470   3.093  0.00  0.00    -0.327 N 
ATOM     21  C   UNL d   1      28.516 -13.747   4.047  0.00  0.00     0.225 C 
ATOM     22  O   UNL d   1      27.442 -13.187   3.820  0.00  0.00    -0.273 OA
ATOM     23  H   UNL d   1      30.025 -15.028   3.367  0.00  0.00     0.169 HD
BRANCH  21  24
ATOM     24  C   UNL d   1      29.109 -13.710   5.455  0.00  0.00     0.070 C 
ATOM     25  C   UNL d   1      28.778 -12.354   6.103  0.00  0.00     0.019 C 
ATOM     26  C   UNL d   1      28.530 -14.825   6.313  0.00  0.00     0.019 C 
ENDBRANCH  21  24
ENDBRANCH   1  20
TORSDOF 5
ENDMDL
MODEL 3
REMARK VINA RESULT:    -7.758      2.829      9.031
REMARK INTER + INTRA:         -10.065
REMARK INTER:                  -9.250
REMARK INTRA:                  -0.815
REMARK CONF_INDEPENDENT:        1.492
REMARK UNBOUND:                -0.815
REMARK  5 active torsions:
REMARK  status: ('A' for Active; 'I' for Inactive)
REMARK    1  A    between atoms: C_2  and  C_4 
REMARK       I    between atoms: C_4  and  N_6 
REMARK    2  A    between atoms: N_6  and  C_7 
REMARK    3  A    between atoms: C_11  and  N_12 
REMARK       I    between atoms: N_12  and  C_13 
REMARK    4  A    between atoms: C_13  and  C_15 
REMARK    5  A    between atoms: C_18  and  N_19 
ROOT
ATOM      1  C   UNL d   1      23.922 -17.820  -0.143  0.00  0.00     0.036 A 
ATOM      2  C   UNL d   1      25.026 -18.576   0.229  0.00  0.00     0.029 A 
ATOM      3  C   UNL d   1      26.316 -18.092  -0.045  0.00  0.00     0.004 A 
ATOM      4  C   UNL d   1      26.505 -16.860  -0.704  0.00  0.00     0.029 A 
ATOM      5  C   UNL d   1      25.399 -16.096  -1.075  0.00  0.00     0.037 A 
ATOM      6  C   UNL d   1      24.137 -16.618  -0.807  0.00  0.00     0.059 A 
ENDROOT
BRANCH   5   7
ATOM      7  N   UNL d   1      25.543 -14.806  -1.659  0.00  0.00    -0.323 N 
ATOM      8  C   UNL d   1      25.572 -14.572  -3.031  0.00  0.00     0.256 C 
ATOM      9  O   UNL d   1      25.484 -15.398  -3.943  0.00  0.00    -0.267 OA
ATOM     10  H   UNL d   1      25.532 -14.015  -1.028  0.00  0.00     0.169 HD
BRANCH   8  11
ATOM     11  C   UNL d   1      25.716 -13.194  -3.520  0.00  0.00     0.032 A 
ATOM     12  C   UNL d   1      25.554 -12.976  -4.904  0.00  0.00     0.019 A 
ATOM     13  C   UNL d   1      25.905 -11.755  -5.473  0.00  0.00     0.037 A 
ATOM     14  C   UNL d   1      26.349 -10.725  -4.638  0.00  0.00     0.102 A 
ATOM     15  C   UNL d   1      26.522 -10.939  -3.259  0.00  0.00     0.037 A 
ATOM     16  C   UNL d   1      26.212 -12.182  -2.699  0.00  0.00     0.019 A 
BRANCH  14  17
ATOM     17  N   UNL d   1      26.578  -9.389  -5.202  0.00  0.00    -0.116 N 
ATOM     18  O   UNL d   1      27.005  -8.507  -4.443  0.00  0.00    -0.532 OA
ATOM     19  O   UNL d   1      26.366  -9.235  -6.413  0.00  0.00    -0.532 OA
ENDBRANCH  14  17
ENDBRANCH   8  11
ENDBRANCH   5   7
BRANCH   1  20
ATOM     20  N   UNL d   1      22.597 -18.168   0.221  0.00  0.00    -0.327 N 
ATOM     21  C   UNL d   1      21.728 -18.824  -0.648  0.00  0.00     0.225 C 
ATOM     22  O   UNL d   1      22.076 -19.324  -1.719  0.00  0.00    -0.273 OA
ATOM     23  H   UNL d   1      22.291 -17.907   1.147  0.00  0.00     0.169 HD
BRANCH  21  24
ATOM     24  C   UNL d   1      20.276 -18.950  -0.189  0.00  0.00     0.070 C 
ATOM     25  C   UNL d   1      19.472 -19.700  -1.265  0.00  0.00     0.019 C 
ATOM     26  C   UNL d   1      20.190 -19.721   1.121  0.00  0.00     0.019 C 
ENDBRANCH  21  24
ENDBRANCH   1  20
TORSDOF 5
ENDMDL
MODEL 4
REMARK VINA RESULT:    -7.422      2.212      3.646
REMARK INTER + INTRA:          -9.637
REMARK INTER:                  -8.914
REMARK INTRA:                  -0.723
REMARK CONF_INDEPENDENT:        1.492
REMARK UNBOUND:                -0.723
REMARK  5 active torsions:
REMARK  status: ('A' for Active; 'I' for Inactive)
REMARK    1  A    between atoms: C_2  and  C_4 
REMARK       I    between atoms: C_4  and  N_6 
REMARK    2  A    between atoms: N_6  and  C_7 
REMARK    3  A    between atoms: C_11  and  N_12 
REMARK       I    between atoms: N_12  and  C_13 
REMARK    4  A    between atoms: C_13  and  C_15 
REMARK    5  A    between atoms: C_18  and  N_19 
ROOT
ATOM      1  C   UNL d   1      27.674 -16.920  -0.734  0.00  0.00     0.036 A 
ATOM      2  C   UNL d   1      27.519 -15.563  -0.989  0.00  0.00     0.029 A 
ATOM      3  C   UNL d   1      26.226 -15.032  -1.125  0.00  0.00     0.004 A 
ATOM      4  C   UNL d   1      25.086 -15.856  -1.022  0.00  0.00     0.029 A 
ATOM      5  C   UNL d   1      25.238 -17.218  -0.762  0.00  0.00     0.037 A 
ATOM      6  C   UNL d   1      26.535 -17.712  -0.655  0.00  0.00     0.059 A 
ENDROOT
BRANCH   5   7
ATOM      7  N   UNL d   1      24.116 -18.070  -0.560  0.00  0.00    -0.323 N 
ATOM      8  C   UNL d   1      22.821 -17.613  -0.334  0.00  0.00     0.256 C 
ATOM      9  O   UNL d   1      22.430 -16.444  -0.270  0.00  0.00    -0.267 OA
ATOM     10  H   UNL d   1      24.269 -19.064  -0.680  0.00  0.00     0.169 HD
BRANCH   8  11
ATOM     11  C   UNL d   1      21.738 -18.588  -0.147  0.00  0.00     0.032 A 
ATOM     12  C   UNL d   1      21.007 -18.973  -1.290  0.00  0.00     0.019 A 
ATOM     13  C   UNL d   1      19.828 -19.701  -1.163  0.00  0.00     0.037 A 
ATOM     14  C   UNL d   1      19.421 -20.108   0.111  0.00  0.00     0.102 A 
ATOM     15  C   UNL d   1      20.141 -19.720   1.255  0.00  0.00     0.037 A 
ATOM     16  C   UNL d   1      21.299 -18.949   1.126  0.00  0.00     0.019 A 
BRANCH  14  17
ATOM     17  N   UNL d   1      18.265 -21.002   0.247  0.00  0.00    -0.116 N 
ATOM     18  O   UNL d   1      17.306 -20.827  -0.519  0.00  0.00    -0.532 OA
ATOM     19  O   UNL d   1      18.333 -21.902   1.096  0.00  0.00    -0.532 OA
ENDBRANCH  14  17
ENDBRANCH   8  11
ENDBRANCH   5   7
BRANCH   1  20
ATOM     20  N   UNL d   1      28.931 -17.505  -0.444  0.00  0.00    -0.327 N 
ATOM     21  C   UNL d   1      29.943 -17.621  -1.395  0.00  0.00     0.225 C 
ATOM     22  O   UNL d   1      29.915 -17.068  -2.495  0.00  0.00    -0.273 OA
ATOM     23  H   UNL d   1      29.069 -17.858   0.493  0.00  0.00     0.169 HD
BRANCH  21  24
ATOM     24  C   UNL d   1      31.160 -18.453  -0.994  0.00  0.00     0.070 C 
ATOM     25  C   UNL d   1      31.599 -19.312  -2.192  0.00  0.00     0.019 C 
ATOM     26  C   UNL d   1      32.315 -17.553  -0.579  0.00  0.00     0.019 C 
ENDBRANCH  21  24
ENDBRANCH   1  20
TORSDOF 5
ENDMDL
MODEL 5
REMARK VINA RESULT:    -7.375      2.700      8.893
REMARK INTER + INTRA:          -9.682
REMARK INTER:                  -8.867
REMARK INTRA:                  -0.815
REMARK CONF_INDEPENDENT:        1.492
REMARK UNBOUND:                -0.815
REMARK  5 active torsions:
REMARK  status: ('A' for Active; 'I' for Inactive)
REMARK    1  A    between atoms: C_2  and  C_4 
REMARK       I    between atoms: C_4  and  N_6 
REMARK    2  A    between atoms: N_6  and  C_7 
REMARK    3  A    between atoms: C_11  and  N_12 
REMARK       I    between atoms: N_12  and  C_13 
REMARK    4  A    between atoms: C_13  and  C_15 
REMARK    5  A    between atoms: C_18  and  N_19 
ROOT
ATOM      1  C   UNL d   1      24.602 -17.801  -0.171  0.00  0.00     0.036 A 
ATOM      2  C   UNL d   1      25.593 -18.207   0.712  0.00  0.00     0.029 A 
ATOM      3  C   UNL d   1      26.915 -17.777   0.509  0.00  0.00     0.004 A 
ATOM      4  C   UNL d   1      27.252 -16.954  -0.585  0.00  0.00     0.029 A 
ATOM      5  C   UNL d   1      26.258 -16.540  -1.472  0.00  0.00     0.037 A 
ATOM      6  C   UNL d   1      24.965 -17.004  -1.251  0.00  0.00     0.059 A 
ENDROOT
BRANCH   5   7
ATOM      7  N   UNL d   1      26.535 -15.637  -2.537  0.00  0.00    -0.323 N 
ATOM      8  C   UNL d   1      25.567 -14.865  -3.173  0.00  0.00     0.256 C 
ATOM      9  O   UNL d   1      24.356 -14.825  -2.942  0.00  0.00    -0.267 OA
ATOM     10  H   UNL d   1      27.508 -15.493  -2.772  0.00  0.00     0.169 HD
BRANCH   8  11
ATOM     11  C   UNL d   1      25.972 -13.958  -4.257  0.00  0.00     0.032 A 
ATOM     12  C   UNL d   1      26.995 -14.396  -5.122  0.00  0.00     0.019 A 
ATOM     13  C   UNL d   1      27.593 -13.512  -6.015  0.00  0.00     0.037 A 
ATOM     14  C   UNL d   1      27.110 -12.202  -6.091  0.00  0.00     0.102 A 
ATOM     15  C   UNL d   1      26.096 -11.756  -5.225  0.00  0.00     0.037 A 
ATOM     16  C   UNL d   1      25.531 -12.636  -4.297  0.00  0.00     0.019 A 
BRANCH  14  17
ATOM     17  N   UNL d   1      27.626 -11.303  -7.130  0.00  0.00    -0.116 N 
ATOM     18  O   UNL d   1      28.228 -10.282  -6.765  0.00  0.00    -0.532 OA
ATOM     19  O   UNL d   1      27.462 -11.639  -8.312  0.00  0.00    -0.532 OA
ENDBRANCH  14  17
ENDBRANCH   8  11
ENDBRANCH   5   7
BRANCH   1  20
ATOM     20  N   UNL d   1      23.228 -18.072   0.042  0.00  0.00    -0.327 N 
ATOM     21  C   UNL d   1      22.442 -18.746  -0.891  0.00  0.00     0.225 C 
ATOM     22  O   UNL d   1      22.896 -19.325  -1.878  0.00  0.00    -0.273 OA
ATOM     23  H   UNL d   1      22.823 -17.742   0.906  0.00  0.00     0.169 HD
BRANCH  21  24
ATOM     24  C   UNL d   1      20.940 -18.785  -0.611  0.00  0.00     0.070 C 
ATOM     25  C   UNL d   1      20.261 -19.700  -1.645  0.00  0.00     0.019 C 
ATOM     26  C   UNL d   1      20.665 -19.325   0.785  0.00  0.00     0.019 C 
ENDBRANCH  21  24
ENDBRANCH   1  20
TORSDOF 5
ENDMDL
MODEL 6
REMARK VINA RESULT:    -7.107      2.937      3.814
REMARK INTER + INTRA:          -9.334
REMARK INTER:                  -8.598
REMARK INTRA:                  -0.735
REMARK CONF_INDEPENDENT:        1.492
REMARK UNBOUND:                -0.735
REMARK  5 active torsions:
REMARK  status: ('A' for Active; 'I' for Inactive)
REMARK    1  A    between atoms: C_2  and  C_4 
REMARK       I    between atoms: C_4  and  N_6 
REMARK    2  A    between atoms: N_6  and  C_7 
REMARK    3  A    between atoms: C_11  and  N_12 
REMARK       I    between atoms: N_12  and  C_13 
REMARK    4  A    between atoms: C_13  and  C_15 
REMARK    5  A    between atoms: C_18  and  N_19 
ROOT
ATOM      1  C   UNL d   1      29.288 -15.069  -3.348  0.00  0.00     0.036 A 
ATOM      2  C   UNL d   1      30.295 -15.404  -2.452  0.00  0.00     0.029 A 
ATOM      3  C   UNL d   1      29.980 -16.168  -1.316  0.00  0.00     0.004 A 
ATOM      4  C   UNL d   1      28.658 -16.586  -1.065  0.00  0.00     0.029 A 
ATOM      5  C   UNL d   1      27.644 -16.256  -1.964  0.00  0.00     0.037 A 
ATOM      6  C   UNL d   1      27.990 -15.480  -3.067  0.00  0.00     0.059 A 
ENDROOT
BRANCH   5   7
ATOM      7  N   UNL d   1      26.313 -16.733  -1.800  0.00  0.00    -0.323 N 
ATOM      8  C   UNL d   1      25.734 -17.013  -0.565  0.00  0.00     0.256 C 
ATOM      9  O   UNL d   1      26.243 -16.904   0.553  0.00  0.00    -0.267 OA
ATOM     10  H   UNL d   1      25.738 -16.780  -2.632  0.00  0.00     0.169 HD
BRANCH   8  11
ATOM     11  C   UNL d   1      24.345 -17.492  -0.517  0.00  0.00     0.032 A 
ATOM     12  C   UNL d   1      24.141 -18.885  -0.456  0.00  0.00     0.019 A 
ATOM     13  C   UNL d   1      22.872 -19.423  -0.645  0.00  0.00     0.037 A 
ATOM     14  C   UNL d   1      21.791 -18.554  -0.822  0.00  0.00     0.102 A 
ATOM     15  C   UNL d   1      21.989 -17.163  -0.893  0.00  0.00     0.037 A 
ATOM     16  C   UNL d   1      23.273 -16.631  -0.749  0.00  0.00     0.019 A 
BRANCH  14  17
ATOM     17  N   UNL d   1      20.429 -19.098  -0.872  0.00  0.00    -0.116 N 
ATOM     18  O   UNL d   1      19.572 -18.581  -0.140  0.00  0.00    -0.532 OA
ATOM     19  O   UNL d   1      20.209 -20.019  -1.671  0.00  0.00    -0.532 OA
ENDBRANCH  14  17
ENDBRANCH   8  11
ENDBRANCH   5   7
BRANCH   1  20
ATOM     20  N   UNL d   1      29.545 -14.426  -4.584  0.00  0.00    -0.327 N 
ATOM     21  C   UNL d   1      28.895 -14.782  -5.764  0.00  0.00     0.225 C 
ATOM     22  O   UNL d   1      27.923 -15.536  -5.811  0.00  0.00    -0.273 OA
ATOM     23  H   UNL d   1      30.240 -13.694  -4.586  0.00  0.00     0.169 HD
BRANCH  21  24
ATOM     24  C   UNL d   1      29.421 -14.141  -7.048  0.00  0.00     0.070 C 
ATOM     25  C   UNL d   1      28.913 -12.691  -7.130  0.00  0.00     0.019 C 
ATOM     26  C   UNL d   1      30.943 -14.135  -7.064  0.00  0.00     0.019 C 
ENDBRANCH  21  24
ENDBRANCH   1  20
TORSDOF 5
ENDMDL
MODEL 7
REMARK VINA RESULT:    -6.979      3.476      4.471
REMARK INTER + INTRA:          -9.302
REMARK INTER:                  -8.470
REMARK INTRA:                  -0.832
REMARK CONF_INDEPENDENT:        1.492
REMARK UNBOUND:                -0.832
REMARK  5 active torsions:
REMARK  status: ('A' for Active; 'I' for Inactive)
REMARK    1  A    between atoms: C_2  and  C_4 
REMARK       I    between atoms: C_4  and  N_6 
REMARK    2  A    between atoms: N_6  and  C_7 
REMARK    3  A    between atoms: C_11  and  N_12 
REMARK       I    between atoms: N_12  and  C_13 
REMARK    4  A    between atoms: C_13  and  C_15 
REMARK    5  A    between atoms: C_18  and  N_19 
ROOT
ATOM      1  C   UNL d   1      29.895 -15.890  -2.522  0.00  0.00     0.036 A 
ATOM      2  C   UNL d   1      30.439 -15.063  -1.548  0.00  0.00     0.029 A 
ATOM      3  C   UNL d   1      29.618 -14.587  -0.512  0.00  0.00     0.004 A 
ATOM      4  C   UNL d   1      28.251 -14.925  -0.455  0.00  0.00     0.029 A 
ATOM      5  C   UNL d   1      27.702 -15.759  -1.428  0.00  0.00     0.037 A 
ATOM      6  C   UNL d   1      28.540 -16.193  -2.451  0.00  0.00     0.059 A 
ENDROOT
BRANCH   5   7
ATOM      7  N   UNL d   1      26.350 -16.200  -1.361  0.00  0.00    -0.323 N 
ATOM      8  C   UNL d   1      25.887 -17.156  -0.461  0.00  0.00     0.256 C 
ATOM      9  O   UNL d   1      26.531 -17.764   0.397  0.00  0.00    -0.267 OA
ATOM     10  H   UNL d   1      25.682 -15.715  -1.946  0.00  0.00     0.169 HD
BRANCH   8  11
ATOM     11  C   UNL d   1      24.464 -17.526  -0.477  0.00  0.00     0.032 A 
ATOM     12  C   UNL d   1      24.151 -18.900  -0.503  0.00  0.00     0.019 A 
ATOM     13  C   UNL d   1      22.850 -19.324  -0.756  0.00  0.00     0.037 A 
ATOM     14  C   UNL d   1      21.846 -18.363  -0.910  0.00  0.00     0.102 A 
ATOM     15  C   UNL d   1      22.153 -16.991  -0.895  0.00  0.00     0.037 A 
ATOM     16  C   UNL d   1      23.470 -16.571  -0.687  0.00  0.00     0.019 A 
BRANCH  14  17
ATOM     17  N   UNL d   1      20.448 -18.795  -1.027  0.00  0.00    -0.116 N 
ATOM     18  O   UNL d   1      19.565 -17.935  -0.895  0.00  0.00    -0.532 OA
ATOM     19  O   UNL d   1      20.237 -19.987  -1.288  0.00  0.00    -0.532 OA
ENDBRANCH  14  17
ENDBRANCH   8  11
ENDBRANCH   5   7
BRANCH   1  20
ATOM     20  N   UNL d   1      30.682 -16.524  -3.516  0.00  0.00    -0.327 N 
ATOM     21  C   UNL d   1      30.267 -16.639  -4.841  0.00  0.00     0.225 C 
ATOM     22  O   UNL d   1      29.292 -16.050  -5.308  0.00  0.00    -0.273 OA
ATOM     23  H   UNL d   1      31.568 -16.910  -3.223  0.00  0.00     0.169 HD
BRANCH  21  24
ATOM     24  C   UNL d   1      31.126 -17.521  -5.747  0.00  0.00     0.070 C 
ATOM     25  C   UNL d   1      30.875 -18.998  -5.395  0.00  0.00     0.019 C 
ATOM     26  C   UNL d   1      30.776 -17.294  -7.210  0.00  0.00     0.019 C 
ENDBRANCH  21  24
ENDBRANCH   1  20
TORSDOF 5
ENDMDL
MODEL 8
REMARK VINA RESULT:    -6.864      4.941      6.993
REMARK INTER + INTRA:          -9.128
REMARK INTER:                  -8.355
REMARK INTRA:                  -0.773
REMARK CONF_INDEPENDENT:        1.492
REMARK UNBOUND:                -0.773
REMARK  5 active torsions:
REMARK  status: ('A' for Active; 'I' for Inactive)
REMARK    1  A    between atoms: C_2  and  C_4 
REMARK       I    between atoms: C_4  and  N_6 
REMARK    2  A    between atoms: N_6  and  C_7 
REMARK    3  A    between atoms: C_11  and  N_12 
REMARK       I    between atoms: N_12  and  C_13 
REMARK    4  A    between atoms: C_13  and  C_15 
REMARK    5  A    between atoms: C_18  and  N_19 
ROOT
ATOM      1  C   UNL d   1      29.656 -13.895   3.433  0.00  0.00     0.036 A 
ATOM      2  C   UNL d   1      30.422 -13.082   2.609  0.00  0.00     0.029 A 
ATOM      3  C   UNL d   1      30.082 -12.961   1.251  0.00  0.00     0.004 A 
ATOM      4  C   UNL d   1      28.984 -13.662   0.712  0.00  0.00     0.029 A 
ATOM      5  C   UNL d   1      28.209 -14.475   1.538  0.00  0.00     0.037 A 
ATOM      6  C   UNL d   1      28.590 -14.588   2.872  0.00  0.00     0.059 A 
ENDROOT
BRANCH   5   7
ATOM      7  N   UNL d   1      27.039 -15.130   1.058  0.00  0.00    -0.323 N 
ATOM      8  C   UNL d   1      27.057 -16.228   0.202  0.00  0.00     0.256 C 
ATOM      9  O   UNL d   1      28.040 -16.803  -0.273  0.00  0.00    -0.267 OA
ATOM     10  H   UNL d   1      26.154 -14.824   1.442  0.00  0.00     0.169 HD
BRANCH   8  11
ATOM     11  C   UNL d   1      25.784 -16.828  -0.220  0.00  0.00     0.032 A 
ATOM     12  C   UNL d   1      24.899 -16.020  -0.962  0.00  0.00     0.019 A 
ATOM     13  C   UNL d   1      23.590 -16.431  -1.193  0.00  0.00     0.037 A 
ATOM     14  C   UNL d   1      23.190 -17.692  -0.741  0.00  0.00     0.102 A 
ATOM     15  C   UNL d   1      24.065 -18.500   0.007  0.00  0.00     0.037 A 
ATOM     16  C   UNL d   1      25.365 -18.062   0.276  0.00  0.00     0.019 A 
BRANCH  14  17
ATOM     17  N   UNL d   1      21.863 -18.202  -1.106  0.00  0.00    -0.116 N 
ATOM     18  O   UNL d   1      20.886 -17.466  -0.904  0.00  0.00    -0.532 OA
ATOM     19  O   UNL d   1      21.804 -19.323  -1.630  0.00  0.00    -0.532 OA
ENDBRANCH  14  17
ENDBRANCH   8  11
ENDBRANCH   5   7
BRANCH   1  20
ATOM     20  N   UNL d   1      29.846 -13.960   4.836  0.00  0.00    -0.327 N 
ATOM     21  C   UNL d   1      28.793 -13.848   5.742  0.00  0.00     0.225 C 
ATOM     22  O   UNL d   1      27.605 -13.875   5.419  0.00  0.00    -0.273 OA
ATOM     23  H   UNL d   1      30.792 -14.078   5.166  0.00  0.00     0.169 HD
BRANCH  21  24
ATOM     24  C   UNL d   1      29.176 -13.734   7.217  0.00  0.00     0.070 C 
ATOM     25  C   UNL d   1      30.661 -13.348   7.322  0.00  0.00     0.019 C 
ATOM     26  C   UNL d   1      28.337 -12.671   7.911  0.00  0.00     0.019 C 
ENDBRANCH  21  24
ENDBRANCH   1  20
TORSDOF 5
ENDMDL
MODEL 9
REMARK VINA RESULT:    -6.733      3.555      5.452
REMARK INTER + INTRA:          -9.041
REMARK INTER:                  -8.224
REMARK INTRA:                  -0.817
REMARK CONF_INDEPENDENT:        1.492
REMARK UNBOUND:                -0.817
REMARK  5 active torsions:
REMARK  status: ('A' for Active; 'I' for Inactive)
REMARK    1  A    between atoms: C_2  and  C_4 
REMARK       I    between atoms: C_4  and  N_6 
REMARK    2  A    between atoms: N_6  and  C_7 
REMARK    3  A    between atoms: C_11  and  N_12 
REMARK       I    between atoms: N_12  and  C_13 
REMARK    4  A    between atoms: C_13  and  C_15 
REMARK    5  A    between atoms: C_18  and  N_19 
ROOT
ATOM      1  C   UNL d   1      30.100 -16.297  -0.555  0.00  0.00     0.036 A 
ATOM      2  C   UNL d   1      30.489 -15.179  -1.280  0.00  0.00     0.029 A 
ATOM      3  C   UNL d   1      29.540 -14.499  -2.061  0.00  0.00     0.004 A 
ATOM      4  C   UNL d   1      28.204 -14.944  -2.130  0.00  0.00     0.029 A 
ATOM      5  C   UNL d   1      27.807 -16.063  -1.399  0.00  0.00     0.037 A 
ATOM      6  C   UNL d   1      28.781 -16.723  -0.655  0.00  0.00     0.059 A 
ENDROOT
BRANCH   5   7
ATOM      7  N   UNL d   1      26.451 -16.494  -1.366  0.00  0.00    -0.323 N 
ATOM      8  C   UNL d   1      25.866 -17.141  -0.282  0.00  0.00     0.256 C 
ATOM      9  O   UNL d   1      26.389 -17.444   0.794  0.00  0.00    -0.267 OA
ATOM     10  H   UNL d   1      25.868 -16.228  -2.149  0.00  0.00     0.169 HD
BRANCH   8  11
ATOM     11  C   UNL d   1      24.451 -17.533  -0.358  0.00  0.00     0.032 A 
ATOM     12  C   UNL d   1      24.162 -18.910  -0.440  0.00  0.00     0.019 A 
ATOM     13  C   UNL d   1      22.878 -19.345  -0.752  0.00  0.00     0.037 A 
ATOM     14  C   UNL d   1      21.863 -18.396  -0.907  0.00  0.00     0.102 A 
ATOM     15  C   UNL d   1      22.147 -17.020  -0.836  0.00  0.00     0.037 A 
ATOM     16  C   UNL d   1      23.449 -16.587  -0.569  0.00  0.00     0.019 A 
BRANCH  14  17
ATOM     17  N   UNL d   1      20.477 -18.845  -1.086  0.00  0.00    -0.116 N 
ATOM     18  O   UNL d   1      19.583 -18.199  -0.520  0.00  0.00    -0.532 OA
ATOM     19  O   UNL d   1      20.282 -19.821  -1.823  0.00  0.00    -0.532 OA
ENDBRANCH  14  17
ENDBRANCH   8  11
ENDBRANCH   5   7
BRANCH   1  20
ATOM     20  N   UNL d   1      30.959 -16.951   0.363  0.00  0.00    -0.327 N 
ATOM     21  C   UNL d   1      32.137 -17.582  -0.031  0.00  0.00     0.225 C 
ATOM     22  O   UNL d   1      32.633 -17.470  -1.152  0.00  0.00    -0.273 OA
ATOM     23  H   UNL d   1      30.676 -16.959   1.332  0.00  0.00     0.169 HD
BRANCH  21  24
ATOM     24  C   UNL d   1      32.850 -18.415   1.035  0.00  0.00     0.070 C 
ATOM     25  C   UNL d   1      32.581 -17.797   2.418  0.00  0.00     0.019 C 
ATOM     26  C   UNL d   1      32.344 -19.850   1.025  0.00  0.00     0.019 C 
ENDBRANCH  21  24
ENDBRANCH   1  20
TORSDOF 5
ENDMDL
