MODEL 1
REMARK VINA RESULT:    -9.484      0.000      0.000
REMARK INTER + INTRA:         -12.409
REMARK INTER:                 -10.975
REMARK INTRA:                  -1.434
REMARK CONF_INDEPENDENT:        1.492
REMARK UNBOUND:                -1.434
REMARK  5 active torsions:
REMARK  status: ('A' for Active; 'I' for Inactive)
REMARK    1  A    between atoms: C_7  and  N_8 
REMARK       I    between atoms: N_8  and  C_9 
REMARK       I    between atoms: C_9  and  N_11 
REMARK    2  A    between atoms: N_11  and  C_12 
REMARK    3  A    between atoms: C_14  and  N_15 
REMARK       I    between atoms: N_15  and  C_16 
REMARK    4  A    between atoms: C_16  and  C_18 
REMARK    5  A    between atoms: C_27  and  N_28 
ROOT
ATOM      1  C   UNL d   1      26.301 -13.370  -5.020  0.00  0.00     0.065 A 
ATOM      2  C   UNL d   1      27.103 -14.403  -5.585  0.00  0.00     0.061 A 
ATOM      3  C   UNL d   1      28.160 -14.095  -6.479  0.00  0.00     0.037 A 
ATOM      4  C   UNL d   1      28.302 -12.777  -6.894  0.00  0.00     0.032 A 
ATOM      5  C   UNL d   1      27.531 -11.768  -6.350  0.00  0.00     0.034 A 
ATOM      6  C   UNL d   1      26.537 -12.024  -5.402  0.00  0.00     0.057 A 
ENDROOT
BRANCH   1   7
ATOM      7  N   UNL d   1      25.278 -13.667  -4.045  0.00  0.00    -0.306 N 
ATOM      8  C   UNL d   1      25.514 -14.648  -3.087  0.00  0.00     0.325 C 
ATOM      9  N   UNL d   1      24.396 -15.113  -2.394  0.00  0.00    -0.309 N 
ATOM     10  O   UNL d   1      26.655 -15.077  -2.889  0.00  0.00    -0.247 OA
ATOM     11  H   UNL d   1      23.554 -14.556  -2.397  0.00  0.00     0.170 HD
ATOM     12  H   UNL d   1      24.570 -12.972  -3.873  0.00  0.00     0.170 HD
BRANCH   9  13
ATOM     13  C   UNL d   1      24.426 -16.261  -1.527  0.00  0.00     0.037 A 
ATOM     14  C   UNL d   1      25.607 -16.664  -0.891  0.00  0.00     0.036 A 
ATOM     15  C   UNL d   1      25.630 -17.814  -0.058  0.00  0.00    -0.059 A 
ATOM     16  C   UNL d   1      24.458 -18.560   0.145  0.00  0.00     0.013 A 
ATOM     17  C   UNL d   1      26.907 -18.250   0.605  0.00  0.00     0.048 C 
ATOM     18  C   UNL d   1      23.272 -18.162  -0.456  0.00  0.00    -0.059 A 
ATOM     19  C   UNL d   1      21.979 -18.903  -0.278  0.00  0.00     0.048 C 
ATOM     20  C   UNL d   1      23.277 -17.021  -1.267  0.00  0.00     0.036 A 
ENDBRANCH   9  13
ENDBRANCH   1   7
BRANCH   6  21
ATOM     21  N   UNL d   1      25.905 -10.915  -4.876  0.00  0.00    -0.379 N 
ATOM     22  C   UNL d   1      25.294  -9.955  -5.788  0.00  0.00     0.123 C 
ATOM     23  C   UNL d   1      25.798  -8.574  -5.394  0.00  0.00     0.020 C 
ATOM     24  C   UNL d   1      25.537  -8.306  -3.905  0.00  0.00     0.003 C 
ATOM     25  C   UNL d   1      26.053  -9.442  -3.010  0.00  0.00     0.020 C 
ATOM     26  C   UNL d   1      25.530 -10.794  -3.483  0.00  0.00     0.123 C 
ENDBRANCH   6  21
BRANCH   3  27
ATOM     27  N   UNL d   1      29.100 -15.080  -6.906  0.00  0.00    -0.323 N 
ATOM     28  C   UNL d   1      29.692 -16.034  -6.074  0.00  0.00     0.257 C 
ATOM     29  O   UNL d   1      29.519 -16.166  -4.858  0.00  0.00    -0.267 OA
ATOM     30  H   UNL d   1      29.294 -15.134  -7.900  0.00  0.00     0.169 HD
BRANCH  28  31
ATOM     31  C   UNL d   1      30.609 -17.037  -6.657  0.00  0.00     0.054 A 
ATOM     32  C   UNL d   1      30.406 -18.383  -6.274  0.00  0.00     0.019 A 
ATOM     33  C   UNL d   1      31.345 -19.365  -6.586  0.00  0.00     0.001 A 
ATOM     34  C   UNL d   1      32.464 -19.026  -7.337  0.00  0.00     0.002 A 
ATOM     35  C   UNL d   1      32.665 -17.701  -7.733  0.00  0.00     0.025 A 
ATOM     36  C   UNL d   1      31.748 -16.702  -7.390  0.00  0.00     0.049 A 
ATOM     37 CL   UNL d   1      32.126 -15.088  -7.870  0.00  0.00    -0.083 Cl
ENDBRANCH  28  31
ENDBRANCH   3  27
TORSDOF 5
ENDMDL
MODEL 2
REMARK VINA RESULT:    -9.414      0.099      1.478
REMARK INTER + INTRA:         -12.349
REMARK INTER:                 -10.905
REMARK INTRA:                  -1.444
REMARK CONF_INDEPENDENT:        1.492
REMARK UNBOUND:                -1.444
REMARK  5 active torsions:
REMARK  status: ('A' for Active; 'I' for Inactive)
REMARK    1  A    between atoms: C_7  and  N_8 
REMARK       I    between atoms: N_8  and  C_9 
REMARK       I    between atoms: C_9  and  N_11 
REMARK    2  A    between atoms: N_11  and  C_12 
REMARK    3  A    between atoms: C_14  and  N_15 
REMARK       I    between atoms: N_15  and  C_16 
REMARK    4  A    between atoms: C_16  and  C_18 
REMARK    5  A    between atoms: C_27  and  N_28 
ROOT
ATOM      1  C   UNL d   1      26.303 -13.301  -5.020  0.00  0.00     0.065 A 
ATOM      2  C   UNL d   1      27.104 -14.335  -5.584  0.00  0.00     0.061 A 
ATOM      3  C   UNL d   1      28.160 -14.029  -6.480  0.00  0.00     0.037 A 
ATOM      4  C   UNL d   1      28.301 -12.712  -6.899  0.00  0.00     0.032 A 
ATOM      5  C   UNL d   1      27.530 -11.702  -6.357  0.00  0.00     0.034 A 
ATOM      6  C   UNL d   1      26.537 -11.956  -5.408  0.00  0.00     0.057 A 
ENDROOT
BRANCH   1   7
ATOM      7  N   UNL d   1      25.281 -13.595  -4.043  0.00  0.00    -0.306 N 
ATOM      8  C   UNL d   1      25.514 -14.582  -3.090  0.00  0.00     0.325 C 
ATOM      9  N   UNL d   1      24.396 -15.042  -2.396  0.00  0.00    -0.309 N 
ATOM     10  O   UNL d   1      26.653 -15.019  -2.898  0.00  0.00    -0.247 OA
ATOM     11  H   UNL d   1      23.557 -14.480  -2.393  0.00  0.00     0.170 HD
ATOM     12  H   UNL d   1      24.578 -12.897  -3.866  0.00  0.00     0.170 HD
BRANCH   9  13
ATOM     13  C   UNL d   1      24.421 -16.194  -1.533  0.00  0.00     0.037 A 
ATOM     14  C   UNL d   1      23.262 -16.935  -1.271  0.00  0.00     0.036 A 
ATOM     15  C   UNL d   1      23.294 -18.054  -0.398  0.00  0.00    -0.059 A 
ATOM     16  C   UNL d   1      24.499 -18.438   0.210  0.00  0.00     0.013 A 
ATOM     17  C   UNL d   1      22.040 -18.831  -0.107  0.00  0.00     0.048 C 
ATOM     18  C   UNL d   1      25.664 -17.733  -0.057  0.00  0.00    -0.059 A 
ATOM     19  C   UNL d   1      26.991 -18.090   0.547  0.00  0.00     0.048 C 
ATOM     20  C   UNL d   1      25.605 -16.638  -0.928  0.00  0.00     0.036 A 
ENDBRANCH   9  13
ENDBRANCH   1   7
BRANCH   6  21
ATOM     21  N   UNL d   1      25.905 -10.846  -4.884  0.00  0.00    -0.379 N 
ATOM     22  C   UNL d   1      25.205  -9.942  -5.790  0.00  0.00     0.123 C 
ATOM     23  C   UNL d   1      25.689  -8.531  -5.484  0.00  0.00     0.020 C 
ATOM     24  C   UNL d   1      25.517  -8.211  -3.993  0.00  0.00     0.003 C 
ATOM     25  C   UNL d   1      26.126  -9.293  -3.090  0.00  0.00     0.020 C 
ATOM     26  C   UNL d   1      25.617 -10.679  -3.475  0.00  0.00     0.123 C 
ENDBRANCH   6  21
BRANCH   3  27
ATOM     27  N   UNL d   1      29.100 -15.014  -6.905  0.00  0.00    -0.323 N 
ATOM     28  C   UNL d   1      29.658 -15.995  -6.081  0.00  0.00     0.257 C 
ATOM     29  O   UNL d   1      29.451 -16.154  -4.874  0.00  0.00    -0.267 OA
ATOM     30  H   UNL d   1      29.322 -15.046  -7.894  0.00  0.00     0.169 HD
BRANCH  28  31
ATOM     31  C   UNL d   1      30.580 -16.994  -6.663  0.00  0.00     0.054 A 
ATOM     32  C   UNL d   1      30.405 -18.336  -6.251  0.00  0.00     0.019 A 
ATOM     33  C   UNL d   1      31.353 -19.309  -6.563  0.00  0.00     0.001 A 
ATOM     34  C   UNL d   1      32.452 -18.968  -7.342  0.00  0.00     0.002 A 
ATOM     35  C   UNL d   1      32.625 -17.648  -7.766  0.00  0.00     0.025 A 
ATOM     36  C   UNL d   1      31.699 -16.656  -7.423  0.00  0.00     0.049 A 
ATOM     37 CL   UNL d   1      32.042 -15.045  -7.941  0.00  0.00    -0.083 Cl
ENDBRANCH  28  31
ENDBRANCH   3  27
TORSDOF 5
ENDMDL
MODEL 3
REMARK VINA RESULT:    -9.391      3.779      6.809
REMARK INTER + INTRA:         -12.390
REMARK INTER:                 -10.882
REMARK INTRA:                  -1.507
REMARK CONF_INDEPENDENT:        1.492
REMARK UNBOUND:                -1.507
REMARK  5 active torsions:
REMARK  status: ('A' for Active; 'I' for Inactive)
REMARK    1  A    between atoms: C_7  and  N_8 
REMARK       I    between atoms: N_8  and  C_9 
REMARK       I    between atoms: C_9  and  N_11 
REMARK    2  A    between atoms: N_11  and  C_12 
REMARK    3  A    between atoms: C_14  and  N_15 
REMARK       I    between atoms: N_15  and  C_16 
REMARK    4  A    between atoms: C_16  and  C_18 
REMARK    5  A    between atoms: C_27  and  N_28 
ROOT
ATOM      1  C   UNL d   1      27.039 -15.665  -1.506  0.00  0.00     0.065 A 
ATOM      2  C   UNL d   1      27.767 -14.969  -2.513  0.00  0.00     0.061 A 
ATOM      3  C   UNL d   1      27.170 -14.667  -3.763  0.00  0.00     0.037 A 
ATOM      4  C   UNL d   1      25.910 -15.187  -4.030  0.00  0.00     0.032 A 
ATOM      5  C   UNL d   1      25.195 -15.863  -3.059  0.00  0.00     0.034 A 
ATOM      6  C   UNL d   1      25.719 -16.104  -1.787  0.00  0.00     0.057 A 
ENDROOT
BRANCH   1   7
ATOM      7  N   UNL d   1      27.609 -15.904  -0.201  0.00  0.00    -0.306 N 
ATOM      8  C   UNL d   1      27.327 -15.020   0.837  0.00  0.00     0.325 C 
ATOM      9  N   UNL d   1      28.147 -15.111   1.961  0.00  0.00    -0.309 N 
ATOM     10  O   UNL d   1      26.407 -14.202   0.739  0.00  0.00    -0.247 OA
ATOM     11  H   UNL d   1      28.691 -15.950   2.102  0.00  0.00     0.170 HD
ATOM     12  H   UNL d   1      27.922 -16.835   0.017  0.00  0.00     0.170 HD
BRANCH   9  13
ATOM     13  C   UNL d   1      28.132 -14.146   3.029  0.00  0.00     0.037 A 
ATOM     14  C   UNL d   1      27.763 -12.813   2.804  0.00  0.00     0.036 A 
ATOM     15  C   UNL d   1      27.778 -11.865   3.860  0.00  0.00    -0.059 A 
ATOM     16  C   UNL d   1      28.155 -12.257   5.153  0.00  0.00     0.013 A 
ATOM     17  C   UNL d   1      27.400 -10.433   3.604  0.00  0.00     0.048 C 
ATOM     18  C   UNL d   1      28.499 -13.578   5.403  0.00  0.00    -0.059 A 
ATOM     19  C   UNL d   1      28.904 -14.074   6.761  0.00  0.00     0.048 C 
ATOM     20  C   UNL d   1      28.470 -14.494   4.344  0.00  0.00     0.036 A 
ENDBRANCH   9  13
ENDBRANCH   1   7
BRANCH   6  21
ATOM     21  N   UNL d   1      24.864 -16.708  -0.887  0.00  0.00    -0.379 N 
ATOM     22  C   UNL d   1      25.381 -17.767  -0.027  0.00  0.00     0.123 C 
ATOM     23  C   UNL d   1      24.430 -18.951  -0.147  0.00  0.00     0.020 C 
ATOM     24  C   UNL d   1      22.989 -18.520   0.156  0.00  0.00     0.003 C 
ATOM     25  C   UNL d   1      22.565 -17.289  -0.658  0.00  0.00     0.020 C 
ATOM     26  C   UNL d   1      23.578 -16.159  -0.512  0.00  0.00     0.123 C 
ENDBRANCH   6  21
BRANCH   3  27
ATOM     27  N   UNL d   1      27.797 -13.805  -4.713  0.00  0.00    -0.323 N 
ATOM     28  C   UNL d   1      28.042 -14.132  -6.049  0.00  0.00     0.257 C 
ATOM     29  O   UNL d   1      27.782 -15.201  -6.610  0.00  0.00    -0.267 OA
ATOM     30  H   UNL d   1      28.013 -12.862  -4.410  0.00  0.00     0.169 HD
BRANCH  28  31
ATOM     31  C   UNL d   1      28.649 -13.122  -6.944  0.00  0.00     0.054 A 
ATOM     32  C   UNL d   1      27.803 -12.085  -7.398  0.00  0.00     0.019 A 
ATOM     33  C   UNL d   1      28.212 -11.220  -8.412  0.00  0.00     0.001 A 
ATOM     34  C   UNL d   1      29.493 -11.342  -8.938  0.00  0.00     0.002 A 
ATOM     35  C   UNL d   1      30.341 -12.355  -8.484  0.00  0.00     0.025 A 
ATOM     36  C   UNL d   1      29.924 -13.252  -7.495  0.00  0.00     0.049 A 
ATOM     37 CL   UNL d   1      31.024 -14.507  -7.054  0.00  0.00    -0.083 Cl
ENDBRANCH  28  31
ENDBRANCH   3  27
TORSDOF 5
ENDMDL
MODEL 4
REMARK VINA RESULT:    -9.362      3.797      6.785
REMARK INTER + INTRA:         -12.349
REMARK INTER:                 -10.854
REMARK INTRA:                  -1.496
REMARK CONF_INDEPENDENT:        1.492
REMARK UNBOUND:                -1.496
REMARK  5 active torsions:
REMARK  status: ('A' for Active; 'I' for Inactive)
REMARK    1  A    between atoms: C_7  and  N_8 
REMARK       I    between atoms: N_8  and  C_9 
REMARK       I    between atoms: C_9  and  N_11 
REMARK    2  A    between atoms: N_11  and  C_12 
REMARK    3  A    between atoms: C_14  and  N_15 
REMARK       I    between atoms: N_15  and  C_16 
REMARK    4  A    between atoms: C_16  and  C_18 
REMARK    5  A    between atoms: C_27  and  N_28 
ROOT
ATOM      1  C   UNL d   1      26.953 -15.671  -1.425  0.00  0.00     0.065 A 
ATOM      2  C   UNL d   1      27.712 -14.979  -2.412  0.00  0.00     0.061 A 
ATOM      3  C   UNL d   1      27.153 -14.682  -3.681  0.00  0.00     0.037 A 
ATOM      4  C   UNL d   1      25.901 -15.202  -3.982  0.00  0.00     0.032 A 
ATOM      5  C   UNL d   1      25.156 -15.872  -3.031  0.00  0.00     0.034 A 
ATOM      6  C   UNL d   1      25.642 -16.109  -1.742  0.00  0.00     0.057 A 
ENDROOT
BRANCH   1   7
ATOM      7  N   UNL d   1      27.484 -15.905  -0.102  0.00  0.00    -0.306 N 
ATOM      8  C   UNL d   1      27.254 -14.966   0.900  0.00  0.00     0.325 C 
ATOM      9  N   UNL d   1      28.048 -15.078   2.041  0.00  0.00    -0.309 N 
ATOM     10  O   UNL d   1      26.401 -14.085   0.757  0.00  0.00    -0.247 OA
ATOM     11  H   UNL d   1      28.524 -15.950   2.220  0.00  0.00     0.170 HD
ATOM     12  H   UNL d   1      27.723 -16.848   0.154  0.00  0.00     0.170 HD
BRANCH   9  13
ATOM     13  C   UNL d   1      28.090 -14.078   3.075  0.00  0.00     0.037 A 
ATOM     14  C   UNL d   1      28.459 -14.400   4.387  0.00  0.00     0.036 A 
ATOM     15  C   UNL d   1      28.471 -13.409   5.405  0.00  0.00    -0.059 A 
ATOM     16  C   UNL d   1      28.120 -12.085   5.102  0.00  0.00     0.013 A 
ATOM     17  C   UNL d   1      28.849 -13.769   6.814  0.00  0.00     0.048 C 
ATOM     18  C   UNL d   1      27.776 -11.740   3.802  0.00  0.00    -0.059 A 
ATOM     19  C   UNL d   1      27.399 -10.344   3.400  0.00  0.00     0.048 C 
ATOM     20  C   UNL d   1      27.779 -12.735   2.817  0.00  0.00     0.036 A 
ENDBRANCH   9  13
ENDBRANCH   1   7
BRANCH   6  21
ATOM     21  N   UNL d   1      24.759 -16.709  -0.866  0.00  0.00    -0.379 N 
ATOM     22  C   UNL d   1      25.246 -17.776   0.002  0.00  0.00     0.123 C 
ATOM     23  C   UNL d   1      24.288 -18.950  -0.145  0.00  0.00     0.020 C 
ATOM     24  C   UNL d   1      22.843 -18.507   0.124  0.00  0.00     0.003 C 
ATOM     25  C   UNL d   1      22.450 -17.270  -0.696  0.00  0.00     0.020 C 
ATOM     26  C   UNL d   1      23.470 -16.149  -0.521  0.00  0.00     0.123 C 
ENDBRANCH   6  21
BRANCH   3  27
ATOM     27  N   UNL d   1      27.809 -13.825  -4.614  0.00  0.00    -0.323 N 
ATOM     28  C   UNL d   1      28.061 -14.143  -5.951  0.00  0.00     0.257 C 
ATOM     29  O   UNL d   1      27.782 -15.200  -6.527  0.00  0.00    -0.267 OA
ATOM     30  H   UNL d   1      28.043 -12.890  -4.299  0.00  0.00     0.169 HD
BRANCH  28  31
ATOM     31  C   UNL d   1      28.700 -13.138  -6.829  0.00  0.00     0.054 A 
ATOM     32  C   UNL d   1      27.916 -12.017  -7.187  0.00  0.00     0.019 A 
ATOM     33  C   UNL d   1      28.341 -11.135  -8.180  0.00  0.00     0.001 A 
ATOM     34  C   UNL d   1      29.580 -11.327  -8.780  0.00  0.00     0.002 A 
ATOM     35  C   UNL d   1      30.367 -12.425  -8.421  0.00  0.00     0.025 A 
ATOM     36  C   UNL d   1      29.931 -13.337  -7.454  0.00  0.00     0.049 A 
ATOM     37 CL   UNL d   1      30.949 -14.693  -7.134  0.00  0.00    -0.083 Cl
ENDBRANCH  28  31
ENDBRANCH   3  27
TORSDOF 5
ENDMDL
MODEL 5
REMARK VINA RESULT:    -8.740      2.078      8.494
REMARK INTER + INTRA:         -11.624
REMARK INTER:                 -10.231
REMARK INTRA:                  -1.393
REMARK CONF_INDEPENDENT:        1.492
REMARK UNBOUND:                -1.393
REMARK  5 active torsions:
REMARK  status: ('A' for Active; 'I' for Inactive)
REMARK    1  A    between atoms: C_7  and  N_8 
REMARK       I    between atoms: N_8  and  C_9 
REMARK       I    between atoms: C_9  and  N_11 
REMARK    2  A    between atoms: N_11  and  C_12 
REMARK    3  A    between atoms: C_14  and  N_15 
REMARK       I    between atoms: N_15  and  C_16 
REMARK    4  A    between atoms: C_16  and  C_18 
REMARK    5  A    between atoms: C_27  and  N_28 
ROOT
ATOM      1  C   UNL d   1      26.953 -14.983  -3.461  0.00  0.00     0.065 A 
ATOM      2  C   UNL d   1      26.744 -13.810  -4.242  0.00  0.00     0.061 A 
ATOM      3  C   UNL d   1      25.499 -13.132  -4.216  0.00  0.00     0.037 A 
ATOM      4  C   UNL d   1      24.450 -13.718  -3.520  0.00  0.00     0.032 A 
ATOM      5  C   UNL d   1      24.642 -14.854  -2.757  0.00  0.00     0.034 A 
ATOM      6  C   UNL d   1      25.879 -15.500  -2.691  0.00  0.00     0.057 A 
ENDROOT
BRANCH   1   7
ATOM      7  N   UNL d   1      28.242 -15.632  -3.416  0.00  0.00    -0.306 N 
ATOM      8  C   UNL d   1      28.886 -15.950  -4.608  0.00  0.00     0.325 C 
ATOM      9  N   UNL d   1      29.947 -16.850  -4.513  0.00  0.00    -0.309 N 
ATOM     10  O   UNL d   1      28.512 -15.461  -5.679  0.00  0.00    -0.247 OA
ATOM     11  H   UNL d   1      30.377 -17.004  -3.612  0.00  0.00     0.170 HD
ATOM     12  H   UNL d   1      28.782 -15.558  -2.570  0.00  0.00     0.170 HD
BRANCH   9  13
ATOM     13  C   UNL d   1      30.584 -17.444  -5.658  0.00  0.00     0.037 A 
ATOM     14  C   UNL d   1      30.539 -18.826  -5.883  0.00  0.00     0.036 A 
ATOM     15  C   UNL d   1      31.193 -19.404  -7.003  0.00  0.00    -0.059 A 
ATOM     16  C   UNL d   1      31.890 -18.589  -7.909  0.00  0.00     0.013 A 
ATOM     17  C   UNL d   1      31.155 -20.890  -7.225  0.00  0.00     0.048 C 
ATOM     18  C   UNL d   1      31.926 -17.215  -7.717  0.00  0.00    -0.059 A 
ATOM     19  C   UNL d   1      32.642 -16.280  -8.647  0.00  0.00     0.048 C 
ATOM     20  C   UNL d   1      31.266 -16.671  -6.609  0.00  0.00     0.036 A 
ENDBRANCH   9  13
ENDBRANCH   1   7
BRANCH   6  21
ATOM     21  N   UNL d   1      25.954 -16.570  -1.821  0.00  0.00    -0.379 N 
ATOM     22  C   UNL d   1      24.799 -17.450  -1.686  0.00  0.00     0.123 C 
ATOM     23  C   UNL d   1      24.508 -17.589  -0.198  0.00  0.00     0.020 C 
ATOM     24  C   UNL d   1      25.762 -18.050   0.558  0.00  0.00     0.003 C 
ATOM     25  C   UNL d   1      26.988 -17.183   0.236  0.00  0.00     0.020 C 
ATOM     26  C   UNL d   1      27.198 -17.067  -1.270  0.00  0.00     0.123 C 
ENDBRANCH   6  21
BRANCH   3  27
ATOM     27  N   UNL d   1      25.321 -11.855  -4.828  0.00  0.00    -0.323 N 
ATOM     28  C   UNL d   1      25.915 -10.669  -4.389  0.00  0.00     0.257 C 
ATOM     29  O   UNL d   1      26.657 -10.529  -3.412  0.00  0.00    -0.267 OA
ATOM     30  H   UNL d   1      24.781 -11.824  -5.685  0.00  0.00     0.169 HD
BRANCH  28  31
ATOM     31  C   UNL d   1      25.692  -9.420  -5.150  0.00  0.00     0.054 A 
ATOM     32  C   UNL d   1      24.944  -8.408  -4.504  0.00  0.00     0.019 A 
ATOM     33  C   UNL d   1      24.490  -7.294  -5.209  0.00  0.00     0.001 A 
ATOM     34  C   UNL d   1      24.832  -7.148  -6.549  0.00  0.00     0.002 A 
ATOM     35  C   UNL d   1      25.583  -8.137  -7.190  0.00  0.00     0.025 A 
ATOM     36  C   UNL d   1      26.008  -9.277  -6.500  0.00  0.00     0.049 A 
ATOM     37 CL   UNL d   1      26.872 -10.468  -7.403  0.00  0.00    -0.083 Cl
ENDBRANCH  28  31
ENDBRANCH   3  27
TORSDOF 5
ENDMDL
MODEL 6
REMARK VINA RESULT:    -8.555      4.230      8.177
REMARK INTER + INTRA:         -11.785
REMARK INTER:                 -10.047
REMARK INTRA:                  -1.738
REMARK CONF_INDEPENDENT:        1.492
REMARK UNBOUND:                -1.738
REMARK  5 active torsions:
REMARK  status: ('A' for Active; 'I' for Inactive)
REMARK    1  A    between atoms: C_7  and  N_8 
REMARK       I    between atoms: N_8  and  C_9 
REMARK       I    between atoms: C_9  and  N_11 
REMARK    2  A    between atoms: N_11  and  C_12 
REMARK    3  A    between atoms: C_14  and  N_15 
REMARK       I    between atoms: N_15  and  C_16 
REMARK    4  A    between atoms: C_16  and  C_18 
REMARK    5  A    between atoms: C_27  and  N_28 
ROOT
ATOM      1  C   UNL d   1      26.962 -14.131  -1.943  0.00  0.00     0.065 A 
ATOM      2  C   UNL d   1      26.827 -12.928  -2.694  0.00  0.00     0.061 A 
ATOM      3  C   UNL d   1      25.806 -12.792  -3.669  0.00  0.00     0.037 A 
ATOM      4  C   UNL d   1      25.033 -13.907  -3.967  0.00  0.00     0.032 A 
ATOM      5  C   UNL d   1      25.155 -15.078  -3.243  0.00  0.00     0.034 A 
ATOM      6  C   UNL d   1      26.094 -15.219  -2.217  0.00  0.00     0.057 A 
ENDROOT
BRANCH   1   7
ATOM      7  N   UNL d   1      27.945 -14.249  -0.891  0.00  0.00    -0.306 N 
ATOM      8  C   UNL d   1      27.571 -13.983   0.423  0.00  0.00     0.325 C 
ATOM      9  N   UNL d   1      28.612 -13.796   1.332  0.00  0.00    -0.309 N 
ATOM     10  O   UNL d   1      26.380 -13.907   0.739  0.00  0.00    -0.247 OA
ATOM     11  H   UNL d   1      29.535 -14.128   1.093  0.00  0.00     0.170 HD
ATOM     12  H   UNL d   1      28.762 -14.810  -1.066  0.00  0.00     0.170 HD
BRANCH   9  13
ATOM     13  C   UNL d   1      28.412 -13.310   2.672  0.00  0.00     0.037 A 
ATOM     14  C   UNL d   1      28.586 -14.144   3.784  0.00  0.00     0.036 A 
ATOM     15  C   UNL d   1      28.360 -13.662   5.100  0.00  0.00    -0.059 A 
ATOM     16  C   UNL d   1      27.965 -12.330   5.303  0.00  0.00     0.013 A 
ATOM     17  C   UNL d   1      28.530 -14.570   6.285  0.00  0.00     0.048 C 
ATOM     18  C   UNL d   1      27.812 -11.481   4.216  0.00  0.00    -0.059 A 
ATOM     19  C   UNL d   1      27.402 -10.043   4.355  0.00  0.00     0.048 C 
ATOM     20  C   UNL d   1      28.048 -11.981   2.930  0.00  0.00     0.036 A 
ENDBRANCH   9  13
ENDBRANCH   1   7
BRANCH   6  21
ATOM     21  N   UNL d   1      26.047 -16.408  -1.517  0.00  0.00    -0.379 N 
ATOM     22  C   UNL d   1      24.821 -17.198  -1.553  0.00  0.00     0.123 C 
ATOM     23  C   UNL d   1      24.454 -17.530  -0.113  0.00  0.00     0.020 C 
ATOM     24  C   UNL d   1      25.633 -18.201   0.605  0.00  0.00     0.003 C 
ATOM     25  C   UNL d   1      26.937 -17.403   0.456  0.00  0.00     0.020 C 
ATOM     26  C   UNL d   1      27.221 -17.084  -1.008  0.00  0.00     0.123 C 
ENDBRANCH   6  21
BRANCH   3  27
ATOM     27  N   UNL d   1      25.520 -11.542  -4.294  0.00  0.00    -0.323 N 
ATOM     28  C   UNL d   1      26.044 -10.310  -3.895  0.00  0.00     0.257 C 
ATOM     29  O   UNL d   1      26.807 -10.102  -2.946  0.00  0.00    -0.267 OA
ATOM     30  H   UNL d   1      24.951 -11.564  -5.133  0.00  0.00     0.169 HD
BRANCH  28  31
ATOM     31  C   UNL d   1      25.711  -9.094  -4.668  0.00  0.00     0.054 A 
ATOM     32  C   UNL d   1      25.155  -8.014  -3.944  0.00  0.00     0.019 A 
ATOM     33  C   UNL d   1      24.603  -6.918  -4.606  0.00  0.00     0.001 A 
ATOM     34  C   UNL d   1      24.657  -6.859  -5.993  0.00  0.00     0.002 A 
ATOM     35  C   UNL d   1      25.218  -7.916  -6.716  0.00  0.00     0.025 A 
ATOM     36  C   UNL d   1      25.738  -9.037  -6.061  0.00  0.00     0.049 A 
ATOM     37 CL   UNL d   1      26.346 -10.315  -7.050  0.00  0.00    -0.083 Cl
ENDBRANCH  28  31
ENDBRANCH   3  27
TORSDOF 5
ENDMDL
MODEL 7
REMARK VINA RESULT:    -8.500      4.213      8.164
REMARK INTER + INTRA:         -11.754
REMARK INTER:                  -9.991
REMARK INTRA:                  -1.762
REMARK CONF_INDEPENDENT:        1.492
REMARK UNBOUND:                -1.762
REMARK  5 active torsions:
REMARK  status: ('A' for Active; 'I' for Inactive)
REMARK    1  A    between atoms: C_7  and  N_8 
REMARK       I    between atoms: N_8  and  C_9 
REMARK       I    between atoms: C_9  and  N_11 
REMARK    2  A    between atoms: N_11  and  C_12 
REMARK    3  A    between atoms: C_14  and  N_15 
REMARK       I    between atoms: N_15  and  C_16 
REMARK    4  A    between atoms: C_16  and  C_18 
REMARK    5  A    between atoms: C_27  and  N_28 
ROOT
ATOM      1  C   UNL d   1      26.995 -14.113  -1.926  0.00  0.00     0.065 A 
ATOM      2  C   UNL d   1      26.834 -12.915  -2.680  0.00  0.00     0.061 A 
ATOM      3  C   UNL d   1      25.811 -12.804  -3.656  0.00  0.00     0.037 A 
ATOM      4  C   UNL d   1      25.063 -13.936  -3.952  0.00  0.00     0.032 A 
ATOM      5  C   UNL d   1      25.210 -15.102  -3.225  0.00  0.00     0.034 A 
ATOM      6  C   UNL d   1      26.150 -15.220  -2.199  0.00  0.00     0.057 A 
ENDROOT
BRANCH   1   7
ATOM      7  N   UNL d   1      27.979 -14.207  -0.873  0.00  0.00    -0.306 N 
ATOM      8  C   UNL d   1      27.588 -13.993   0.445  0.00  0.00     0.325 C 
ATOM      9  N   UNL d   1      28.614 -13.776   1.364  0.00  0.00    -0.309 N 
ATOM     10  O   UNL d   1      26.393 -13.987   0.758  0.00  0.00    -0.247 OA
ATOM     11  H   UNL d   1      29.554 -14.055   1.120  0.00  0.00     0.170 HD
ATOM     12  H   UNL d   1      28.824 -14.721  -1.058  0.00  0.00     0.170 HD
BRANCH   9  13
ATOM     13  C   UNL d   1      28.385 -13.336   2.715  0.00  0.00     0.037 A 
ATOM     14  C   UNL d   1      28.005 -12.018   2.998  0.00  0.00     0.036 A 
ATOM     15  C   UNL d   1      27.807 -11.588   4.336  0.00  0.00    -0.059 A 
ATOM     16  C   UNL d   1      27.984 -12.488   5.398  0.00  0.00     0.013 A 
ATOM     17  C   UNL d   1      27.418 -10.166   4.631  0.00  0.00     0.048 C 
ATOM     18  C   UNL d   1      28.336 -13.805   5.137  0.00  0.00    -0.059 A 
ATOM     19  C   UNL d   1      28.533 -14.827   6.219  0.00  0.00     0.048 C 
ATOM     20  C   UNL d   1      28.517 -14.204   3.807  0.00  0.00     0.036 A 
ENDBRANCH   9  13
ENDBRANCH   1   7
BRANCH   6  21
ATOM     21  N   UNL d   1      26.129 -16.408  -1.496  0.00  0.00    -0.379 N 
ATOM     22  C   UNL d   1      24.913 -17.215  -1.515  0.00  0.00     0.123 C 
ATOM     23  C   UNL d   1      24.571 -17.549  -0.069  0.00  0.00     0.020 C 
ATOM     24  C   UNL d   1      25.768 -18.203   0.634  0.00  0.00     0.003 C 
ATOM     25  C   UNL d   1      27.059 -17.388   0.467  0.00  0.00     0.020 C 
ATOM     26  C   UNL d   1      27.319 -17.067  -1.001  0.00  0.00     0.123 C 
ENDBRANCH   6  21
BRANCH   3  27
ATOM     27  N   UNL d   1      25.498 -11.561  -4.284  0.00  0.00    -0.323 N 
ATOM     28  C   UNL d   1      26.137 -10.347  -4.018  0.00  0.00     0.257 C 
ATOM     29  O   UNL d   1      27.041 -10.150  -3.200  0.00  0.00    -0.267 OA
ATOM     30  H   UNL d   1      24.811 -11.580  -5.030  0.00  0.00     0.169 HD
BRANCH  28  31
ATOM     31  C   UNL d   1      25.753  -9.141  -4.784  0.00  0.00     0.054 A 
ATOM     32  C   UNL d   1      25.154  -8.089  -4.053  0.00  0.00     0.019 A 
ATOM     33  C   UNL d   1      24.558  -7.012  -4.709  0.00  0.00     0.001 A 
ATOM     34  C   UNL d   1      24.609  -6.944  -6.096  0.00  0.00     0.002 A 
ATOM     35  C   UNL d   1      25.213  -7.973  -6.825  0.00  0.00     0.025 A 
ATOM     36  C   UNL d   1      25.778  -9.076  -6.176  0.00  0.00     0.049 A 
ATOM     37 CL   UNL d   1      26.437 -10.322  -7.173  0.00  0.00    -0.083 Cl
ENDBRANCH  28  31
ENDBRANCH   3  27
TORSDOF 5
ENDMDL
MODEL 8
REMARK VINA RESULT:    -8.362      2.337      7.697
REMARK INTER + INTRA:         -11.431
REMARK INTER:                  -9.854
REMARK INTRA:                  -1.577
REMARK CONF_INDEPENDENT:        1.492
REMARK UNBOUND:                -1.577
REMARK  5 active torsions:
REMARK  status: ('A' for Active; 'I' for Inactive)
REMARK    1  A    between atoms: C_7  and  N_8 
REMARK       I    between atoms: N_8  and  C_9 
REMARK       I    between atoms: C_9  and  N_11 
REMARK    2  A    between atoms: N_11  and  C_12 
REMARK    3  A    between atoms: C_14  and  N_15 
REMARK       I    between atoms: N_15  and  C_16 
REMARK    4  A    between atoms: C_16  and  C_18 
REMARK    5  A    between atoms: C_27  and  N_28 
ROOT
ATOM      1  C   UNL d   1      27.849 -13.420  -5.182  0.00  0.00     0.065 A 
ATOM      2  C   UNL d   1      27.302 -14.426  -4.335  0.00  0.00     0.061 A 
ATOM      3  C   UNL d   1      25.994 -14.295  -3.804  0.00  0.00     0.037 A 
ATOM      4  C   UNL d   1      25.317 -13.101  -4.018  0.00  0.00     0.032 A 
ATOM      5  C   UNL d   1      25.839 -12.120  -4.839  0.00  0.00     0.034 A 
ATOM      6  C   UNL d   1      27.089 -12.252  -5.449  0.00  0.00     0.057 A 
ENDROOT
BRANCH   1   7
ATOM      7  N   UNL d   1      29.147 -13.582  -5.795  0.00  0.00    -0.306 N 
ATOM      8  C   UNL d   1      29.433 -14.759  -6.482  0.00  0.00     0.325 C 
ATOM      9  N   UNL d   1      30.778 -14.995  -6.764  0.00  0.00    -0.309 N 
ATOM     10  O   UNL d   1      28.531 -15.540  -6.801  0.00  0.00    -0.247 OA
ATOM     11  H   UNL d   1      31.427 -14.222  -6.728  0.00  0.00     0.170 HD
ATOM     12  H   UNL d   1      29.688 -12.756  -5.988  0.00  0.00     0.170 HD
BRANCH   9  13
ATOM     13  C   UNL d   1      31.269 -16.247  -7.276  0.00  0.00     0.037 A 
ATOM     14  C   UNL d   1      32.286 -16.293  -8.240  0.00  0.00     0.036 A 
ATOM     15  C   UNL d   1      32.744 -17.533  -8.757  0.00  0.00    -0.059 A 
ATOM     16  C   UNL d   1      32.185 -18.736  -8.299  0.00  0.00     0.013 A 
ATOM     17  C   UNL d   1      33.821 -17.571  -9.805  0.00  0.00     0.048 C 
ATOM     18  C   UNL d   1      31.196 -18.713  -7.326  0.00  0.00    -0.059 A 
ATOM     19  C   UNL d   1      30.558 -19.958  -6.780  0.00  0.00     0.048 C 
ATOM     20  C   UNL d   1      30.767 -17.477  -6.828  0.00  0.00     0.036 A 
ENDBRANCH   9  13
ENDBRANCH   1   7
BRANCH   6  21
ATOM     21  N   UNL d   1      27.448 -11.238  -6.315  0.00  0.00    -0.379 N 
ATOM     22  C   UNL d   1      26.432 -10.674  -7.196  0.00  0.00     0.123 C 
ATOM     23  C   UNL d   1      27.004 -10.680  -8.607  0.00  0.00     0.020 C 
ATOM     24  C   UNL d   1      28.361  -9.964  -8.645  0.00  0.00     0.003 C 
ATOM     25  C   UNL d   1      29.327 -10.489  -7.573  0.00  0.00     0.020 C 
ATOM     26  C   UNL d   1      28.675 -10.479  -6.194  0.00  0.00     0.123 C 
ENDBRANCH   6  21
BRANCH   3  27
ATOM     27  N   UNL d   1      25.345 -15.366  -3.119  0.00  0.00    -0.323 N 
ATOM     28  C   UNL d   1      25.347 -15.546  -1.734  0.00  0.00     0.257 C 
ATOM     29  O   UNL d   1      25.913 -14.838  -0.895  0.00  0.00    -0.267 OA
ATOM     30  H   UNL d   1      24.783 -15.998  -3.677  0.00  0.00     0.169 HD
BRANCH  28  31
ATOM     31  C   UNL d   1      24.585 -16.670  -1.147  0.00  0.00     0.054 A 
ATOM     32  C   UNL d   1      23.175 -16.597  -1.238  0.00  0.00     0.019 A 
ATOM     33  C   UNL d   1      22.366 -17.482  -0.527  0.00  0.00     0.001 A 
ATOM     34  C   UNL d   1      22.955 -18.487   0.231  0.00  0.00     0.002 A 
ATOM     35  C   UNL d   1      24.347 -18.575   0.315  0.00  0.00     0.025 A 
ATOM     36  C   UNL d   1      25.166 -17.666  -0.363  0.00  0.00     0.049 A 
ATOM     37 CL   UNL d   1      26.870 -17.822  -0.138  0.00  0.00    -0.083 Cl
ENDBRANCH  28  31
ENDBRANCH   3  27
TORSDOF 5
ENDMDL
MODEL 9
REMARK VINA RESULT:    -7.662      5.922      9.982
REMARK INTER + INTRA:         -11.420
REMARK INTER:                  -9.153
REMARK INTRA:                  -2.266
REMARK CONF_INDEPENDENT:        1.492
REMARK UNBOUND:                -2.266
REMARK  5 active torsions:
REMARK  status: ('A' for Active; 'I' for Inactive)
REMARK    1  A    between atoms: C_7  and  N_8 
REMARK       I    between atoms: N_8  and  C_9 
REMARK       I    between atoms: C_9  and  N_11 
REMARK    2  A    between atoms: N_11  and  C_12 
REMARK    3  A    between atoms: C_14  and  N_15 
REMARK       I    between atoms: N_15  and  C_16 
REMARK    4  A    between atoms: C_16  and  C_18 
REMARK    5  A    between atoms: C_27  and  N_28 
ROOT
ATOM      1  C   UNL d   1      28.235 -14.894   0.903  0.00  0.00     0.065 A 
ATOM      2  C   UNL d   1      28.830 -14.432   2.111  0.00  0.00     0.061 A 
ATOM      3  C   UNL d   1      28.231 -13.390   2.863  0.00  0.00     0.037 A 
ATOM      4  C   UNL d   1      27.129 -12.741   2.320  0.00  0.00     0.032 A 
ATOM      5  C   UNL d   1      26.544 -13.183   1.149  0.00  0.00     0.034 A 
ATOM      6  C   UNL d   1      27.058 -14.263   0.426  0.00  0.00     0.057 A 
ENDROOT
BRANCH   1   7
ATOM      7  N   UNL d   1      28.792 -16.010   0.174  0.00  0.00    -0.306 N 
ATOM      8  C   UNL d   1      29.215 -15.823  -1.139  0.00  0.00     0.325 C 
ATOM      9  N   UNL d   1      29.433 -16.981  -1.885  0.00  0.00    -0.309 N 
ATOM     10  O   UNL d   1      29.368 -14.687  -1.599  0.00  0.00    -0.247 OA
ATOM     11  H   UNL d   1      29.557 -17.858  -1.400  0.00  0.00     0.170 HD
ATOM     12  H   UNL d   1      29.152 -16.788   0.701  0.00  0.00     0.170 HD
BRANCH   9  13
ATOM     13  C   UNL d   1      29.668 -16.973  -3.305  0.00  0.00     0.037 A 
ATOM     14  C   UNL d   1      30.405 -17.987  -3.929  0.00  0.00     0.036 A 
ATOM     15  C   UNL d   1      30.652 -17.955  -5.326  0.00  0.00    -0.059 A 
ATOM     16  C   UNL d   1      30.149 -16.902  -6.106  0.00  0.00     0.013 A 
ATOM     17  C   UNL d   1      31.461 -19.038  -5.983  0.00  0.00     0.048 C 
ATOM     18  C   UNL d   1      29.394 -15.900  -5.511  0.00  0.00    -0.059 A 
ATOM     19  C   UNL d   1      28.815 -14.748  -6.280  0.00  0.00     0.048 C 
ATOM     20  C   UNL d   1      29.160 -15.961  -4.132  0.00  0.00     0.036 A 
ENDBRANCH   9  13
ENDBRANCH   1   7
BRANCH   6  21
ATOM     21  N   UNL d   1      26.323 -14.655  -0.675  0.00  0.00    -0.379 N 
ATOM     22  C   UNL d   1      25.493 -15.850  -0.577  0.00  0.00     0.123 C 
ATOM     23  C   UNL d   1      25.824 -16.731  -1.774  0.00  0.00     0.020 C 
ATOM     24  C   UNL d   1      25.670 -15.944  -3.084  0.00  0.00     0.003 C 
ATOM     25  C   UNL d   1      26.431 -14.610  -3.055  0.00  0.00     0.020 C 
ATOM     26  C   UNL d   1      26.070 -13.799  -1.815  0.00  0.00     0.123 C 
ENDBRANCH   6  21
BRANCH   3  27
ATOM     27  N   UNL d   1      28.688 -13.039   4.169  0.00  0.00    -0.323 N 
ATOM     28  C   UNL d   1      28.065 -13.415   5.361  0.00  0.00     0.257 C 
ATOM     29  O   UNL d   1      27.030 -14.079   5.480  0.00  0.00    -0.267 OA
ATOM     30  H   UNL d   1      29.570 -12.543   4.232  0.00  0.00     0.169 HD
BRANCH  28  31
ATOM     31  C   UNL d   1      28.677 -13.033   6.653  0.00  0.00     0.054 A 
ATOM     32  C   UNL d   1      28.905 -14.075   7.581  0.00  0.00     0.019 A 
ATOM     33  C   UNL d   1      29.265 -13.793   8.898  0.00  0.00     0.001 A 
ATOM     34  C   UNL d   1      29.463 -12.473   9.285  0.00  0.00     0.002 A 
ATOM     35  C   UNL d   1      29.254 -11.438   8.369  0.00  0.00     0.025 A 
ATOM     36  C   UNL d   1      28.854 -11.710   7.057  0.00  0.00     0.049 A 
ATOM     37 CL   UNL d   1      28.558 -10.356   6.027  0.00  0.00    -0.083 Cl
ENDBRANCH  28  31
ENDBRANCH   3  27
TORSDOF 5
ENDMDL
