MODEL 1
REMARK VINA RESULT:    -8.678      0.000      0.000
REMARK INTER + INTRA:         -12.015
REMARK INTER:                 -10.766
REMARK INTRA:                  -1.249
REMARK CONF_INDEPENDENT:        2.088
REMARK UNBOUND:                -1.249
REMARK  7 active torsions:
REMARK  status: ('A' for Active; 'I' for Inactive)
REMARK    1  A    between atoms: C_2  and  C_4 
REMARK    2  A    between atoms: C_4  and  C_5 
REMARK    3  A    between atoms: C_5  and  C_6 
REMARK       I    between atoms: C_6  and  N_8 
REMARK    4  A    between atoms: N_8  and  N_9 
REMARK       I    between atoms: N_9  and  C_10 
REMARK    5  A    between atoms: C_10  and  C_12 
REMARK    6  A    between atoms: C_13  and  C_14 
REMARK    7  A    between atoms: C_19  and  N_20 
ROOT
ATOM      1  N   UNL d   1      23.533 -17.979  -1.119  0.00  0.00    -0.264 N 
ATOM      2  C   UNL d   1      24.840 -17.702  -0.755  0.00  0.00     0.259 C 
ATOM      3  O   UNL d   1      25.397 -18.255   0.195  0.00  0.00    -0.267 OA
ATOM      4  H   UNL d   1      23.042 -17.546  -1.898  0.00  0.00     0.190 HD
ENDROOT
BRANCH   2   5
ATOM      5  C   UNL d   1      25.547 -16.673  -1.600  0.00  0.00     0.076 C 
ATOM      6  C   UNL d   1      24.860 -15.822  -2.394  0.00  0.00     0.017 C 
BRANCH   6   7
ATOM      7  C   UNL d   1      25.442 -14.768  -3.264  0.00  0.00    -0.034 A 
ATOM      8  C   UNL d   1      25.158 -13.412  -3.074  0.00  0.00     0.013 A 
ATOM      9  C   UNL d   1      25.754 -12.429  -3.878  0.00  0.00     0.027 A 
ATOM     10  C   UNL d   1      26.662 -12.764  -4.894  0.00  0.00     0.067 A 
ATOM     11 CL   UNL d   1      27.274 -11.420  -5.797  0.00  0.00    -0.082 Cl
ATOM     12  C   UNL d   1      26.985 -14.112  -5.085  0.00  0.00     0.125 A 
ATOM     13  C   UNL d   1      26.375 -15.104  -4.266  0.00  0.00     0.049 A 
BRANCH  12  14
ATOM     14  N   UNL d   1      27.955 -14.560  -6.104  0.00  0.00    -0.114 N 
ATOM     15  O   UNL d   1      28.536 -15.636  -5.897  0.00  0.00    -0.532 OA
ATOM     16  O   UNL d   1      28.155 -13.866  -7.106  0.00  0.00    -0.532 OA
ENDBRANCH  12  14
ENDBRANCH   6   7
ENDBRANCH   2   5
BRANCH   1  17
ATOM     17  N   UNL d   1      22.774 -18.933  -0.374  0.00  0.00    -0.267 N 
ATOM     18  C   UNL d   1      21.392 -18.956  -0.518  0.00  0.00     0.236 C 
ATOM     19  O   UNL d   1      20.809 -18.173  -1.269  0.00  0.00    -0.272 OA
ATOM     20  H   UNL d   1      23.298 -19.571   0.225  0.00  0.00     0.190 HD
BRANCH  18  21
ATOM     21  C   UNL d   1      20.663 -20.021   0.305  0.00  0.00     0.105 C 
BRANCH  21  22
ATOM     22  C   UNL d   1      19.129 -19.931   0.156  0.00  0.00     0.013 C 
BRANCH  22  23
ATOM     23  C   UNL d   1      18.338 -20.498   1.353  0.00  0.00    -0.022 C 
ATOM     24  C   UNL d   1      17.918 -21.949   1.081  0.00  0.00     0.009 C 
ATOM     25  C   UNL d   1      19.156 -20.451   2.643  0.00  0.00     0.009 C 
ENDBRANCH  22  23
ENDBRANCH  21  22
ENDBRANCH  18  21
ENDBRANCH   1  17
TORSDOF 7
ENDMDL
MODEL 2
REMARK VINA RESULT:    -7.763      2.008      2.255
REMARK INTER + INTRA:         -11.112
REMARK INTER:                  -9.851
REMARK INTRA:                  -1.262
REMARK CONF_INDEPENDENT:        2.088
REMARK UNBOUND:                -1.262
REMARK  7 active torsions:
REMARK  status: ('A' for Active; 'I' for Inactive)
REMARK    1  A    between atoms: C_2  and  C_4 
REMARK    2  A    between atoms: C_4  and  C_5 
REMARK    3  A    between atoms: C_5  and  C_6 
REMARK       I    between atoms: C_6  and  N_8 
REMARK    4  A    between atoms: N_8  and  N_9 
REMARK       I    between atoms: N_9  and  C_10 
REMARK    5  A    between atoms: C_10  and  C_12 
REMARK    6  A    between atoms: C_13  and  C_14 
REMARK    7  A    between atoms: C_19  and  N_20 
ROOT
ATOM      1  N   UNL d   1      23.554 -17.949  -1.167  0.00  0.00    -0.264 N 
ATOM      2  C   UNL d   1      24.852 -17.598  -0.837  0.00  0.00     0.259 C 
ATOM      3  O   UNL d   1      25.393 -17.958   0.210  0.00  0.00    -0.267 OA
ATOM      4  H   UNL d   1      23.077 -17.673  -2.023  0.00  0.00     0.190 HD
ENDROOT
BRANCH   2   5
ATOM      5  C   UNL d   1      25.571 -16.739  -1.846  0.00  0.00     0.076 C 
ATOM      6  C   UNL d   1      25.048 -15.569  -2.275  0.00  0.00     0.017 C 
BRANCH   6   7
ATOM      7  C   UNL d   1      25.662 -14.639  -3.257  0.00  0.00    -0.034 A 
ATOM      8  C   UNL d   1      26.282 -15.098  -4.422  0.00  0.00     0.013 A 
ATOM      9  C   UNL d   1      26.816 -14.200  -5.359  0.00  0.00     0.027 A 
ATOM     10  C   UNL d   1      26.741 -12.812  -5.170  0.00  0.00     0.067 A 
ATOM     11 CL   UNL d   1      27.476 -11.865  -6.418  0.00  0.00    -0.082 Cl
ATOM     12  C   UNL d   1      26.099 -12.327  -4.025  0.00  0.00     0.125 A 
ATOM     13  C   UNL d   1      25.562 -13.244  -3.078  0.00  0.00     0.049 A 
BRANCH  12  14
ATOM     14  N   UNL d   1      25.940 -10.884  -3.754  0.00  0.00    -0.114 N 
ATOM     15  O   UNL d   1      26.234 -10.486  -2.617  0.00  0.00    -0.532 OA
ATOM     16  O   UNL d   1      25.526 -10.135  -4.646  0.00  0.00    -0.532 OA
ENDBRANCH  12  14
ENDBRANCH   6   7
ENDBRANCH   2   5
BRANCH   1  17
ATOM     17  N   UNL d   1      22.785 -18.753  -0.271  0.00  0.00    -0.267 N 
ATOM     18  C   UNL d   1      21.402 -18.774  -0.403  0.00  0.00     0.236 C 
ATOM     19  O   UNL d   1      20.826 -18.116  -1.270  0.00  0.00    -0.272 OA
ATOM     20  H   UNL d   1      23.303 -19.292   0.422  0.00  0.00     0.190 HD
BRANCH  18  21
ATOM     21  C   UNL d   1      20.661 -19.676   0.588  0.00  0.00     0.105 C 
BRANCH  21  22
ATOM     22  C   UNL d   1      19.206 -19.954   0.156  0.00  0.00     0.013 C 
BRANCH  22  23
ATOM     23  C   UNL d   1      18.300 -20.502   1.280  0.00  0.00    -0.022 C 
ATOM     24  C   UNL d   1      17.891 -21.950   0.981  0.00  0.00     0.009 C 
ATOM     25  C   UNL d   1      18.997 -20.451   2.639  0.00  0.00     0.009 C 
ENDBRANCH  22  23
ENDBRANCH  21  22
ENDBRANCH  18  21
ENDBRANCH   1  17
TORSDOF 7
ENDMDL
MODEL 3
REMARK VINA RESULT:    -7.077      4.358      5.023
REMARK INTER + INTRA:          -9.944
REMARK INTER:                  -9.166
REMARK INTRA:                  -0.778
REMARK CONF_INDEPENDENT:        2.088
REMARK UNBOUND:                -0.778
REMARK  7 active torsions:
REMARK  status: ('A' for Active; 'I' for Inactive)
REMARK    1  A    between atoms: C_2  and  C_4 
REMARK    2  A    between atoms: C_4  and  C_5 
REMARK    3  A    between atoms: C_5  and  C_6 
REMARK       I    between atoms: C_6  and  N_8 
REMARK    4  A    between atoms: N_8  and  N_9 
REMARK       I    between atoms: N_9  and  C_10 
REMARK    5  A    between atoms: C_10  and  C_12 
REMARK    6  A    between atoms: C_13  and  C_14 
REMARK    7  A    between atoms: C_19  and  N_20 
ROOT
ATOM      1  N   UNL d   1      23.122 -18.257   0.247  0.00  0.00    -0.264 N 
ATOM      2  C   UNL d   1      24.012 -17.816  -0.717  0.00  0.00     0.259 C 
ATOM      3  O   UNL d   1      23.932 -18.154  -1.899  0.00  0.00    -0.267 OA
ATOM      4  H   UNL d   1      23.154 -17.997   1.231  0.00  0.00     0.190 HD
ENDROOT
BRANCH   2   5
ATOM      5  C   UNL d   1      25.094 -16.888  -0.228  0.00  0.00     0.076 C 
ATOM      6  C   UNL d   1      26.394 -17.256  -0.238  0.00  0.00     0.017 C 
BRANCH   6   7
ATOM      7  C   UNL d   1      27.545 -16.430   0.212  0.00  0.00    -0.034 A 
ATOM      8  C   UNL d   1      28.858 -16.722  -0.168  0.00  0.00     0.013 A 
ATOM      9  C   UNL d   1      29.925 -15.903   0.231  0.00  0.00     0.027 A 
ATOM     10  C   UNL d   1      29.718 -14.759   1.014  0.00  0.00     0.067 A 
ATOM     11 CL   UNL d   1      31.155 -13.888   1.428  0.00  0.00    -0.082 Cl
ATOM     12  C   UNL d   1      28.409 -14.429   1.384  0.00  0.00     0.125 A 
ATOM     13  C   UNL d   1      27.332 -15.266   0.977  0.00  0.00     0.049 A 
BRANCH  12  14
ATOM     14  N   UNL d   1      28.086 -13.227   2.178  0.00  0.00    -0.114 N 
ATOM     15  O   UNL d   1      28.078 -12.140   1.582  0.00  0.00    -0.532 OA
ATOM     16  O   UNL d   1      27.842 -13.337   3.384  0.00  0.00    -0.532 OA
ENDBRANCH  12  14
ENDBRANCH   6   7
ENDBRANCH   2   5
BRANCH   1  17
ATOM     17  N   UNL d   1      22.064 -19.149  -0.114  0.00  0.00    -0.267 N 
ATOM     18  C   UNL d   1      21.016 -18.671  -0.889  0.00  0.00     0.236 C 
ATOM     19  O   UNL d   1      20.975 -17.501  -1.269  0.00  0.00    -0.272 OA
ATOM     20  H   UNL d   1      22.145 -20.112   0.210  0.00  0.00     0.190 HD
BRANCH  18  21
ATOM     21  C   UNL d   1      19.937 -19.699  -1.241  0.00  0.00     0.105 C 
BRANCH  21  22
ATOM     22  C   UNL d   1      18.837 -19.789  -0.163  0.00  0.00     0.013 C 
BRANCH  22  23
ATOM     23  C   UNL d   1      19.129 -20.802   0.964  0.00  0.00    -0.022 C 
ATOM     24  C   UNL d   1      19.676 -20.083   2.204  0.00  0.00     0.009 C 
ATOM     25  C   UNL d   1      17.877 -21.586   1.355  0.00  0.00     0.009 C 
ENDBRANCH  22  23
ENDBRANCH  21  22
ENDBRANCH  18  21
ENDBRANCH   1  17
TORSDOF 7
ENDMDL
MODEL 4
REMARK VINA RESULT:    -6.680      1.927      2.406
REMARK INTER + INTRA:         -10.066
REMARK INTER:                  -8.768
REMARK INTRA:                  -1.298
REMARK CONF_INDEPENDENT:        2.088
REMARK UNBOUND:                -1.298
REMARK  7 active torsions:
REMARK  status: ('A' for Active; 'I' for Inactive)
REMARK    1  A    between atoms: C_2  and  C_4 
REMARK    2  A    between atoms: C_4  and  C_5 
REMARK    3  A    between atoms: C_5  and  C_6 
REMARK       I    between atoms: C_6  and  N_8 
REMARK    4  A    between atoms: N_8  and  N_9 
REMARK       I    between atoms: N_9  and  C_10 
REMARK    5  A    between atoms: C_10  and  C_12 
REMARK    6  A    between atoms: C_13  and  C_14 
REMARK    7  A    between atoms: C_19  and  N_20 
ROOT
ATOM      1  N   UNL d   1      23.574 -18.140  -0.696  0.00  0.00    -0.264 N 
ATOM      2  C   UNL d   1      24.848 -17.944  -0.191  0.00  0.00     0.259 C 
ATOM      3  O   UNL d   1      25.127 -18.121   0.996  0.00  0.00    -0.267 OA
ATOM      4  H   UNL d   1      23.308 -18.008  -1.670  0.00  0.00     0.190 HD
ENDROOT
BRANCH   2   5
ATOM      5  C   UNL d   1      25.884 -17.497  -1.190  0.00  0.00     0.076 C 
ATOM      6  C   UNL d   1      26.566 -16.341  -1.029  0.00  0.00     0.017 C 
BRANCH   6   7
ATOM      7  C   UNL d   1      27.608 -15.801  -1.939  0.00  0.00    -0.034 A 
ATOM      8  C   UNL d   1      28.927 -15.606  -1.520  0.00  0.00     0.013 A 
ATOM      9  C   UNL d   1      29.906 -15.138  -2.409  0.00  0.00     0.027 A 
ATOM     10  C   UNL d   1      29.605 -14.856  -3.750  0.00  0.00     0.067 A 
ATOM     11 CL   UNL d   1      30.934 -14.263  -4.687  0.00  0.00    -0.082 Cl
ATOM     12  C   UNL d   1      28.298 -15.069  -4.201  0.00  0.00     0.125 A 
ATOM     13  C   UNL d   1      27.309 -15.543  -3.293  0.00  0.00     0.049 A 
BRANCH  12  14
ATOM     14  N   UNL d   1      27.892 -14.834  -5.601  0.00  0.00    -0.114 N 
ATOM     15  O   UNL d   1      28.451 -13.908  -6.205  0.00  0.00    -0.532 OA
ATOM     16  O   UNL d   1      27.025 -15.550  -6.115  0.00  0.00    -0.532 OA
ENDBRANCH  12  14
ENDBRANCH   6   7
ENDBRANCH   2   5
BRANCH   1  17
ATOM     17  N   UNL d   1      22.519 -18.555   0.173  0.00  0.00    -0.267 N 
ATOM     18  C   UNL d   1      21.303 -18.938  -0.378  0.00  0.00     0.236 C 
ATOM     19  O   UNL d   1      21.113 -18.925  -1.594  0.00  0.00    -0.272 OA
ATOM     20  H   UNL d   1      22.724 -18.564   1.172  0.00  0.00     0.190 HD
BRANCH  18  21
ATOM     21  C   UNL d   1      20.237 -19.382   0.628  0.00  0.00     0.105 C 
BRANCH  21  22
ATOM     22  C   UNL d   1      20.010 -20.909   0.608  0.00  0.00     0.013 C 
BRANCH  22  23
ATOM     23  C   UNL d   1      18.577 -21.346   0.978  0.00  0.00    -0.022 C 
ATOM     24  C   UNL d   1      18.049 -20.513   2.154  0.00  0.00     0.009 C 
ATOM     25  C   UNL d   1      17.621 -21.200  -0.205  0.00  0.00     0.009 C 
ENDBRANCH  22  23
ENDBRANCH  21  22
ENDBRANCH  18  21
ENDBRANCH   1  17
TORSDOF 7
ENDMDL
MODEL 5
REMARK VINA RESULT:    -6.622      1.671      1.983
REMARK INTER + INTRA:          -9.986
REMARK INTER:                  -8.710
REMARK INTRA:                  -1.276
REMARK CONF_INDEPENDENT:        2.088
REMARK UNBOUND:                -1.276
REMARK  7 active torsions:
REMARK  status: ('A' for Active; 'I' for Inactive)
REMARK    1  A    between atoms: C_2  and  C_4 
REMARK    2  A    between atoms: C_4  and  C_5 
REMARK    3  A    between atoms: C_5  and  C_6 
REMARK       I    between atoms: C_6  and  N_8 
REMARK    4  A    between atoms: N_8  and  N_9 
REMARK       I    between atoms: N_9  and  C_10 
REMARK    5  A    between atoms: C_10  and  C_12 
REMARK    6  A    between atoms: C_13  and  C_14 
REMARK    7  A    between atoms: C_19  and  N_20 
ROOT
ATOM      1  N   UNL d   1      24.404 -17.052  -1.437  0.00  0.00    -0.264 N 
ATOM      2  C   UNL d   1      25.342 -16.154  -0.957  0.00  0.00     0.259 C 
ATOM      3  O   UNL d   1      25.409 -15.834   0.231  0.00  0.00    -0.267 OA
ATOM      4  H   UNL d   1      24.320 -17.342  -2.409  0.00  0.00     0.190 HD
ENDROOT
BRANCH   2   5
ATOM      5  C   UNL d   1      26.284 -15.584  -1.986  0.00  0.00     0.076 C 
ATOM      6  C   UNL d   1      25.905 -15.420  -3.273  0.00  0.00     0.017 C 
BRANCH   6   7
ATOM      7  C   UNL d   1      26.738 -14.867  -4.372  0.00  0.00    -0.034 A 
ATOM      8  C   UNL d   1      26.494 -13.606  -4.923  0.00  0.00     0.013 A 
ATOM      9  C   UNL d   1      27.321 -13.084  -5.929  0.00  0.00     0.027 A 
ATOM     10  C   UNL d   1      28.427 -13.798  -6.413  0.00  0.00     0.067 A 
ATOM     11 CL   UNL d   1      29.314 -13.005  -7.670  0.00  0.00    -0.082 Cl
ATOM     12  C   UNL d   1      28.710 -15.050  -5.857  0.00  0.00     0.125 A 
ATOM     13  C   UNL d   1      27.865 -15.575  -4.838  0.00  0.00     0.049 A 
BRANCH  12  14
ATOM     14  N   UNL d   1      29.870 -15.863  -6.276  0.00  0.00    -0.114 N 
ATOM     15  O   UNL d   1      30.305 -16.689  -5.461  0.00  0.00    -0.532 OA
ATOM     16  O   UNL d   1      30.362 -15.696  -7.397  0.00  0.00    -0.532 OA
ENDBRANCH  12  14
ENDBRANCH   6   7
ENDBRANCH   2   5
BRANCH   1  17
ATOM     17  N   UNL d   1      23.459 -17.641  -0.541  0.00  0.00    -0.267 N 
ATOM     18  C   UNL d   1      22.678 -18.700  -0.986  0.00  0.00     0.236 C 
ATOM     19  O   UNL d   1      22.781 -19.141  -2.131  0.00  0.00    -0.272 OA
ATOM     20  H   UNL d   1      23.417 -17.254   0.402  0.00  0.00     0.190 HD
BRANCH  18  21
ATOM     21  C   UNL d   1      21.706 -19.278   0.046  0.00  0.00     0.105 C 
BRANCH  21  22
ATOM     22  C   UNL d   1      20.300 -19.522  -0.544  0.00  0.00     0.013 C 
BRANCH  22  23
ATOM     23  C   UNL d   1      19.178 -19.640   0.510  0.00  0.00    -0.022 C 
ATOM     24  C   UNL d   1      18.289 -20.855   0.215  0.00  0.00     0.009 C 
ATOM     25  C   UNL d   1      19.745 -19.769   1.923  0.00  0.00     0.009 C 
ENDBRANCH  22  23
ENDBRANCH  21  22
ENDBRANCH  18  21
ENDBRANCH   1  17
TORSDOF 7
ENDMDL
MODEL 6
REMARK VINA RESULT:    -6.507      5.354      6.244
REMARK INTER + INTRA:          -9.893
REMARK INTER:                  -8.596
REMARK INTRA:                  -1.297
REMARK CONF_INDEPENDENT:        2.088
REMARK UNBOUND:                -1.297
REMARK  7 active torsions:
REMARK  status: ('A' for Active; 'I' for Inactive)
REMARK    1  A    between atoms: C_2  and  C_4 
REMARK    2  A    between atoms: C_4  and  C_5 
REMARK    3  A    between atoms: C_5  and  C_6 
REMARK       I    between atoms: C_6  and  N_8 
REMARK    4  A    between atoms: N_8  and  N_9 
REMARK       I    between atoms: N_9  and  C_10 
REMARK    5  A    between atoms: C_10  and  C_12 
REMARK    6  A    between atoms: C_13  and  C_14 
REMARK    7  A    between atoms: C_19  and  N_20 
ROOT
ATOM      1  N   UNL d   1      25.001 -15.997  -0.687  0.00  0.00    -0.264 N 
ATOM      2  C   UNL d   1      25.549 -15.054  -1.540  0.00  0.00     0.259 C 
ATOM      3  O   UNL d   1      25.417 -15.107  -2.763  0.00  0.00    -0.267 OA
ATOM      4  H   UNL d   1      25.087 -15.984   0.327  0.00  0.00     0.190 HD
ENDROOT
BRANCH   2   5
ATOM      5  C   UNL d   1      26.325 -13.947  -0.873  0.00  0.00     0.076 C 
ATOM      6  C   UNL d   1      26.280 -13.762   0.465  0.00  0.00     0.017 C 
BRANCH   6   7
ATOM      7  C   UNL d   1      27.002 -12.715   1.233  0.00  0.00    -0.034 A 
ATOM      8  C   UNL d   1      28.385 -12.763   1.429  0.00  0.00     0.013 A 
ATOM      9  C   UNL d   1      29.052 -11.739   2.119  0.00  0.00     0.027 A 
ATOM     10  C   UNL d   1      28.365 -10.628   2.628  0.00  0.00     0.067 A 
ATOM     11 CL   UNL d   1      29.352  -9.483   3.470  0.00  0.00    -0.082 Cl
ATOM     12  C   UNL d   1      26.984 -10.543   2.420  0.00  0.00     0.125 A 
ATOM     13  C   UNL d   1      26.313 -11.586   1.721  0.00  0.00     0.049 A 
BRANCH  12  14
ATOM     14  N   UNL d   1      26.178  -9.397   2.887  0.00  0.00    -0.114 N 
ATOM     15  O   UNL d   1      24.946  -9.527   2.869  0.00  0.00    -0.532 OA
ATOM     16  O   UNL d   1      26.743  -8.367   3.271  0.00  0.00    -0.532 OA
ENDBRANCH  12  14
ENDBRANCH   6   7
ENDBRANCH   2   5
BRANCH   1  17
ATOM     17  N   UNL d   1      24.255 -17.093  -1.222  0.00  0.00    -0.267 N 
ATOM     18  C   UNL d   1      23.876 -18.127  -0.376  0.00  0.00     0.236 C 
ATOM     19  O   UNL d   1      24.169 -18.122   0.820  0.00  0.00    -0.272 OA
ATOM     20  H   UNL d   1      24.023 -17.049  -2.214  0.00  0.00     0.190 HD
BRANCH  18  21
ATOM     21  C   UNL d   1      23.067 -19.249  -1.031  0.00  0.00     0.105 C 
BRANCH  21  22
ATOM     22  C   UNL d   1      21.584 -18.867  -1.227  0.00  0.00     0.013 C 
BRANCH  22  23
ATOM     23  C   UNL d   1      20.593 -19.713  -0.400  0.00  0.00    -0.022 C 
ATOM     24  C   UNL d   1      20.662 -19.325   1.082  0.00  0.00     0.009 C 
ATOM     25  C   UNL d   1      19.157 -19.541  -0.894  0.00  0.00     0.009 C 
ENDBRANCH  22  23
ENDBRANCH  21  22
ENDBRANCH  18  21
ENDBRANCH   1  17
TORSDOF 7
ENDMDL
MODEL 7
REMARK VINA RESULT:    -6.455      2.711      3.820
REMARK INTER + INTRA:          -9.920
REMARK INTER:                  -8.543
REMARK INTRA:                  -1.377
REMARK CONF_INDEPENDENT:        2.088
REMARK UNBOUND:                -1.377
REMARK  7 active torsions:
REMARK  status: ('A' for Active; 'I' for Inactive)
REMARK    1  A    between atoms: C_2  and  C_4 
REMARK    2  A    between atoms: C_4  and  C_5 
REMARK    3  A    between atoms: C_5  and  C_6 
REMARK       I    between atoms: C_6  and  N_8 
REMARK    4  A    between atoms: N_8  and  N_9 
REMARK       I    between atoms: N_9  and  C_10 
REMARK    5  A    between atoms: C_10  and  C_12 
REMARK    6  A    between atoms: C_13  and  C_14 
REMARK    7  A    between atoms: C_19  and  N_20 
ROOT
ATOM      1  N   UNL d   1      25.199 -16.451  -2.236  0.00  0.00    -0.264 N 
ATOM      2  C   UNL d   1      25.324 -15.372  -3.095  0.00  0.00     0.259 C 
ATOM      3  O   UNL d   1      24.417 -14.560  -3.279  0.00  0.00    -0.267 OA
ATOM      4  H   UNL d   1      25.926 -17.140  -2.057  0.00  0.00     0.190 HD
ENDROOT
BRANCH   2   5
ATOM      5  C   UNL d   1      26.651 -15.252  -3.800  0.00  0.00     0.076 C 
ATOM      6  C   UNL d   1      26.745 -14.723  -5.040  0.00  0.00     0.017 C 
BRANCH   6   7
ATOM      7  C   UNL d   1      27.991 -14.549  -5.829  0.00  0.00    -0.034 A 
ATOM      8  C   UNL d   1      28.287 -13.353  -6.489  0.00  0.00     0.013 A 
ATOM      9  C   UNL d   1      29.492 -13.194  -7.192  0.00  0.00     0.027 A 
ATOM     10  C   UNL d   1      30.447 -14.219  -7.252  0.00  0.00     0.067 A 
ATOM     11 CL   UNL d   1      31.857 -13.849  -8.185  0.00  0.00    -0.082 Cl
ATOM     12  C   UNL d   1      30.187 -15.416  -6.575  0.00  0.00     0.125 A 
ATOM     13  C   UNL d   1      28.962 -15.571  -5.866  0.00  0.00     0.049 A 
BRANCH  12  14
ATOM     14  N   UNL d   1      31.144 -16.540  -6.551  0.00  0.00    -0.114 N 
ATOM     15  O   UNL d   1      31.512 -16.994  -7.644  0.00  0.00    -0.532 OA
ATOM     16  O   UNL d   1      31.537 -16.986  -5.468  0.00  0.00    -0.532 OA
ENDBRANCH  12  14
ENDBRANCH   6   7
ENDBRANCH   2   5
BRANCH   1  17
ATOM     17  N   UNL d   1      23.975 -16.658  -1.528  0.00  0.00    -0.267 N 
ATOM     18  C   UNL d   1      23.858 -17.762  -0.693  0.00  0.00     0.236 C 
ATOM     19  O   UNL d   1      24.781 -18.564  -0.551  0.00  0.00    -0.272 OA
ATOM     20  H   UNL d   1      23.242 -15.962  -1.663  0.00  0.00     0.190 HD
BRANCH  18  21
ATOM     21  C   UNL d   1      22.519 -17.895   0.037  0.00  0.00     0.105 C 
BRANCH  21  22
ATOM     22  C   UNL d   1      21.440 -18.574  -0.833  0.00  0.00     0.013 C 
BRANCH  22  23
ATOM     23  C   UNL d   1      20.599 -19.636  -0.092  0.00  0.00    -0.022 C 
ATOM     24  C   UNL d   1      20.543 -19.325   1.409  0.00  0.00     0.009 C 
ATOM     25  C   UNL d   1      19.174 -19.708  -0.639  0.00  0.00     0.009 C 
ENDBRANCH  22  23
ENDBRANCH  21  22
ENDBRANCH  18  21
ENDBRANCH   1  17
TORSDOF 7
ENDMDL
MODEL 8
REMARK VINA RESULT:    -6.193      2.808      3.990
REMARK INTER + INTRA:          -9.609
REMARK INTER:                  -8.281
REMARK INTRA:                  -1.328
REMARK CONF_INDEPENDENT:        2.088
REMARK UNBOUND:                -1.328
REMARK  7 active torsions:
REMARK  status: ('A' for Active; 'I' for Inactive)
REMARK    1  A    between atoms: C_2  and  C_4 
REMARK    2  A    between atoms: C_4  and  C_5 
REMARK    3  A    between atoms: C_5  and  C_6 
REMARK       I    between atoms: C_6  and  N_8 
REMARK    4  A    between atoms: N_8  and  N_9 
REMARK       I    between atoms: N_9  and  C_10 
REMARK    5  A    between atoms: C_10  and  C_12 
REMARK    6  A    between atoms: C_13  and  C_14 
REMARK    7  A    between atoms: C_19  and  N_20 
ROOT
ATOM      1  N   UNL d   1      25.297 -16.342  -2.242  0.00  0.00    -0.264 N 
ATOM      2  C   UNL d   1      25.463 -15.267  -3.098  0.00  0.00     0.259 C 
ATOM      3  O   UNL d   1      24.557 -14.471  -3.348  0.00  0.00    -0.267 OA
ATOM      4  H   UNL d   1      26.022 -17.018  -2.008  0.00  0.00     0.190 HD
ENDROOT
BRANCH   2   5
ATOM      5  C   UNL d   1      26.833 -15.128  -3.711  0.00  0.00     0.076 C 
ATOM      6  C   UNL d   1      27.004 -15.084  -5.051  0.00  0.00     0.017 C 
BRANCH   6   7
ATOM      7  C   UNL d   1      28.297 -14.945  -5.768  0.00  0.00    -0.034 A 
ATOM      8  C   UNL d   1      29.280 -15.938  -5.720  0.00  0.00     0.013 A 
ATOM      9  C   UNL d   1      30.476 -15.806  -6.442  0.00  0.00     0.027 A 
ATOM     10  C   UNL d   1      30.730 -14.683  -7.243  0.00  0.00     0.067 A 
ATOM     11 CL   UNL d   1      32.267 -14.685  -8.037  0.00  0.00    -0.082 Cl
ATOM     12  C   UNL d   1      29.749 -13.689  -7.331  0.00  0.00     0.125 A 
ATOM     13  C   UNL d   1      28.539 -13.828  -6.594  0.00  0.00     0.049 A 
BRANCH  12  14
ATOM     14  N   UNL d   1      29.908 -12.487  -8.174  0.00  0.00    -0.114 N 
ATOM     15  O   UNL d   1      28.983 -12.217  -8.953  0.00  0.00    -0.532 OA
ATOM     16  O   UNL d   1      30.934 -11.805  -8.081  0.00  0.00    -0.532 OA
ENDBRANCH  12  14
ENDBRANCH   6   7
ENDBRANCH   2   5
BRANCH   1  17
ATOM     17  N   UNL d   1      24.031 -16.567  -1.617  0.00  0.00    -0.267 N 
ATOM     18  C   UNL d   1      23.906 -17.604  -0.702  0.00  0.00     0.236 C 
ATOM     19  O   UNL d   1      24.857 -18.333  -0.419  0.00  0.00    -0.272 OA
ATOM     20  H   UNL d   1      23.276 -15.931  -1.870  0.00  0.00     0.190 HD
BRANCH  18  21
ATOM     21  C   UNL d   1      22.520 -17.759  -0.071  0.00  0.00     0.105 C 
BRANCH  21  22
ATOM     22  C   UNL d   1      21.918 -19.161  -0.311  0.00  0.00     0.013 C 
BRANCH  22  23
ATOM     23  C   UNL d   1      20.464 -19.323   0.181  0.00  0.00    -0.022 C 
ATOM     24  C   UNL d   1      19.493 -19.325  -1.007  0.00  0.00     0.009 C 
ATOM     25  C   UNL d   1      20.280 -20.615   0.976  0.00  0.00     0.009 C 
ENDBRANCH  22  23
ENDBRANCH  21  22
ENDBRANCH  18  21
ENDBRANCH   1  17
TORSDOF 7
ENDMDL
MODEL 9
REMARK VINA RESULT:    -5.991      3.596      5.188
REMARK INTER + INTRA:          -9.562
REMARK INTER:                  -8.080
REMARK INTRA:                  -1.483
REMARK CONF_INDEPENDENT:        2.088
REMARK UNBOUND:                -1.483
REMARK  7 active torsions:
REMARK  status: ('A' for Active; 'I' for Inactive)
REMARK    1  A    between atoms: C_2  and  C_4 
REMARK    2  A    between atoms: C_4  and  C_5 
REMARK    3  A    between atoms: C_5  and  C_6 
REMARK       I    between atoms: C_6  and  N_8 
REMARK    4  A    between atoms: N_8  and  N_9 
REMARK       I    between atoms: N_9  and  C_10 
REMARK    5  A    between atoms: C_10  and  C_12 
REMARK    6  A    between atoms: C_13  and  C_14 
REMARK    7  A    between atoms: C_19  and  N_20 
ROOT
ATOM      1  N   UNL d   1      25.914 -15.694  -3.167  0.00  0.00    -0.264 N 
ATOM      2  C   UNL d   1      25.759 -14.786  -4.201  0.00  0.00     0.259 C 
ATOM      3  O   UNL d   1      24.760 -14.075  -4.317  0.00  0.00    -0.267 OA
ATOM      4  H   UNL d   1      26.726 -16.294  -3.037  0.00  0.00     0.190 HD
ENDROOT
BRANCH   2   5
ATOM      5  C   UNL d   1      26.899 -14.719  -5.185  0.00  0.00     0.076 C 
ATOM      6  C   UNL d   1      28.043 -15.409  -4.984  0.00  0.00     0.017 C 
BRANCH   6   7
ATOM      7  C   UNL d   1      29.228 -15.427  -5.881  0.00  0.00    -0.034 A 
ATOM      8  C   UNL d   1      29.733 -14.261  -6.462  0.00  0.00     0.013 A 
ATOM      9  C   UNL d   1      30.880 -14.294  -7.270  0.00  0.00     0.027 A 
ATOM     10  C   UNL d   1      31.568 -15.491  -7.519  0.00  0.00     0.067 A 
ATOM     11 CL   UNL d   1      32.943 -15.339  -8.558  0.00  0.00    -0.082 Cl
ATOM     12  C   UNL d   1      31.098 -16.668  -6.925  0.00  0.00     0.125 A 
ATOM     13  C   UNL d   1      29.933 -16.627  -6.108  0.00  0.00     0.049 A 
BRANCH  12  14
ATOM     14  N   UNL d   1      31.772 -17.970  -7.099  0.00  0.00    -0.114 N 
ATOM     15  O   UNL d   1      31.236 -18.788  -7.861  0.00  0.00    -0.532 OA
ATOM     16  O   UNL d   1      32.824 -18.201  -6.493  0.00  0.00    -0.532 OA
ENDBRANCH  12  14
ENDBRANCH   6   7
ENDBRANCH   2   5
BRANCH   1  17
ATOM     17  N   UNL d   1      24.885 -15.839  -2.187  0.00  0.00    -0.267 N 
ATOM     18  C   UNL d   1      25.057 -16.759  -1.160  0.00  0.00     0.236 C 
ATOM     19  O   UNL d   1      26.072 -17.450  -1.077  0.00  0.00    -0.272 OA
ATOM     20  H   UNL d   1      24.068 -15.237  -2.286  0.00  0.00     0.190 HD
BRANCH  18  21
ATOM     21  C   UNL d   1      23.911 -16.835  -0.147  0.00  0.00     0.105 C 
BRANCH  21  22
ATOM     22  C   UNL d   1      22.543 -17.064  -0.824  0.00  0.00     0.013 C 
BRANCH  22  23
ATOM     23  C   UNL d   1      22.238 -18.539  -1.162  0.00  0.00    -0.022 C 
ATOM     24  C   UNL d   1      23.280 -19.464  -0.520  0.00  0.00     0.009 C 
ATOM     25  C   UNL d   1      20.846 -18.950  -0.684  0.00  0.00     0.009 C 
ENDBRANCH  22  23
ENDBRANCH  21  22
ENDBRANCH  18  21
ENDBRANCH   1  17
TORSDOF 7
ENDMDL
