MODEL 1
REMARK VINA RESULT:    -8.982      0.000      0.000
REMARK INTER + INTRA:         -11.612
REMARK INTER:                  -9.877
REMARK INTRA:                  -1.735
REMARK CONF_INDEPENDENT:        0.895
REMARK UNBOUND:                -1.735
REMARK  3 active torsions:
REMARK  status: ('A' for Active; 'I' for Inactive)
REMARK    1  A    between atoms: C_3  and  C_4 
REMARK       I    between atoms: C_4  and  N_6 
REMARK    2  A    between atoms: N_6  and  N_7 
REMARK       I    between atoms: N_7  and  C_8 
REMARK    3  A    between atoms: C_8  and  C_10 
ROOT
ATOM      1  C   UNL d   1      24.595 -17.891  -0.500  0.00  0.00     0.294 C 
ATOM      2  O   UNL d   1      25.051 -18.574   0.426  0.00  0.00    -0.264 OA
ATOM      3  N   UNL d   1      23.227 -17.951  -0.778  0.00  0.00    -0.261 N 
ATOM      4  H   UNL d   1      22.782 -17.463  -1.537  0.00  0.00     0.190 HD
ENDROOT
BRANCH   3   5
ATOM      5  N   UNL d   1      22.299 -18.729  -0.044  0.00  0.00    -0.263 N 
ATOM      6  C   UNL d   1      20.953 -18.609  -0.399  0.00  0.00     0.273 C 
ATOM      7  O   UNL d   1      20.572 -17.827  -1.268  0.00  0.00    -0.266 OA
ATOM      8  H   UNL d   1      22.679 -19.411   0.608  0.00  0.00     0.190 HD
BRANCH   6   9
ATOM      9  C   UNL d   1      19.976 -19.459   0.330  0.00  0.00     0.075 A 
ATOM     10  C   UNL d   1      18.973 -20.137  -0.369  0.00  0.00     0.062 A 
ATOM     11  C   UNL d   1      18.068 -20.935   0.332  0.00  0.00     0.117 A 
ATOM     12  F   UNL d   1      17.107 -21.579  -0.343  0.00  0.00    -0.206 F 
ATOM     13  C   UNL d   1      18.139 -21.077   1.714  0.00  0.00     0.045 A 
ATOM     14  C   UNL d   1      19.154 -20.426   2.412  0.00  0.00     0.046 A 
ATOM     15  C   UNL d   1      20.074 -19.632   1.718  0.00  0.00     0.132 A 
ATOM     16  F   UNL d   1      21.029 -19.017   2.429  0.00  0.00    -0.205 F 
ENDBRANCH   6   9
ENDBRANCH   3   5
BRANCH   1  17
ATOM     17  C   UNL d   1      25.421 -16.995  -1.346  0.00  0.00     0.152 A 
ATOM     18  C   UNL d   1      26.772 -16.637  -1.351  0.00  0.00    -0.009 A 
ATOM     19  C   UNL d   1      27.894 -17.060  -0.482  0.00  0.00     0.052 C 
ATOM     20  C   UNL d   1      26.970 -15.725  -2.441  0.00  0.00     0.007 A 
ATOM     21  C   UNL d   1      28.089 -15.031  -2.953  0.00  0.00     0.015 A 
ATOM     22  C   UNL d   1      25.746 -15.580  -3.070  0.00  0.00     0.087 A 
ATOM     23  C   UNL d   1      27.945 -14.228  -4.090  0.00  0.00     0.001 A 
ATOM     24  C   UNL d   1      26.702 -14.108  -4.710  0.00  0.00     0.003 A 
ATOM     25  C   UNL d   1      25.569 -14.779  -4.209  0.00  0.00     0.038 A 
ATOM     26  O   UNL d   1      24.806 -16.332  -2.410  0.00  0.00    -0.304 OA
ENDBRANCH   1  17
TORSDOF 3
ENDMDL
MODEL 2
REMARK VINA RESULT:    -8.971      0.787      1.694
REMARK INTER + INTRA:         -11.552
REMARK INTER:                  -9.866
REMARK INTRA:                  -1.686
REMARK CONF_INDEPENDENT:        0.895
REMARK UNBOUND:                -1.686
REMARK  3 active torsions:
REMARK  status: ('A' for Active; 'I' for Inactive)
REMARK    1  A    between atoms: C_3  and  C_4 
REMARK       I    between atoms: C_4  and  N_6 
REMARK    2  A    between atoms: N_6  and  N_7 
REMARK       I    between atoms: N_7  and  C_8 
REMARK    3  A    between atoms: C_8  and  C_10 
ROOT
ATOM      1  C   UNL d   1      24.710 -17.769  -0.518  0.00  0.00     0.294 C 
ATOM      2  O   UNL d   1      25.184 -18.420   0.421  0.00  0.00    -0.264 OA
ATOM      3  N   UNL d   1      23.345 -17.878  -0.800  0.00  0.00    -0.261 N 
ATOM      4  H   UNL d   1      22.888 -17.418  -1.568  0.00  0.00     0.190 HD
ENDROOT
BRANCH   3   5
ATOM      5  N   UNL d   1      22.440 -18.672  -0.054  0.00  0.00    -0.263 N 
ATOM      6  C   UNL d   1      21.089 -18.582  -0.399  0.00  0.00     0.273 C 
ATOM      7  O   UNL d   1      20.685 -17.813  -1.269  0.00  0.00    -0.266 OA
ATOM      8  H   UNL d   1      22.840 -19.342   0.598  0.00  0.00     0.190 HD
BRANCH   6   9
ATOM      9  C   UNL d   1      20.136 -19.449   0.341  0.00  0.00     0.075 A 
ATOM     10  C   UNL d   1      20.281 -19.641   1.718  0.00  0.00     0.062 A 
ATOM     11  C   UNL d   1      19.374 -20.454   2.398  0.00  0.00     0.117 A 
ATOM     12  F   UNL d   1      19.521 -20.637   3.716  0.00  0.00    -0.206 F 
ATOM     13  C   UNL d   1      18.321 -21.080   1.738  0.00  0.00     0.045 A 
ATOM     14  C   UNL d   1      18.155 -20.870   0.371  0.00  0.00     0.046 A 
ATOM     15  C   UNL d   1      19.053 -20.047  -0.318  0.00  0.00     0.132 A 
ATOM     16  F   UNL d   1      18.861 -19.878  -1.634  0.00  0.00    -0.205 F 
ENDBRANCH   6   9
ENDBRANCH   3   5
BRANCH   1  17
ATOM     17  C   UNL d   1      25.510 -16.863  -1.377  0.00  0.00     0.152 A 
ATOM     18  C   UNL d   1      26.864 -16.520  -1.433  0.00  0.00    -0.009 A 
ATOM     19  C   UNL d   1      28.017 -16.978  -0.624  0.00  0.00     0.052 C 
ATOM     20  C   UNL d   1      27.027 -15.585  -2.509  0.00  0.00     0.007 A 
ATOM     21  C   UNL d   1      28.131 -14.892  -3.052  0.00  0.00     0.015 A 
ATOM     22  C   UNL d   1      25.779 -15.410  -3.080  0.00  0.00     0.087 A 
ATOM     23  C   UNL d   1      27.948 -14.060  -4.162  0.00  0.00     0.001 A 
ATOM     24  C   UNL d   1      26.682 -13.910  -4.725  0.00  0.00     0.003 A 
ATOM     25  C   UNL d   1      25.562 -14.579  -4.191  0.00  0.00     0.038 A 
ATOM     26  O   UNL d   1      24.858 -16.166  -2.398  0.00  0.00    -0.304 OA
ENDBRANCH   1  17
TORSDOF 3
ENDMDL
MODEL 3
REMARK VINA RESULT:    -8.116      1.288      2.413
REMARK INTER + INTRA:         -10.379
REMARK INTER:                  -9.011
REMARK INTRA:                  -1.367
REMARK CONF_INDEPENDENT:        0.895
REMARK UNBOUND:                -1.367
REMARK  3 active torsions:
REMARK  status: ('A' for Active; 'I' for Inactive)
REMARK    1  A    between atoms: C_3  and  C_4 
REMARK       I    between atoms: C_4  and  N_6 
REMARK    2  A    between atoms: N_6  and  N_7 
REMARK       I    between atoms: N_7  and  C_8 
REMARK    3  A    between atoms: C_8  and  C_10 
ROOT
ATOM      1  C   UNL d   1      24.981 -17.864  -0.268  0.00  0.00     0.294 C 
ATOM      2  O   UNL d   1      25.369 -18.501   0.720  0.00  0.00    -0.264 OA
ATOM      3  N   UNL d   1      23.642 -17.958  -0.655  0.00  0.00    -0.261 N 
ATOM      4  H   UNL d   1      23.255 -17.509  -1.467  0.00  0.00     0.190 HD
ENDROOT
BRANCH   3   5
ATOM      5  N   UNL d   1      22.667 -18.722   0.033  0.00  0.00    -0.263 N 
ATOM      6  C   UNL d   1      21.342 -18.579  -0.386  0.00  0.00     0.273 C 
ATOM      7  O   UNL d   1      21.016 -17.791  -1.271  0.00  0.00    -0.266 OA
ATOM      8  H   UNL d   1      23.005 -19.411   0.701  0.00  0.00     0.190 HD
BRANCH   6   9
ATOM      9  C   UNL d   1      20.318 -19.414   0.294  0.00  0.00     0.075 A 
ATOM     10  C   UNL d   1      20.407 -19.661   1.667  0.00  0.00     0.062 A 
ATOM     11  C   UNL d   1      19.433 -20.443   2.289  0.00  0.00     0.117 A 
ATOM     12  F   UNL d   1      19.526 -20.679   3.603  0.00  0.00    -0.206 F 
ATOM     13  C   UNL d   1      18.367 -20.983   1.575  0.00  0.00     0.045 A 
ATOM     14  C   UNL d   1      18.258 -20.718   0.213  0.00  0.00     0.046 A 
ATOM     15  C   UNL d   1      19.224 -19.925  -0.419  0.00  0.00     0.132 A 
ATOM     16  F   UNL d   1      19.085 -19.700  -1.733  0.00  0.00    -0.205 F 
ENDBRANCH   6   9
ENDBRANCH   3   5
BRANCH   1  17
ATOM     17  C   UNL d   1      25.862 -16.989  -1.080  0.00  0.00     0.152 A 
ATOM     18  C   UNL d   1      25.636 -15.900  -1.927  0.00  0.00    -0.009 A 
ATOM     19  C   UNL d   1      24.384 -15.208  -2.308  0.00  0.00     0.052 C 
ATOM     20  C   UNL d   1      26.913 -15.466  -2.417  0.00  0.00     0.007 A 
ATOM     21  C   UNL d   1      27.335 -14.436  -3.287  0.00  0.00     0.015 A 
ATOM     22  C   UNL d   1      27.865 -16.286  -1.838  0.00  0.00     0.087 A 
ATOM     23  C   UNL d   1      28.700 -14.253  -3.531  0.00  0.00     0.001 A 
ATOM     24  C   UNL d   1      29.639 -15.087  -2.927  0.00  0.00     0.003 A 
ATOM     25  C   UNL d   1      29.241 -16.131  -2.068  0.00  0.00     0.038 A 
ATOM     26  O   UNL d   1      27.240 -17.213  -1.041  0.00  0.00    -0.304 OA
ENDBRANCH   1  17
TORSDOF 3
ENDMDL
MODEL 4
REMARK VINA RESULT:    -6.786      5.944     10.144
REMARK INTER + INTRA:          -9.105
REMARK INTER:                  -7.680
REMARK INTRA:                  -1.425
REMARK CONF_INDEPENDENT:        0.895
REMARK UNBOUND:                -1.425
REMARK  3 active torsions:
REMARK  status: ('A' for Active; 'I' for Inactive)
REMARK    1  A    between atoms: C_3  and  C_4 
REMARK       I    between atoms: C_4  and  N_6 
REMARK    2  A    between atoms: N_6  and  N_7 
REMARK       I    between atoms: N_7  and  C_8 
REMARK    3  A    between atoms: C_8  and  C_10 
ROOT
ATOM      1  C   UNL d   1      25.155 -13.886  -3.529  0.00  0.00     0.294 C 
ATOM      2  O   UNL d   1      24.655 -14.080  -4.645  0.00  0.00    -0.264 OA
ATOM      3  N   UNL d   1      25.459 -12.579  -3.139  0.00  0.00    -0.261 N 
ATOM      4  H   UNL d   1      25.904 -12.338  -2.270  0.00  0.00     0.190 HD
ENDROOT
BRANCH   3   5
ATOM      5  N   UNL d   1      25.204 -11.433  -3.931  0.00  0.00    -0.263 N 
ATOM      6  C   UNL d   1      25.707 -10.216  -3.461  0.00  0.00     0.273 C 
ATOM      7  O   UNL d   1      26.296 -10.122  -2.386  0.00  0.00    -0.266 OA
ATOM      8  H   UNL d   1      24.781 -11.584  -4.843  0.00  0.00     0.190 HD
BRANCH   6   9
ATOM      9  C   UNL d   1      25.491  -9.016  -4.309  0.00  0.00     0.075 A 
ATOM     10  C   UNL d   1      25.529  -7.738  -3.744  0.00  0.00     0.062 A 
ATOM     11  C   UNL d   1      25.329  -6.621  -4.557  0.00  0.00     0.117 A 
ATOM     12  F   UNL d   1      25.364  -5.400  -4.009  0.00  0.00    -0.206 F 
ATOM     13  C   UNL d   1      25.095  -6.747  -5.923  0.00  0.00     0.045 A 
ATOM     14  C   UNL d   1      25.083  -8.016  -6.496  0.00  0.00     0.046 A 
ATOM     15  C   UNL d   1      25.293  -9.142  -5.691  0.00  0.00     0.132 A 
ATOM     16  F   UNL d   1      25.267 -10.345  -6.282  0.00  0.00    -0.205 F 
ENDBRANCH   6   9
ENDBRANCH   3   5
BRANCH   1  17
ATOM     17  C   UNL d   1      25.453 -14.970  -2.562  0.00  0.00     0.152 A 
ATOM     18  C   UNL d   1      26.596 -15.354  -1.855  0.00  0.00    -0.009 A 
ATOM     19  C   UNL d   1      27.958 -14.773  -1.818  0.00  0.00     0.052 C 
ATOM     20  C   UNL d   1      26.244 -16.494  -1.056  0.00  0.00     0.007 A 
ATOM     21  C   UNL d   1      26.949 -17.313  -0.147  0.00  0.00     0.015 A 
ATOM     22  C   UNL d   1      24.904 -16.746  -1.287  0.00  0.00     0.087 A 
ATOM     23  C   UNL d   1      26.279 -18.348   0.514  0.00  0.00     0.001 A 
ATOM     24  C   UNL d   1      24.925 -18.574   0.271  0.00  0.00     0.003 A 
ATOM     25  C   UNL d   1      24.205 -17.780  -0.643  0.00  0.00     0.038 A 
ATOM     26  O   UNL d   1      24.423 -15.842  -2.201  0.00  0.00    -0.304 OA
ENDBRANCH   1  17
TORSDOF 3
ENDMDL
MODEL 5
REMARK VINA RESULT:    -6.667      5.910     10.059
REMARK INTER + INTRA:          -8.950
REMARK INTER:                  -7.562
REMARK INTRA:                  -1.388
REMARK CONF_INDEPENDENT:        0.895
REMARK UNBOUND:                -1.388
REMARK  3 active torsions:
REMARK  status: ('A' for Active; 'I' for Inactive)
REMARK    1  A    between atoms: C_3  and  C_4 
REMARK       I    between atoms: C_4  and  N_6 
REMARK    2  A    between atoms: N_6  and  N_7 
REMARK       I    between atoms: N_7  and  C_8 
REMARK    3  A    between atoms: C_8  and  C_10 
ROOT
ATOM      1  C   UNL d   1      25.183 -13.924  -3.538  0.00  0.00     0.294 C 
ATOM      2  O   UNL d   1      24.650 -14.075  -4.645  0.00  0.00    -0.264 OA
ATOM      3  N   UNL d   1      25.547 -12.638  -3.130  0.00  0.00    -0.261 N 
ATOM      4  H   UNL d   1      26.022 -12.431  -2.268  0.00  0.00     0.190 HD
ENDROOT
BRANCH   3   5
ATOM      5  N   UNL d   1      25.319 -11.467  -3.893  0.00  0.00    -0.263 N 
ATOM      6  C   UNL d   1      25.936 -10.294  -3.450  0.00  0.00     0.273 C 
ATOM      7  O   UNL d   1      26.603 -10.254  -2.418  0.00  0.00    -0.266 OA
ATOM      8  H   UNL d   1      24.824 -11.577  -4.774  0.00  0.00     0.190 HD
BRANCH   6   9
ATOM      9  C   UNL d   1      25.746  -9.070  -4.271  0.00  0.00     0.075 A 
ATOM     10  C   UNL d   1      25.730  -9.153  -5.667  0.00  0.00     0.062 A 
ATOM     11  C   UNL d   1      25.545  -7.994  -6.421  0.00  0.00     0.117 A 
ATOM     12  F   UNL d   1      25.535  -8.079  -7.757  0.00  0.00    -0.206 F 
ATOM     13  C   UNL d   1      25.372  -6.752  -5.818  0.00  0.00     0.045 A 
ATOM     14  C   UNL d   1      25.359  -6.668  -4.428  0.00  0.00     0.046 A 
ATOM     15  C   UNL d   1      25.533  -7.826  -3.662  0.00  0.00     0.132 A 
ATOM     16  F   UNL d   1      25.521  -7.699  -2.327  0.00  0.00    -0.205 F 
ENDBRANCH   6   9
ENDBRANCH   3   5
BRANCH   1  17
ATOM     17  C   UNL d   1      25.462 -15.038  -2.600  0.00  0.00     0.152 A 
ATOM     18  C   UNL d   1      26.625 -15.547  -2.014  0.00  0.00    -0.009 A 
ATOM     19  C   UNL d   1      28.037 -15.119  -2.126  0.00  0.00     0.052 C 
ATOM     20  C   UNL d   1      26.237 -16.645  -1.175  0.00  0.00     0.007 A 
ATOM     21  C   UNL d   1      26.940 -17.540  -0.338  0.00  0.00     0.015 A 
ATOM     22  C   UNL d   1      24.860 -16.749  -1.261  0.00  0.00     0.087 A 
ATOM     23  C   UNL d   1      26.234 -18.498   0.397  0.00  0.00     0.001 A 
ATOM     24  C   UNL d   1      24.846 -18.575   0.300  0.00  0.00     0.003 A 
ATOM     25  C   UNL d   1      24.124 -17.703  -0.540  0.00  0.00     0.038 A 
ATOM     26  O   UNL d   1      24.387 -15.793  -2.126  0.00  0.00    -0.304 OA
ENDBRANCH   1  17
TORSDOF 3
ENDMDL
MODEL 6
REMARK VINA RESULT:    -6.456      5.946     10.509
REMARK INTER + INTRA:          -8.760
REMARK INTER:                  -7.351
REMARK INTRA:                  -1.408
REMARK CONF_INDEPENDENT:        0.895
REMARK UNBOUND:                -1.408
REMARK  3 active torsions:
REMARK  status: ('A' for Active; 'I' for Inactive)
REMARK    1  A    between atoms: C_3  and  C_4 
REMARK       I    between atoms: C_4  and  N_6 
REMARK    2  A    between atoms: N_6  and  N_7 
REMARK       I    between atoms: N_7  and  C_8 
REMARK    3  A    between atoms: C_8  and  C_10 
ROOT
ATOM      1  C   UNL d   1      24.805 -13.963  -3.787  0.00  0.00     0.294 C 
ATOM      2  O   UNL d   1      23.664 -13.701  -4.188  0.00  0.00    -0.264 OA
ATOM      3  N   UNL d   1      25.888 -13.251  -4.308  0.00  0.00    -0.261 N 
ATOM      4  H   UNL d   1      26.849 -13.428  -4.069  0.00  0.00     0.190 HD
ENDROOT
BRANCH   3   5
ATOM      5  N   UNL d   1      25.771 -12.209  -5.260  0.00  0.00    -0.263 N 
ATOM      6  C   UNL d   1      26.951 -11.779  -5.875  0.00  0.00     0.273 C 
ATOM      7  O   UNL d   1      28.051 -12.237  -5.573  0.00  0.00    -0.266 OA
ATOM      8  H   UNL d   1      24.831 -11.924  -5.523  0.00  0.00     0.190 HD
BRANCH   6   9
ATOM      9  C   UNL d   1      26.834 -10.722  -6.912  0.00  0.00     0.075 A 
ATOM     10  C   UNL d   1      26.418  -9.434  -6.563  0.00  0.00     0.062 A 
ATOM     11  C   UNL d   1      26.319  -8.453  -7.550  0.00  0.00     0.117 A 
ATOM     12  F   UNL d   1      25.917  -7.222  -7.209  0.00  0.00    -0.206 F 
ATOM     13  C   UNL d   1      26.628  -8.723  -8.880  0.00  0.00     0.045 A 
ATOM     14  C   UNL d   1      27.070  -9.997  -9.229  0.00  0.00     0.046 A 
ATOM     15  C   UNL d   1      27.183 -10.986  -8.244  0.00  0.00     0.132 A 
ATOM     16  F   UNL d   1      27.604 -12.200  -8.625  0.00  0.00    -0.205 F 
ENDBRANCH   6   9
ENDBRANCH   3   5
BRANCH   1  17
ATOM     17  C   UNL d   1      25.101 -15.000  -2.768  0.00  0.00     0.152 A 
ATOM     18  C   UNL d   1      26.279 -15.527  -2.232  0.00  0.00    -0.009 A 
ATOM     19  C   UNL d   1      27.699 -15.204  -2.500  0.00  0.00     0.052 C 
ATOM     20  C   UNL d   1      25.904 -16.512  -1.258  0.00  0.00     0.007 A 
ATOM     21  C   UNL d   1      26.625 -17.369  -0.397  0.00  0.00     0.015 A 
ATOM     22  C   UNL d   1      24.522 -16.534  -1.221  0.00  0.00     0.087 A 
ATOM     23  C   UNL d   1      25.934 -18.205   0.485  0.00  0.00     0.001 A 
ATOM     24  C   UNL d   1      24.540 -18.200   0.510  0.00  0.00     0.003 A 
ATOM     25  C   UNL d   1      23.799 -17.365  -0.351  0.00  0.00     0.038 A 
ATOM     26  O   UNL d   1      24.030 -15.635  -2.135  0.00  0.00    -0.304 OA
ENDBRANCH   1  17
TORSDOF 3
ENDMDL
MODEL 7
REMARK VINA RESULT:    -6.323      5.638     10.561
REMARK INTER + INTRA:          -8.653
REMARK INTER:                  -7.217
REMARK INTRA:                  -1.435
REMARK CONF_INDEPENDENT:        0.895
REMARK UNBOUND:                -1.435
REMARK  3 active torsions:
REMARK  status: ('A' for Active; 'I' for Inactive)
REMARK    1  A    between atoms: C_3  and  C_4 
REMARK       I    between atoms: C_4  and  N_6 
REMARK    2  A    between atoms: N_6  and  N_7 
REMARK       I    between atoms: N_7  and  C_8 
REMARK    3  A    between atoms: C_8  and  C_10 
ROOT
ATOM      1  C   UNL d   1      26.208 -14.146  -3.049  0.00  0.00     0.294 C 
ATOM      2  O   UNL d   1      26.144 -12.950  -2.735  0.00  0.00    -0.264 OA
ATOM      3  N   UNL d   1      26.889 -14.506  -4.215  0.00  0.00    -0.261 N 
ATOM      4  H   UNL d   1      26.953 -15.447  -4.564  0.00  0.00     0.190 HD
ENDROOT
BRANCH   3   5
ATOM      5  N   UNL d   1      27.550 -13.588  -5.066  0.00  0.00    -0.263 N 
ATOM      6  C   UNL d   1      28.172 -14.114  -6.202  0.00  0.00     0.273 C 
ATOM      7  O   UNL d   1      28.199 -15.321  -6.434  0.00  0.00    -0.266 OA
ATOM      8  H   UNL d   1      27.429 -12.598  -4.864  0.00  0.00     0.190 HD
BRANCH   6   9
ATOM      9  C   UNL d   1      28.825 -13.154  -7.129  0.00  0.00     0.075 A 
ATOM     10  C   UNL d   1      30.139 -13.367  -7.554  0.00  0.00     0.062 A 
ATOM     11  C   UNL d   1      30.735 -12.458  -8.429  0.00  0.00     0.117 A 
ATOM     12  F   UNL d   1      31.995 -12.666  -8.829  0.00  0.00    -0.206 F 
ATOM     13  C   UNL d   1      30.049 -11.340  -8.895  0.00  0.00     0.045 A 
ATOM     14  C   UNL d   1      28.730 -11.137  -8.497  0.00  0.00     0.046 A 
ATOM     15  C   UNL d   1      28.120 -12.049  -7.628  0.00  0.00     0.132 A 
ATOM     16  F   UNL d   1      26.852 -11.812  -7.264  0.00  0.00    -0.205 F 
ENDBRANCH   6   9
ENDBRANCH   3   5
BRANCH   1  17
ATOM     17  C   UNL d   1      25.601 -15.239  -2.252  0.00  0.00     0.152 A 
ATOM     18  C   UNL d   1      26.118 -16.329  -1.545  0.00  0.00    -0.009 A 
ATOM     19  C   UNL d   1      27.513 -16.775  -1.330  0.00  0.00     0.052 C 
ATOM     20  C   UNL d   1      25.008 -17.029  -0.963  0.00  0.00     0.007 A 
ATOM     21  C   UNL d   1      24.886 -18.180  -0.154  0.00  0.00     0.015 A 
ATOM     22  C   UNL d   1      23.866 -16.332  -1.315  0.00  0.00     0.087 A 
ATOM     23  C   UNL d   1      23.622 -18.583   0.288  0.00  0.00     0.001 A 
ATOM     24  C   UNL d   1      22.488 -17.857  -0.072  0.00  0.00     0.003 A 
ATOM     25  C   UNL d   1      22.584 -16.714  -0.891  0.00  0.00     0.038 A 
ATOM     26  O   UNL d   1      24.212 -15.260  -2.101  0.00  0.00    -0.304 OA
ENDBRANCH   1  17
TORSDOF 3
ENDMDL
MODEL 8
REMARK VINA RESULT:    -6.289      5.521      8.182
REMARK INTER + INTRA:          -8.625
REMARK INTER:                  -7.184
REMARK INTRA:                  -1.441
REMARK CONF_INDEPENDENT:        0.895
REMARK UNBOUND:                -1.441
REMARK  3 active torsions:
REMARK  status: ('A' for Active; 'I' for Inactive)
REMARK    1  A    between atoms: C_3  and  C_4 
REMARK       I    between atoms: C_4  and  N_6 
REMARK    2  A    between atoms: N_6  and  N_7 
REMARK       I    between atoms: N_7  and  C_8 
REMARK    3  A    between atoms: C_8  and  C_10 
ROOT
ATOM      1  C   UNL d   1      25.922 -10.644  -3.467  0.00  0.00     0.294 C 
ATOM      2  O   UNL d   1      26.697 -10.422  -2.528  0.00  0.00    -0.264 OA
ATOM      3  N   UNL d   1      25.381 -11.924  -3.612  0.00  0.00    -0.261 N 
ATOM      4  H   UNL d   1      24.779 -12.201  -4.368  0.00  0.00     0.190 HD
ENDROOT
BRANCH   3   5
ATOM      5  N   UNL d   1      25.636 -13.000  -2.727  0.00  0.00    -0.263 N 
ATOM      6  C   UNL d   1      25.136 -14.252  -3.095  0.00  0.00     0.273 C 
ATOM      7  O   UNL d   1      24.459 -14.416  -4.109  0.00  0.00    -0.266 OA
ATOM      8  H   UNL d   1      26.264 -12.821  -1.948  0.00  0.00     0.190 HD
BRANCH   6   9
ATOM      9  C   UNL d   1      25.441 -15.399  -2.201  0.00  0.00     0.075 A 
ATOM     10  C   UNL d   1      24.405 -16.155  -1.646  0.00  0.00     0.062 A 
ATOM     11  C   UNL d   1      24.711 -17.232  -0.812  0.00  0.00     0.117 A 
ATOM     12  F   UNL d   1      23.713 -17.950  -0.280  0.00  0.00    -0.206 F 
ATOM     13  C   UNL d   1      26.027 -17.576  -0.520  0.00  0.00     0.045 A 
ATOM     14  C   UNL d   1      27.064 -16.844  -1.093  0.00  0.00     0.046 A 
ATOM     15  C   UNL d   1      26.768 -15.769  -1.939  0.00  0.00     0.132 A 
ATOM     16  F   UNL d   1      27.796 -15.086  -2.463  0.00  0.00    -0.205 F 
ENDBRANCH   6   9
ENDBRANCH   3   5
BRANCH   1  17
ATOM     17  C   UNL d   1      25.522  -9.621  -4.463  0.00  0.00     0.152 A 
ATOM     18  C   UNL d   1      26.016  -9.237  -5.714  0.00  0.00    -0.009 A 
ATOM     19  C   UNL d   1      27.150  -9.753  -6.512  0.00  0.00     0.052 C 
ATOM     20  C   UNL d   1      25.178  -8.177  -6.198  0.00  0.00     0.007 A 
ATOM     21  C   UNL d   1      25.162  -7.394  -7.374  0.00  0.00     0.015 A 
ATOM     22  C   UNL d   1      24.198  -7.971  -5.243  0.00  0.00     0.087 A 
ATOM     23  C   UNL d   1      24.153  -6.443  -7.559  0.00  0.00     0.001 A 
ATOM     24  C   UNL d   1      23.172  -6.264  -6.585  0.00  0.00     0.003 A 
ATOM     25  C   UNL d   1      23.176  -7.022  -5.397  0.00  0.00     0.038 A 
ATOM     26  O   UNL d   1      24.405  -8.828  -4.190  0.00  0.00    -0.304 OA
ENDBRANCH   1  17
TORSDOF 3
ENDMDL
MODEL 9
REMARK VINA RESULT:    -6.052      5.848     10.204
REMARK INTER + INTRA:          -8.591
REMARK INTER:                  -6.947
REMARK INTRA:                  -1.644
REMARK CONF_INDEPENDENT:        0.895
REMARK UNBOUND:                -1.644
REMARK  3 active torsions:
REMARK  status: ('A' for Active; 'I' for Inactive)
REMARK    1  A    between atoms: C_3  and  C_4 
REMARK       I    between atoms: C_4  and  N_6 
REMARK    2  A    between atoms: N_6  and  N_7 
REMARK       I    between atoms: N_7  and  C_8 
REMARK    3  A    between atoms: C_8  and  C_10 
ROOT
ATOM      1  C   UNL d   1      24.803 -14.135  -3.370  0.00  0.00     0.294 C 
ATOM      2  O   UNL d   1      23.680 -14.075  -3.887  0.00  0.00    -0.264 OA
ATOM      3  N   UNL d   1      25.761 -13.178  -3.715  0.00  0.00    -0.261 N 
ATOM      4  H   UNL d   1      26.708 -13.178  -3.375  0.00  0.00     0.190 HD
ENDROOT
BRANCH   3   5
ATOM      5  N   UNL d   1      25.528 -12.105  -4.609  0.00  0.00    -0.263 N 
ATOM      6  C   UNL d   1      26.558 -11.173  -4.759  0.00  0.00     0.273 C 
ATOM      7  O   UNL d   1      27.600 -11.238  -4.110  0.00  0.00    -0.266 OA
ATOM      8  H   UNL d   1      24.682 -12.146  -5.172  0.00  0.00     0.190 HD
BRANCH   6   9
ATOM      9  C   UNL d   1      26.345 -10.071  -5.733  0.00  0.00     0.075 A 
ATOM     10  C   UNL d   1      27.002 -10.083  -6.966  0.00  0.00     0.062 A 
ATOM     11  C   UNL d   1      26.786  -9.043  -7.870  0.00  0.00     0.117 A 
ATOM     12  F   UNL d   1      27.421  -9.058  -9.049  0.00  0.00    -0.206 F 
ATOM     13  C   UNL d   1      25.926  -7.989  -7.576  0.00  0.00     0.045 A 
ATOM     14  C   UNL d   1      25.247  -7.985  -6.360  0.00  0.00     0.046 A 
ATOM     15  C   UNL d   1      25.448  -9.030  -5.451  0.00  0.00     0.132 A 
ATOM     16  F   UNL d   1      24.781  -8.984  -4.289  0.00  0.00    -0.205 F 
ENDBRANCH   6   9
ENDBRANCH   3   5
BRANCH   1  17
ATOM     17  C   UNL d   1      25.202 -15.173  -2.388  0.00  0.00     0.152 A 
ATOM     18  C   UNL d   1      24.498 -16.006  -1.514  0.00  0.00    -0.009 A 
ATOM     19  C   UNL d   1      23.046 -16.152  -1.268  0.00  0.00     0.052 C 
ATOM     20  C   UNL d   1      25.462 -16.813  -0.822  0.00  0.00     0.007 A 
ATOM     21  C   UNL d   1      25.375 -17.823   0.162  0.00  0.00     0.015 A 
ATOM     22  C   UNL d   1      26.707 -16.462  -1.313  0.00  0.00     0.087 A 
ATOM     23  C   UNL d   1      26.539 -18.458   0.607  0.00  0.00     0.001 A 
ATOM     24  C   UNL d   1      27.780 -18.092   0.088  0.00  0.00     0.003 A 
ATOM     25  C   UNL d   1      27.893 -17.077  -0.883  0.00  0.00     0.038 A 
ATOM     26  O   UNL d   1      26.561 -15.467  -2.247  0.00  0.00    -0.304 OA
ENDBRANCH   1  17
TORSDOF 3
ENDMDL
