MODEL 1
REMARK VINA RESULT:   -27.016      0.000      0.000
REMARK INTER + INTRA:         -30.537
REMARK INTER:                 -28.806
REMARK INTRA:                  -1.731
REMARK CONF_INDEPENDENT:        1.790
REMARK UNBOUND:                -1.731
REMARK  6 active torsions:
REMARK  status: ('A' for Active; 'I' for Inactive)
REMARK    1  A    between atoms: C_5  and  C_6 
REMARK    2  A    between atoms: C_9  and  N_10 
REMARK    3  A    between atoms: N_10  and  C_11 
REMARK    4  A    between atoms: C_11  and  C_12 
REMARK    5  A    between atoms: C_12  and  N_13 
REMARK    6  A    between atoms: C_19  and  N_20 
ROOT
ATOM      1  C   UNL d   1      21.707 -18.043  -0.276  0.00  0.00    -0.002 A 
ATOM      2  C   UNL d   1      21.604 -16.811  -0.899  0.00  0.00     0.016 A 
ATOM      3  C   UNL d   1      22.767 -16.068  -1.139  0.00  0.00     0.032 A 
ATOM      4  C   UNL d   1      24.053 -16.457  -0.659  0.00  0.00     0.061 A 
ATOM      5  C   UNL d   1      24.125 -17.733  -0.006  0.00  0.00     0.130 A 
ATOM      6  C   UNL d   1      22.942 -18.487   0.181  0.00  0.00     0.052 A 
ENDROOT
BRANCH   1   7
ATOM      7  C   UNL d   1      20.569 -18.988  -0.179  0.00  0.00     0.098 A 
ATOM      8  N   UNL d   1      19.904 -19.233  -1.270  0.00  0.00    -0.170 NA
ATOM      9  N   UNL d   1      18.806 -20.035  -1.185  0.00  0.00    -0.242 N 
ATOM     10  C   UNL d   1      18.264 -20.546  -0.031  0.00  0.00     0.272 A 
ATOM     11  H   UNL d   1      18.319 -20.240  -2.053  0.00  0.00     0.192 HD
ATOM     12  O   UNL d   1      17.224 -21.198  -0.022  0.00  0.00    -0.266 OA
ATOM     13  C   UNL d   1      19.017 -20.292   1.207  0.00  0.00     0.046 A 
ATOM     14  C   UNL d   1      18.585 -20.829   2.426  0.00  0.00     0.018 A 
ATOM     15  C   UNL d   1      20.185 -19.540   1.145  0.00  0.00     0.011 A 
ATOM     16  C   UNL d   1      19.348 -20.643   3.578  0.00  0.00     0.001 A 
ATOM     17  C   UNL d   1      20.523 -19.899   3.520  0.00  0.00     0.001 A 
ATOM     18  C   UNL d   1      20.925 -19.326   2.316  0.00  0.00     0.015 A 
ENDBRANCH   1   7
BRANCH   5  19
ATOM     19  N   UNL d   1      25.331 -18.463   0.509  0.00  0.00    -0.113 N 
ATOM     20  O   UNL d   1      25.552 -18.575   1.720  0.00  0.00    -0.532 OA
ATOM     21  O   UNL d   1      26.105 -18.954  -0.318  0.00  0.00    -0.532 OA
ENDBRANCH   5  19
BRANCH   4  22
ATOM     22  N   UNL d   1      25.057 -15.509  -0.935  0.00  0.00    -0.386 N 
ATOM     23  H   UNL d   1      24.791 -14.526  -0.903  0.00  0.00     0.159 HD
BRANCH  22  24
ATOM     24  C   UNL d   1      26.450 -15.869  -0.874  0.00  0.00     0.147 C 
BRANCH  24  25
ATOM     25  C   UNL d   1      27.219 -15.713   0.425  0.00  0.00     0.254 C 
BRANCH  25  26
ATOM     26  N   UNL d   1      28.610 -16.384   0.317  0.00  0.00    -0.066 N 
ATOM     27  C   UNL d   1      28.646 -17.252  -0.939  0.00  0.00     0.261 C 
ATOM     28  C   UNL d   1      30.019 -17.902  -1.117  0.00  0.00     0.195 C 
ATOM     29  O   UNL d   1      31.045 -16.909  -1.165  0.00  0.00    -0.388 OA
ATOM     30  C   UNL d   1      31.128 -16.212   0.080  0.00  0.00     0.195 C 
ATOM     31  C   UNL d   1      29.831 -15.431   0.349  0.00  0.00     0.261 C 
ATOM     32  H   UNL d   1      28.717 -16.998   1.139  0.00  0.00     0.280 HD
ENDBRANCH  25  26
ENDBRANCH  24  25
ENDBRANCH  22  24
ENDBRANCH   4  22
TORSDOF 6
ENDMDL
MODEL 2
REMARK VINA RESULT:   -26.550      1.980      2.489
REMARK INTER + INTRA:         -29.487
REMARK INTER:                 -28.339
REMARK INTRA:                  -1.148
REMARK CONF_INDEPENDENT:        1.790
REMARK UNBOUND:                -1.148
REMARK  6 active torsions:
REMARK  status: ('A' for Active; 'I' for Inactive)
REMARK    1  A    between atoms: C_5  and  C_6 
REMARK    2  A    between atoms: C_9  and  N_10 
REMARK    3  A    between atoms: N_10  and  C_11 
REMARK    4  A    between atoms: C_11  and  C_12 
REMARK    5  A    between atoms: C_12  and  N_13 
REMARK    6  A    between atoms: C_19  and  N_20 
ROOT
ATOM      1  C   UNL d   1      21.730 -18.012  -0.301  0.00  0.00    -0.002 A 
ATOM      2  C   UNL d   1      21.612 -16.766  -0.892  0.00  0.00     0.016 A 
ATOM      3  C   UNL d   1      22.768 -16.020  -1.150  0.00  0.00     0.032 A 
ATOM      4  C   UNL d   1      24.067 -16.423  -0.719  0.00  0.00     0.061 A 
ATOM      5  C   UNL d   1      24.156 -17.713  -0.098  0.00  0.00     0.130 A 
ATOM      6  C   UNL d   1      22.978 -18.469   0.108  0.00  0.00     0.052 A 
ENDROOT
BRANCH   1   7
ATOM      7  C   UNL d   1      20.593 -18.957  -0.190  0.00  0.00     0.098 A 
ATOM      8  N   UNL d   1      19.904 -19.188  -1.269  0.00  0.00    -0.170 NA
ATOM      9  N   UNL d   1      18.807 -19.989  -1.170  0.00  0.00    -0.242 N 
ATOM     10  C   UNL d   1      18.290 -20.514  -0.010  0.00  0.00     0.272 A 
ATOM     11  H   UNL d   1      18.300 -20.182  -2.029  0.00  0.00     0.192 HD
ATOM     12  O   UNL d   1      17.249 -21.164   0.013  0.00  0.00    -0.266 OA
ATOM     13  C   UNL d   1      19.070 -20.276   1.213  0.00  0.00     0.046 A 
ATOM     14  C   UNL d   1      18.664 -20.827   2.435  0.00  0.00     0.018 A 
ATOM     15  C   UNL d   1      20.238 -19.525   1.135  0.00  0.00     0.011 A 
ATOM     16  C   UNL d   1      19.453 -20.656   3.572  0.00  0.00     0.001 A 
ATOM     17  C   UNL d   1      20.627 -19.914   3.498  0.00  0.00     0.001 A 
ATOM     18  C   UNL d   1      21.003 -19.326   2.292  0.00  0.00     0.015 A 
ENDBRANCH   1   7
BRANCH   5  19
ATOM     19  N   UNL d   1      25.376 -18.457   0.363  0.00  0.00    -0.113 N 
ATOM     20  O   UNL d   1      25.648 -18.573   1.563  0.00  0.00    -0.532 OA
ATOM     21  O   UNL d   1      26.107 -18.955  -0.498  0.00  0.00    -0.532 OA
ENDBRANCH   5  19
BRANCH   4  22
ATOM     22  N   UNL d   1      25.065 -15.471  -1.005  0.00  0.00    -0.386 N 
ATOM     23  H   UNL d   1      24.790 -14.490  -0.993  0.00  0.00     0.159 HD
BRANCH  22  24
ATOM     24  C   UNL d   1      26.461 -15.816  -0.924  0.00  0.00     0.147 C 
BRANCH  24  25
ATOM     25  C   UNL d   1      27.519 -14.798  -1.305  0.00  0.00     0.254 C 
BRANCH  25  26
ATOM     26  N   UNL d   1      27.477 -14.512  -2.827  0.00  0.00    -0.066 N 
ATOM     27  C   UNL d   1      28.029 -15.724  -3.574  0.00  0.00     0.261 C 
ATOM     28  C   UNL d   1      27.967 -15.511  -5.087  0.00  0.00     0.195 C 
ATOM     29  O   UNL d   1      26.628 -15.234  -5.502  0.00  0.00    -0.388 OA
ATOM     30  C   UNL d   1      26.172 -14.002  -4.939  0.00  0.00     0.195 C 
ATOM     31  C   UNL d   1      26.100 -14.103  -3.406  0.00  0.00     0.261 C 
ATOM     32  H   UNL d   1      28.102 -13.711  -3.003  0.00  0.00     0.280 HD
ENDBRANCH  25  26
ENDBRANCH  24  25
ENDBRANCH  22  24
ENDBRANCH   4  22
TORSDOF 6
ENDMDL
MODEL 3
REMARK VINA RESULT:   -24.360      2.612      3.551
REMARK INTER + INTRA:         -28.795
REMARK INTER:                 -26.150
REMARK INTRA:                  -2.645
REMARK CONF_INDEPENDENT:        1.790
REMARK UNBOUND:                -2.645
REMARK  6 active torsions:
REMARK  status: ('A' for Active; 'I' for Inactive)
REMARK    1  A    between atoms: C_5  and  C_6 
REMARK    2  A    between atoms: C_9  and  N_10 
REMARK    3  A    between atoms: N_10  and  C_11 
REMARK    4  A    between atoms: C_11  and  C_12 
REMARK    5  A    between atoms: C_12  and  N_13 
REMARK    6  A    between atoms: C_19  and  N_20 
ROOT
ATOM      1  C   UNL d   1      21.804 -18.348  -0.222  0.00  0.00    -0.002 A 
ATOM      2  C   UNL d   1      22.916 -18.623   0.554  0.00  0.00     0.016 A 
ATOM      3  C   UNL d   1      23.963 -17.695   0.600  0.00  0.00     0.032 A 
ATOM      4  C   UNL d   1      24.003 -16.526  -0.216  0.00  0.00     0.061 A 
ATOM      5  C   UNL d   1      22.842 -16.274  -1.020  0.00  0.00     0.130 A 
ATOM      6  C   UNL d   1      21.775 -17.204  -1.011  0.00  0.00     0.052 A 
ENDROOT
BRANCH   1   7
ATOM      7  C   UNL d   1      20.564 -19.160  -0.161  0.00  0.00     0.098 A 
ATOM      8  N   UNL d   1      19.905 -19.324  -1.270  0.00  0.00    -0.170 NA
ATOM      9  N   UNL d   1      18.721 -19.998  -1.218  0.00  0.00    -0.242 N 
ATOM     10  C   UNL d   1      18.096 -20.450  -0.082  0.00  0.00     0.272 A 
ATOM     11  H   UNL d   1      18.237 -20.142  -2.099  0.00  0.00     0.192 HD
ATOM     12  O   UNL d   1      16.989 -20.981  -0.104  0.00  0.00    -0.266 OA
ATOM     13  C   UNL d   1      18.840 -20.287   1.176  0.00  0.00     0.046 A 
ATOM     14  C   UNL d   1      18.319 -20.778   2.380  0.00  0.00     0.018 A 
ATOM     15  C   UNL d   1      20.087 -19.671   1.149  0.00  0.00     0.011 A 
ATOM     16  C   UNL d   1      19.069 -20.684   3.552  0.00  0.00     0.001 A 
ATOM     17  C   UNL d   1      20.321 -20.077   3.530  0.00  0.00     0.001 A 
ATOM     18  C   UNL d   1      20.815 -19.547   2.340  0.00  0.00     0.015 A 
ENDBRANCH   1   7
BRANCH   5  19
ATOM     19  N   UNL d   1      22.535 -15.093  -1.893  0.00  0.00    -0.113 N 
ATOM     20  O   UNL d   1      21.405 -14.594  -1.934  0.00  0.00    -0.532 OA
ATOM     21  O   UNL d   1      23.452 -14.626  -2.576  0.00  0.00    -0.532 OA
ENDBRANCH   5  19
BRANCH   4  22
ATOM     22  N   UNL d   1      25.196 -15.791  -0.072  0.00  0.00    -0.386 N 
ATOM     23  H   UNL d   1      25.176 -14.989   0.556  0.00  0.00     0.159 HD
BRANCH  22  24
ATOM     24  C   UNL d   1      26.463 -16.355  -0.460  0.00  0.00     0.147 C 
BRANCH  24  25
ATOM     25  C   UNL d   1      27.087 -15.980  -1.791  0.00  0.00     0.254 C 
BRANCH  25  26
ATOM     26  N   UNL d   1      26.228 -14.913  -2.513  0.00  0.00    -0.066 N 
ATOM     27  C   UNL d   1      26.823 -13.533  -2.242  0.00  0.00     0.261 C 
ATOM     28  C   UNL d   1      26.036 -12.443  -2.972  0.00  0.00     0.195 C 
ATOM     29  O   UNL d   1      25.997 -12.705  -4.376  0.00  0.00    -0.388 OA
ATOM     30  C   UNL d   1      25.283 -13.914  -4.642  0.00  0.00     0.195 C 
ATOM     31  C   UNL d   1      26.018 -15.120  -4.033  0.00  0.00     0.261 C 
ATOM     32  H   UNL d   1      25.286 -14.947  -2.095  0.00  0.00     0.280 HD
ENDBRANCH  25  26
ENDBRANCH  24  25
ENDBRANCH  22  24
ENDBRANCH   4  22
TORSDOF 6
ENDMDL
