MODEL 1
REMARK VINA RESULT:    -9.075      0.000      0.000
REMARK INTER + INTRA:         -15.827
REMARK INTER:                 -13.549
REMARK INTRA:                  -2.278
REMARK CONF_INDEPENDENT:        4.474
REMARK UNBOUND:                -2.278
REMARK  15 active torsions:
REMARK  status: ('A' for Active; 'I' for Inactive)
REMARK    1  A    between atoms: C_2  and  C_3 
REMARK    2  A    between atoms: C_3  and  C_4 
REMARK    3  A    between atoms: C_4  and  O_5 
REMARK    4  A    between atoms: O_5  and  C_6 
REMARK    5  A    between atoms: C_9  and  C_10 
REMARK    6  A    between atoms: C_10  and  N_11 
REMARK    7  A    between atoms: N_11  and  C_12 
REMARK    8  A    between atoms: C_16  and  N_17 
REMARK    9  A    between atoms: N_17  and  C_18 
REMARK   10  A    between atoms: C_18  and  C_19 
REMARK   11  A    between atoms: C_22  and  O_23 
REMARK   12  A    between atoms: O_23  and  C_24 
REMARK   13  A    between atoms: C_24  and  C_25 
REMARK   14  A    between atoms: C_25  and  C_26 
REMARK   15  A    between atoms: C_30  and  N_31 
ROOT
ATOM      1  C   UNL d   1      26.882 -14.389  -2.430  0.00  0.00     0.162 A 
ATOM      2  N   UNL d   1      27.637 -13.887  -1.431  0.00  0.00    -0.222 NA
ATOM      3  C   UNL d   1      27.706 -12.555  -1.341  0.00  0.00     0.237 A 
ATOM      4  N   UNL d   1      27.094 -11.696  -2.165  0.00  0.00    -0.222 NA
ATOM      5  C   UNL d   1      26.290 -12.210  -3.125  0.00  0.00     0.162 A 
ATOM      6  C   UNL d   1      26.143 -13.582  -3.275  0.00  0.00     0.193 A 
ENDROOT
BRANCH   1   7
ATOM      7  N   UNL d   1      26.846 -15.764  -2.508  0.00  0.00    -0.368 N 
ATOM      8  H   UNL d   1      26.265 -16.056  -3.280  0.00  0.00     0.161 HD
BRANCH   7   9
ATOM      9  C   UNL d   1      26.785 -16.568  -1.285  0.00  0.00     0.160 C 
BRANCH   9  10
ATOM     10  C   UNL d   1      25.372 -16.993  -0.996  0.00  0.00    -0.040 A 
ATOM     11  C   UNL d   1      24.323 -16.101  -1.266  0.00  0.00     0.011 A 
ATOM     12  C   UNL d   1      23.010 -16.442  -0.939  0.00  0.00     0.037 A 
ATOM     13  C   UNL d   1      22.727 -17.694  -0.395  0.00  0.00     0.068 A 
ATOM     14  C   UNL d   1      23.761 -18.583  -0.131  0.00  0.00     0.037 A 
ATOM     15  C   UNL d   1      25.069 -18.232  -0.420  0.00  0.00     0.011 A 
BRANCH  13  16
ATOM     16  O   UNL d   1      21.406 -18.004  -0.246  0.00  0.00    -0.351 OA
BRANCH  16  17
ATOM     17  C   UNL d   1      20.994 -19.203  -0.897  0.00  0.00     0.175 C 
BRANCH  17  18
ATOM     18  C   UNL d   1      19.490 -19.331  -0.718  0.00  0.00     0.026 C 
BRANCH  18  19
ATOM     19  C   UNL d   1      19.158 -20.380   0.336  0.00  0.00    -0.002 C 
ATOM     20  C   UNL d   1      19.861 -20.071   1.644  0.00  0.00     0.005 C 
ENDBRANCH  18  19
ENDBRANCH  17  18
ENDBRANCH  16  17
ENDBRANCH  13  16
ENDBRANCH   9  10
ENDBRANCH   7   9
ENDBRANCH   1   7
BRANCH   6  21
ATOM     21  N   UNL d   1      25.163 -14.265  -4.116  0.00  0.00    -0.108 N 
ATOM     22  O   UNL d   1      25.443 -15.399  -4.563  0.00  0.00    -0.532 OA
ATOM     23  O   UNL d   1      24.054 -13.757  -4.269  0.00  0.00    -0.532 OA
ENDBRANCH   6  21
BRANCH   5  24
ATOM     24  N   UNL d   1      25.642 -11.213  -3.814  0.00  0.00    -0.368 N 
ATOM     25  H   UNL d   1      24.784 -11.521  -4.258  0.00  0.00     0.161 HD
BRANCH  24  26
ATOM     26  C   UNL d   1      25.873  -9.837  -3.483  0.00  0.00     0.160 C 
BRANCH  26  27
ATOM     27  C   UNL d   1      25.197  -8.802  -4.287  0.00  0.00    -0.040 A 
ATOM     28  C   UNL d   1      25.156  -7.488  -3.777  0.00  0.00     0.011 A 
ATOM     29  C   UNL d   1      24.409  -6.526  -4.435  0.00  0.00     0.037 A 
ATOM     30  C   UNL d   1      23.789  -6.863  -5.637  0.00  0.00     0.068 A 
ATOM     31  C   UNL d   1      23.879  -8.163  -6.145  0.00  0.00     0.037 A 
ATOM     32  C   UNL d   1      24.600  -9.123  -5.486  0.00  0.00     0.011 A 
BRANCH  30  33
ATOM     33  O   UNL d   1      23.132  -5.849  -6.277  0.00  0.00    -0.351 OA
BRANCH  33  34
ATOM     34  C   UNL d   1      21.740  -5.798  -5.970  0.00  0.00     0.175 C 
BRANCH  34  35
ATOM     35  C   UNL d   1      20.965  -6.200  -7.202  0.00  0.00     0.026 C 
BRANCH  35  36
ATOM     36  C   UNL d   1      19.470  -6.171  -6.921  0.00  0.00    -0.002 C 
ATOM     37  C   UNL d   1      18.717  -6.911  -8.008  0.00  0.00     0.005 C 
ENDBRANCH  35  36
ENDBRANCH  34  35
ENDBRANCH  33  34
ENDBRANCH  30  33
ENDBRANCH  26  27
ENDBRANCH  24  26
ENDBRANCH   5  24
TORSDOF 15
ENDMDL
MODEL 2
REMARK VINA RESULT:    -8.933      5.851     10.133
REMARK INTER + INTRA:         -15.804
REMARK INTER:                 -13.408
REMARK INTRA:                  -2.397
REMARK CONF_INDEPENDENT:        4.474
REMARK UNBOUND:                -2.397
REMARK  15 active torsions:
REMARK  status: ('A' for Active; 'I' for Inactive)
REMARK    1  A    between atoms: C_2  and  C_3 
REMARK    2  A    between atoms: C_3  and  C_4 
REMARK    3  A    between atoms: C_4  and  O_5 
REMARK    4  A    between atoms: O_5  and  C_6 
REMARK    5  A    between atoms: C_9  and  C_10 
REMARK    6  A    between atoms: C_10  and  N_11 
REMARK    7  A    between atoms: N_11  and  C_12 
REMARK    8  A    between atoms: C_16  and  N_17 
REMARK    9  A    between atoms: N_17  and  C_18 
REMARK   10  A    between atoms: C_18  and  C_19 
REMARK   11  A    between atoms: C_22  and  O_23 
REMARK   12  A    between atoms: O_23  and  C_24 
REMARK   13  A    between atoms: C_24  and  C_25 
REMARK   14  A    between atoms: C_25  and  C_26 
REMARK   15  A    between atoms: C_30  and  N_31 
ROOT
ATOM      1  C   UNL d   1      28.550 -15.558  -3.843  0.00  0.00     0.162 A 
ATOM      2  N   UNL d   1      29.459 -15.975  -2.937  0.00  0.00    -0.222 NA
ATOM      3  C   UNL d   1      29.031 -16.118  -1.678  0.00  0.00     0.237 A 
ATOM      4  N   UNL d   1      27.785 -15.873  -1.257  0.00  0.00    -0.222 NA
ATOM      5  C   UNL d   1      26.866 -15.516  -2.186  0.00  0.00     0.162 A 
ATOM      6  C   UNL d   1      27.220 -15.366  -3.520  0.00  0.00     0.193 A 
ENDROOT
BRANCH   1   7
ATOM      7  N   UNL d   1      29.026 -15.403  -5.126  0.00  0.00    -0.368 N 
ATOM      8  H   UNL d   1      28.326 -15.686  -5.796  0.00  0.00     0.161 HD
BRANCH   7   9
ATOM      9  C   UNL d   1      30.419 -15.731  -5.438  0.00  0.00     0.160 C 
BRANCH   9  10
ATOM     10  C   UNL d   1      30.548 -17.169  -5.856  0.00  0.00    -0.040 A 
ATOM     11  C   UNL d   1      30.779 -17.469  -7.207  0.00  0.00     0.011 A 
ATOM     12  C   UNL d   1      30.828 -18.796  -7.633  0.00  0.00     0.037 A 
ATOM     13  C   UNL d   1      30.706 -19.833  -6.710  0.00  0.00     0.068 A 
ATOM     14  C   UNL d   1      30.482 -19.542  -5.371  0.00  0.00     0.037 A 
ATOM     15  C   UNL d   1      30.395 -18.226  -4.951  0.00  0.00     0.011 A 
BRANCH  13  16
ATOM     16  O   UNL d   1      30.916 -21.095  -7.186  0.00  0.00    -0.351 OA
BRANCH  16  17
ATOM     17  C   UNL d   1      32.287 -21.457  -7.338  0.00  0.00     0.175 C 
BRANCH  17  18
ATOM     18  C   UNL d   1      32.554 -22.639  -6.420  0.00  0.00     0.026 C 
BRANCH  18  19
ATOM     19  C   UNL d   1      31.868 -22.445  -5.074  0.00  0.00    -0.002 C 
ATOM     20  C   UNL d   1      31.531 -23.782  -4.442  0.00  0.00     0.005 C 
ENDBRANCH  18  19
ENDBRANCH  17  18
ENDBRANCH  16  17
ENDBRANCH  13  16
ENDBRANCH   9  10
ENDBRANCH   7   9
ENDBRANCH   1   7
BRANCH   6  21
ATOM     21  N   UNL d   1      26.307 -15.192  -4.647  0.00  0.00    -0.108 N 
ATOM     22  O   UNL d   1      26.673 -15.575  -5.780  0.00  0.00    -0.532 OA
ATOM     23  O   UNL d   1      25.168 -14.780  -4.431  0.00  0.00    -0.532 OA
ENDBRANCH   6  21
BRANCH   5  24
ATOM     24  N   UNL d   1      25.615 -15.413  -1.630  0.00  0.00    -0.368 N 
ATOM     25  H   UNL d   1      24.911 -15.076  -2.278  0.00  0.00     0.161 HD
BRANCH  24  26
ATOM     26  C   UNL d   1      25.270 -16.188  -0.473  0.00  0.00     0.160 C 
BRANCH  26  27
ATOM     27  C   UNL d   1      24.094 -17.075  -0.550  0.00  0.00    -0.040 A 
ATOM     28  C   UNL d   1      24.309 -18.467  -0.489  0.00  0.00     0.011 A 
ATOM     29  C   UNL d   1      23.246 -19.328  -0.700  0.00  0.00     0.037 A 
ATOM     30  C   UNL d   1      21.972 -18.793  -0.880  0.00  0.00     0.068 A 
ATOM     31  C   UNL d   1      21.778 -17.407  -0.894  0.00  0.00     0.037 A 
ATOM     32  C   UNL d   1      22.830 -16.551  -0.706  0.00  0.00     0.011 A 
BRANCH  30  33
ATOM     33  O   UNL d   1      20.954 -19.696  -1.006  0.00  0.00    -0.351 OA
BRANCH  33  34
ATOM     34  C   UNL d   1      19.778 -19.323  -0.291  0.00  0.00     0.175 C 
BRANCH  34  35
ATOM     35  C   UNL d   1      19.930 -19.774   1.142  0.00  0.00     0.026 C 
BRANCH  35  36
ATOM     36  C   UNL d   1      18.735 -20.617   1.562  0.00  0.00    -0.002 C 
ATOM     37  C   UNL d   1      18.039 -21.189   0.344  0.00  0.00     0.005 C 
ENDBRANCH  35  36
ENDBRANCH  34  35
ENDBRANCH  33  34
ENDBRANCH  30  33
ENDBRANCH  26  27
ENDBRANCH  24  26
ENDBRANCH   5  24
TORSDOF 15
ENDMDL
MODEL 3
REMARK VINA RESULT:    -8.867      0.765      1.297
REMARK INTER + INTRA:         -15.304
REMARK INTER:                 -13.342
REMARK INTRA:                  -1.963
REMARK CONF_INDEPENDENT:        4.474
REMARK UNBOUND:                -1.963
REMARK  15 active torsions:
REMARK  status: ('A' for Active; 'I' for Inactive)
REMARK    1  A    between atoms: C_2  and  C_3 
REMARK    2  A    between atoms: C_3  and  C_4 
REMARK    3  A    between atoms: C_4  and  O_5 
REMARK    4  A    between atoms: O_5  and  C_6 
REMARK    5  A    between atoms: C_9  and  C_10 
REMARK    6  A    between atoms: C_10  and  N_11 
REMARK    7  A    between atoms: N_11  and  C_12 
REMARK    8  A    between atoms: C_16  and  N_17 
REMARK    9  A    between atoms: N_17  and  C_18 
REMARK   10  A    between atoms: C_18  and  C_19 
REMARK   11  A    between atoms: C_22  and  O_23 
REMARK   12  A    between atoms: O_23  and  C_24 
REMARK   13  A    between atoms: C_24  and  C_25 
REMARK   14  A    between atoms: C_25  and  C_26 
REMARK   15  A    between atoms: C_30  and  N_31 
ROOT
ATOM      1  C   UNL d   1      26.806 -14.441  -2.351  0.00  0.00     0.162 A 
ATOM      2  N   UNL d   1      26.966 -13.698  -1.235  0.00  0.00    -0.222 NA
ATOM      3  C   UNL d   1      26.757 -12.383  -1.354  0.00  0.00     0.237 A 
ATOM      4  N   UNL d   1      26.412 -11.758  -2.487  0.00  0.00    -0.222 NA
ATOM      5  C   UNL d   1      26.194 -12.521  -3.584  0.00  0.00     0.162 A 
ATOM      6  C   UNL d   1      26.366 -13.898  -3.543  0.00  0.00     0.193 A 
ENDROOT
BRANCH   1   7
ATOM      7  N   UNL d   1      27.047 -15.789  -2.200  0.00  0.00    -0.368 N 
ATOM      8  H   UNL d   1      26.783 -16.287  -3.038  0.00  0.00     0.161 HD
BRANCH   7   9
ATOM      9  C   UNL d   1      26.775 -16.445  -0.920  0.00  0.00     0.160 C 
BRANCH   9  10
ATOM     10  C   UNL d   1      25.342 -16.894  -0.843  0.00  0.00    -0.040 A 
ATOM     11  C   UNL d   1      24.321 -15.953  -1.049  0.00  0.00     0.011 A 
ATOM     12  C   UNL d   1      22.985 -16.326  -0.910  0.00  0.00     0.037 A 
ATOM     13  C   UNL d   1      22.653 -17.649  -0.624  0.00  0.00     0.068 A 
ATOM     14  C   UNL d   1      23.659 -18.586  -0.425  0.00  0.00     0.037 A 
ATOM     15  C   UNL d   1      24.988 -18.209  -0.524  0.00  0.00     0.011 A 
BRANCH  13  16
ATOM     16  O   UNL d   1      21.324 -17.960  -0.655  0.00  0.00    -0.351 OA
BRANCH  16  17
ATOM     17  C   UNL d   1      21.029 -19.345  -0.490  0.00  0.00     0.175 C 
BRANCH  17  18
ATOM     18  C   UNL d   1      19.517 -19.489  -0.429  0.00  0.00     0.026 C 
BRANCH  18  19
ATOM     19  C   UNL d   1      19.104 -20.363   0.749  0.00  0.00    -0.002 C 
ATOM     20  C   UNL d   1      19.902 -20.007   1.989  0.00  0.00     0.005 C 
ENDBRANCH  18  19
ENDBRANCH  17  18
ENDBRANCH  16  17
ENDBRANCH  13  16
ENDBRANCH   9  10
ENDBRANCH   7   9
ENDBRANCH   1   7
BRANCH   6  21
ATOM     21  N   UNL d   1      25.972 -14.854  -4.574  0.00  0.00    -0.108 N 
ATOM     22  O   UNL d   1      24.796 -14.825  -5.001  0.00  0.00    -0.532 OA
ATOM     23  O   UNL d   1      26.831 -15.582  -5.071  0.00  0.00    -0.532 OA
ENDBRANCH   6  21
BRANCH   5  24
ATOM     24  N   UNL d   1      25.737 -11.760  -4.632  0.00  0.00    -0.368 N 
ATOM     25  H   UNL d   1      24.772 -11.950  -4.879  0.00  0.00     0.161 HD
BRANCH  24  26
ATOM     26  C   UNL d   1      26.368 -10.512  -4.950  0.00  0.00     0.160 C 
BRANCH  26  27
ATOM     27  C   UNL d   1      25.588  -9.271  -4.784  0.00  0.00    -0.040 A 
ATOM     28  C   UNL d   1      24.632  -8.952  -5.770  0.00  0.00     0.011 A 
ATOM     29  C   UNL d   1      23.986  -7.729  -5.720  0.00  0.00     0.037 A 
ATOM     30  C   UNL d   1      24.233  -6.882  -4.642  0.00  0.00     0.068 A 
ATOM     31  C   UNL d   1      25.157  -7.239  -3.653  0.00  0.00     0.037 A 
ATOM     32  C   UNL d   1      25.814  -8.439  -3.709  0.00  0.00     0.011 A 
BRANCH  30  33
ATOM     33  O   UNL d   1      23.507  -5.724  -4.610  0.00  0.00    -0.351 OA
BRANCH  33  34
ATOM     34  C   UNL d   1      22.867  -5.426  -5.849  0.00  0.00     0.175 C 
BRANCH  34  35
ATOM     35  C   UNL d   1      21.398  -5.746  -5.715  0.00  0.00     0.026 C 
BRANCH  35  36
ATOM     36  C   UNL d   1      20.830  -6.201  -7.052  0.00  0.00    -0.002 C 
ATOM     37  C   UNL d   1      19.534  -5.475  -7.347  0.00  0.00     0.005 C 
ENDBRANCH  35  36
ENDBRANCH  34  35
ENDBRANCH  33  34
ENDBRANCH  30  33
ENDBRANCH  26  27
ENDBRANCH  24  26
ENDBRANCH   5  24
TORSDOF 15
ENDMDL
MODEL 4
REMARK VINA RESULT:    -8.518      5.776     10.011
REMARK INTER + INTRA:         -15.480
REMARK INTER:                 -12.993
REMARK INTRA:                  -2.487
REMARK CONF_INDEPENDENT:        4.474
REMARK UNBOUND:                -2.487
REMARK  15 active torsions:
REMARK  status: ('A' for Active; 'I' for Inactive)
REMARK    1  A    between atoms: C_2  and  C_3 
REMARK    2  A    between atoms: C_3  and  C_4 
REMARK    3  A    between atoms: C_4  and  O_5 
REMARK    4  A    between atoms: O_5  and  C_6 
REMARK    5  A    between atoms: C_9  and  C_10 
REMARK    6  A    between atoms: C_10  and  N_11 
REMARK    7  A    between atoms: N_11  and  C_12 
REMARK    8  A    between atoms: C_16  and  N_17 
REMARK    9  A    between atoms: N_17  and  C_18 
REMARK   10  A    between atoms: C_18  and  C_19 
REMARK   11  A    between atoms: C_22  and  O_23 
REMARK   12  A    between atoms: O_23  and  C_24 
REMARK   13  A    between atoms: C_24  and  C_25 
REMARK   14  A    between atoms: C_25  and  C_26 
REMARK   15  A    between atoms: C_30  and  N_31 
ROOT
ATOM      1  C   UNL d   1      28.556 -15.272  -3.617  0.00  0.00     0.162 A 
ATOM      2  N   UNL d   1      29.497 -15.568  -2.695  0.00  0.00    -0.222 NA
ATOM      3  C   UNL d   1      29.082 -15.679  -1.428  0.00  0.00     0.237 A 
ATOM      4  N   UNL d   1      27.820 -15.512  -1.015  0.00  0.00    -0.222 NA
ATOM      5  C   UNL d   1      26.876 -15.277  -1.957  0.00  0.00     0.162 A 
ATOM      6  C   UNL d   1      27.216 -15.169  -3.298  0.00  0.00     0.193 A 
ENDROOT
BRANCH   1   7
ATOM      7  N   UNL d   1      29.018 -15.146  -4.909  0.00  0.00    -0.368 N 
ATOM      8  H   UNL d   1      28.315 -15.458  -5.564  0.00  0.00     0.161 HD
BRANCH   7   9
ATOM      9  C   UNL d   1      30.412 -15.463  -5.225  0.00  0.00     0.160 C 
BRANCH   9  10
ATOM     10  C   UNL d   1      30.529 -16.852  -5.790  0.00  0.00    -0.040 A 
ATOM     11  C   UNL d   1      30.064 -17.937  -5.031  0.00  0.00     0.011 A 
ATOM     12  C   UNL d   1      30.227 -19.241  -5.499  0.00  0.00     0.037 A 
ATOM     13  C   UNL d   1      30.801 -19.471  -6.748  0.00  0.00     0.068 A 
ATOM     14  C   UNL d   1      31.259 -18.400  -7.505  0.00  0.00     0.037 A 
ATOM     15  C   UNL d   1      31.132 -17.106  -7.027  0.00  0.00     0.011 A 
BRANCH  13  16
ATOM     16  O   UNL d   1      30.786 -20.761  -7.193  0.00  0.00    -0.351 OA
BRANCH  16  17
ATOM     17  C   UNL d   1      32.065 -21.387  -7.259  0.00  0.00     0.175 C 
BRANCH  17  18
ATOM     18  C   UNL d   1      32.168 -22.348  -6.086  0.00  0.00     0.026 C 
BRANCH  18  19
ATOM     19  C   UNL d   1      32.254 -21.587  -4.769  0.00  0.00    -0.002 C 
ATOM     20  C   UNL d   1      31.253 -22.130  -3.766  0.00  0.00     0.005 C 
ENDBRANCH  18  19
ENDBRANCH  17  18
ENDBRANCH  16  17
ENDBRANCH  13  16
ENDBRANCH   9  10
ENDBRANCH   7   9
ENDBRANCH   1   7
BRANCH   6  21
ATOM     21  N   UNL d   1      26.291 -15.127  -4.428  0.00  0.00    -0.108 N 
ATOM     22  O   UNL d   1      26.671 -15.578  -5.531  0.00  0.00    -0.532 OA
ATOM     23  O   UNL d   1      25.134 -14.755  -4.236  0.00  0.00    -0.532 OA
ENDBRANCH   6  21
BRANCH   5  24
ATOM     24  N   UNL d   1      25.621 -15.245  -1.400  0.00  0.00    -0.368 N 
ATOM     25  H   UNL d   1      24.916 -14.851  -2.014  0.00  0.00     0.161 HD
BRANCH  24  26
ATOM     26  C   UNL d   1      25.279 -16.137  -0.330  0.00  0.00     0.160 C 
BRANCH  26  27
ATOM     27  C   UNL d   1      24.198 -17.115  -0.553  0.00  0.00    -0.040 A 
ATOM     28  C   UNL d   1      22.904 -16.623  -0.821  0.00  0.00     0.011 A 
ATOM     29  C   UNL d   1      21.842 -17.508  -0.894  0.00  0.00     0.037 A 
ATOM     30  C   UNL d   1      22.097 -18.874  -0.789  0.00  0.00     0.068 A 
ATOM     31  C   UNL d   1      23.396 -19.340  -0.565  0.00  0.00     0.037 A 
ATOM     32  C   UNL d   1      24.447 -18.468  -0.472  0.00  0.00     0.011 A 
BRANCH  30  33
ATOM     33  O   UNL d   1      21.018 -19.699  -0.947  0.00  0.00    -0.351 OA
BRANCH  33  34
ATOM     34  C   UNL d   1      19.778 -19.072  -0.626  0.00  0.00     0.175 C 
BRANCH  34  35
ATOM     35  C   UNL d   1      18.776 -20.147  -0.282  0.00  0.00     0.026 C 
BRANCH  35  36
ATOM     36  C   UNL d   1      18.981 -20.625   1.148  0.00  0.00    -0.002 C 
ATOM     37  C   UNL d   1      19.911 -19.686   1.889  0.00  0.00     0.005 C 
ENDBRANCH  35  36
ENDBRANCH  34  35
ENDBRANCH  33  34
ENDBRANCH  30  33
ENDBRANCH  26  27
ENDBRANCH  24  26
ENDBRANCH   5  24
TORSDOF 15
ENDMDL
MODEL 5
REMARK VINA RESULT:    -8.364      2.191     10.200
REMARK INTER + INTRA:         -15.210
REMARK INTER:                 -12.839
REMARK INTRA:                  -2.371
REMARK CONF_INDEPENDENT:        4.474
REMARK UNBOUND:                -2.371
REMARK  15 active torsions:
REMARK  status: ('A' for Active; 'I' for Inactive)
REMARK    1  A    between atoms: C_2  and  C_3 
REMARK    2  A    between atoms: C_3  and  C_4 
REMARK    3  A    between atoms: C_4  and  O_5 
REMARK    4  A    between atoms: O_5  and  C_6 
REMARK    5  A    between atoms: C_9  and  C_10 
REMARK    6  A    between atoms: C_10  and  N_11 
REMARK    7  A    between atoms: N_11  and  C_12 
REMARK    8  A    between atoms: C_16  and  N_17 
REMARK    9  A    between atoms: N_17  and  C_18 
REMARK   10  A    between atoms: C_18  and  C_19 
REMARK   11  A    between atoms: C_22  and  O_23 
REMARK   12  A    between atoms: O_23  and  C_24 
REMARK   13  A    between atoms: C_24  and  C_25 
REMARK   14  A    between atoms: C_25  and  C_26 
REMARK   15  A    between atoms: C_30  and  N_31 
ROOT
ATOM      1  C   UNL d   1      26.324 -14.787  -4.559  0.00  0.00     0.162 A 
ATOM      2  N   UNL d   1      25.127 -14.176  -4.422  0.00  0.00    -0.222 NA
ATOM      3  C   UNL d   1      24.485 -14.364  -3.265  0.00  0.00     0.237 A 
ATOM      4  N   UNL d   1      24.934 -15.111  -2.249  0.00  0.00    -0.222 NA
ATOM      5  C   UNL d   1      26.163 -15.667  -2.372  0.00  0.00     0.162 A 
ATOM      6  C   UNL d   1      26.908 -15.504  -3.532  0.00  0.00     0.193 A 
ENDROOT
BRANCH   1   7
ATOM      7  N   UNL d   1      26.951 -14.589  -5.769  0.00  0.00    -0.368 N 
ATOM      8  H   UNL d   1      27.303 -15.465  -6.128  0.00  0.00     0.161 HD
BRANCH   7   9
ATOM      9  C   UNL d   1      27.779 -13.399  -5.982  0.00  0.00     0.160 C 
BRANCH   9  10
ATOM     10  C   UNL d   1      27.056 -12.159  -5.533  0.00  0.00    -0.040 A 
ATOM     11  C   UNL d   1      27.164 -11.754  -4.194  0.00  0.00     0.011 A 
ATOM     12  C   UNL d   1      26.445 -10.650  -3.736  0.00  0.00     0.037 A 
ATOM     13  C   UNL d   1      25.660  -9.909  -4.617  0.00  0.00     0.068 A 
ATOM     14  C   UNL d   1      25.554 -10.303  -5.945  0.00  0.00     0.037 A 
ATOM     15  C   UNL d   1      26.237 -11.421  -6.395  0.00  0.00     0.011 A 
BRANCH  13  16
ATOM     16  O   UNL d   1      25.113  -8.761  -4.122  0.00  0.00    -0.351 OA
BRANCH  16  17
ATOM     17  C   UNL d   1      24.752  -7.796  -5.108  0.00  0.00     0.175 C 
BRANCH  17  18
ATOM     18  C   UNL d   1      23.261  -7.939  -5.368  0.00  0.00     0.026 C 
BRANCH  18  19
ATOM     19  C   UNL d   1      22.711  -6.699  -6.062  0.00  0.00    -0.002 C 
ATOM     20  C   UNL d   1      23.263  -6.580  -7.470  0.00  0.00     0.005 C 
ENDBRANCH  18  19
ENDBRANCH  17  18
ENDBRANCH  16  17
ENDBRANCH  13  16
ENDBRANCH   9  10
ENDBRANCH   7   9
ENDBRANCH   1   7
BRANCH   6  21
ATOM     21  N   UNL d   1      28.311 -15.865  -3.722  0.00  0.00    -0.108 N 
ATOM     22  O   UNL d   1      29.044 -15.972  -2.714  0.00  0.00    -0.532 OA
ATOM     23  O   UNL d   1      28.701 -16.160  -4.850  0.00  0.00    -0.532 OA
ENDBRANCH   6  21
BRANCH   5  24
ATOM     24  N   UNL d   1      26.536 -16.302  -1.213  0.00  0.00    -0.368 N 
ATOM     25  H   UNL d   1      27.539 -16.303  -1.058  0.00  0.00     0.161 HD
BRANCH  24  26
ATOM     26  C   UNL d   1      25.602 -16.451  -0.135  0.00  0.00     0.160 C 
BRANCH  26  27
ATOM     27  C   UNL d   1      24.347 -17.182  -0.393  0.00  0.00    -0.040 A 
ATOM     28  C   UNL d   1      24.411 -18.585  -0.515  0.00  0.00     0.011 A 
ATOM     29  C   UNL d   1      23.281 -19.286  -0.897  0.00  0.00     0.037 A 
ATOM     30  C   UNL d   1      22.083 -18.593  -1.062  0.00  0.00     0.068 A 
ATOM     31  C   UNL d   1      22.036 -17.205  -0.894  0.00  0.00     0.037 A 
ATOM     32  C   UNL d   1      23.157 -16.504  -0.536  0.00  0.00     0.011 A 
BRANCH  30  33
ATOM     33  O   UNL d   1      20.987 -19.352  -1.363  0.00  0.00    -0.351 OA
BRANCH  33  34
ATOM     34  C   UNL d   1      19.916 -19.187  -0.436  0.00  0.00     0.175 C 
BRANCH  34  35
ATOM     35  C   UNL d   1      20.025 -20.267   0.613  0.00  0.00     0.026 C 
BRANCH  35  36
ATOM     36  C   UNL d   1      18.783 -20.279   1.493  0.00  0.00    -0.002 C 
ATOM     37  C   UNL d   1      18.022 -21.577   1.310  0.00  0.00     0.005 C 
ENDBRANCH  35  36
ENDBRANCH  34  35
ENDBRANCH  33  34
ENDBRANCH  30  33
ENDBRANCH  26  27
ENDBRANCH  24  26
ENDBRANCH   5  24
TORSDOF 15
ENDMDL
MODEL 6
REMARK VINA RESULT:    -8.261      5.962      9.714
REMARK INTER + INTRA:         -14.817
REMARK INTER:                 -12.735
REMARK INTRA:                  -2.082
REMARK CONF_INDEPENDENT:        4.474
REMARK UNBOUND:                -2.082
REMARK  15 active torsions:
REMARK  status: ('A' for Active; 'I' for Inactive)
REMARK    1  A    between atoms: C_2  and  C_3 
REMARK    2  A    between atoms: C_3  and  C_4 
REMARK    3  A    between atoms: C_4  and  O_5 
REMARK    4  A    between atoms: O_5  and  C_6 
REMARK    5  A    between atoms: C_9  and  C_10 
REMARK    6  A    between atoms: C_10  and  N_11 
REMARK    7  A    between atoms: N_11  and  C_12 
REMARK    8  A    between atoms: C_16  and  N_17 
REMARK    9  A    between atoms: N_17  and  C_18 
REMARK   10  A    between atoms: C_18  and  C_19 
REMARK   11  A    between atoms: C_22  and  O_23 
REMARK   12  A    between atoms: O_23  and  C_24 
REMARK   13  A    between atoms: C_24  and  C_25 
REMARK   14  A    between atoms: C_25  and  C_26 
REMARK   15  A    between atoms: C_30  and  N_31 
ROOT
ATOM      1  C   UNL d   1      27.188 -15.543  -2.343  0.00  0.00     0.162 A 
ATOM      2  N   UNL d   1      28.139 -15.642  -1.390  0.00  0.00    -0.222 NA
ATOM      3  C   UNL d   1      29.381 -15.910  -1.806  0.00  0.00     0.237 A 
ATOM      4  N   UNL d   1      29.743 -16.092  -3.081  0.00  0.00    -0.222 NA
ATOM      5  C   UNL d   1      28.793 -15.928  -4.033  0.00  0.00     0.162 A 
ATOM      6  C   UNL d   1      27.482 -15.627  -3.691  0.00  0.00     0.193 A 
ENDROOT
BRANCH   1   7
ATOM      7  N   UNL d   1      25.916 -15.285  -1.882  0.00  0.00    -0.368 N 
ATOM      8  H   UNL d   1      25.627 -14.356  -2.152  0.00  0.00     0.161 HD
BRANCH   7   9
ATOM      9  C   UNL d   1      25.508 -15.751  -0.554  0.00  0.00     0.160 C 
BRANCH   9  10
ATOM     10  C   UNL d   1      24.416 -16.779  -0.662  0.00  0.00    -0.040 A 
ATOM     11  C   UNL d   1      23.094 -16.352  -0.862  0.00  0.00     0.011 A 
ATOM     12  C   UNL d   1      22.054 -17.280  -0.892  0.00  0.00     0.037 A 
ATOM     13  C   UNL d   1      22.327 -18.642  -0.780  0.00  0.00     0.068 A 
ATOM     14  C   UNL d   1      23.633 -19.071  -0.587  0.00  0.00     0.037 A 
ATOM     15  C   UNL d   1      24.664 -18.149  -0.520  0.00  0.00     0.011 A 
BRANCH  13  16
ATOM     16  O   UNL d   1      21.272 -19.488  -0.970  0.00  0.00    -0.351 OA
BRANCH  16  17
ATOM     17  C   UNL d   1      19.995 -18.930  -0.670  0.00  0.00     0.175 C 
BRANCH  17  18
ATOM     18  C   UNL d   1      19.019 -20.083  -0.497  0.00  0.00     0.026 C 
BRANCH  18  19
ATOM     19  C   UNL d   1      19.269 -20.811   0.818  0.00  0.00    -0.002 C 
ATOM     20  C   UNL d   1      19.812 -19.858   1.867  0.00  0.00     0.005 C 
ENDBRANCH  18  19
ENDBRANCH  17  18
ENDBRANCH  16  17
ENDBRANCH  13  16
ENDBRANCH   9  10
ENDBRANCH   7   9
ENDBRANCH   1   7
BRANCH   6  21
ATOM     21  N   UNL d   1      26.416 -15.223  -4.604  0.00  0.00    -0.108 N 
ATOM     22  O   UNL d   1      26.683 -15.099  -5.820  0.00  0.00    -0.532 OA
ATOM     23  O   UNL d   1      25.269 -15.125  -4.172  0.00  0.00    -0.532 OA
ENDBRANCH   6  21
BRANCH   5  24
ATOM     24  N   UNL d   1      29.333 -16.030  -5.292  0.00  0.00    -0.368 N 
ATOM     25  H   UNL d   1      28.908 -15.402  -5.966  0.00  0.00     0.161 HD
BRANCH  24  26
ATOM     26  C   UNL d   1      30.657 -16.552  -5.473  0.00  0.00     0.160 C 
BRANCH  26  27
ATOM     27  C   UNL d   1      30.815 -18.004  -5.676  0.00  0.00    -0.040 A 
ATOM     28  C   UNL d   1      30.936 -18.824  -4.536  0.00  0.00     0.011 A 
ATOM     29  C   UNL d   1      31.227 -20.168  -4.693  0.00  0.00     0.037 A 
ATOM     30  C   UNL d   1      31.303 -20.694  -5.981  0.00  0.00     0.068 A 
ATOM     31  C   UNL d   1      31.136 -19.868  -7.097  0.00  0.00     0.037 A 
ATOM     32  C   UNL d   1      30.869 -18.533  -6.947  0.00  0.00     0.011 A 
BRANCH  30  33
ATOM     33  O   UNL d   1      31.515 -22.041  -6.068  0.00  0.00    -0.351 OA
BRANCH  33  34
ATOM     34  C   UNL d   1      32.466 -22.523  -5.120  0.00  0.00     0.175 C 
BRANCH  34  35
ATOM     35  C   UNL d   1      31.823 -23.634  -4.324  0.00  0.00     0.026 C 
BRANCH  35  36
ATOM     36  C   UNL d   1      31.063 -23.063  -3.136  0.00  0.00    -0.002 C 
ATOM     37  C   UNL d   1      29.627 -23.546  -3.150  0.00  0.00     0.005 C 
ENDBRANCH  35  36
ENDBRANCH  34  35
ENDBRANCH  33  34
ENDBRANCH  30  33
ENDBRANCH  26  27
ENDBRANCH  24  26
ENDBRANCH   5  24
TORSDOF 15
ENDMDL
MODEL 7
REMARK VINA RESULT:    -8.227      3.657      9.515
REMARK INTER + INTRA:         -15.786
REMARK INTER:                 -12.701
REMARK INTRA:                  -3.085
REMARK CONF_INDEPENDENT:        4.474
REMARK UNBOUND:                -3.085
REMARK  15 active torsions:
REMARK  status: ('A' for Active; 'I' for Inactive)
REMARK    1  A    between atoms: C_2  and  C_3 
REMARK    2  A    between atoms: C_3  and  C_4 
REMARK    3  A    between atoms: C_4  and  O_5 
REMARK    4  A    between atoms: O_5  and  C_6 
REMARK    5  A    between atoms: C_9  and  C_10 
REMARK    6  A    between atoms: C_10  and  N_11 
REMARK    7  A    between atoms: N_11  and  C_12 
REMARK    8  A    between atoms: C_16  and  N_17 
REMARK    9  A    between atoms: N_17  and  C_18 
REMARK   10  A    between atoms: C_18  and  C_19 
REMARK   11  A    between atoms: C_22  and  O_23 
REMARK   12  A    between atoms: O_23  and  C_24 
REMARK   13  A    between atoms: C_24  and  C_25 
REMARK   14  A    between atoms: C_25  and  C_26 
REMARK   15  A    between atoms: C_30  and  N_31 
ROOT
ATOM      1  C   UNL d   1      26.077 -12.807  -2.668  0.00  0.00     0.162 A 
ATOM      2  N   UNL d   1      26.928 -12.298  -1.753  0.00  0.00    -0.222 NA
ATOM      3  C   UNL d   1      27.492 -13.166  -0.907  0.00  0.00     0.237 A 
ATOM      4  N   UNL d   1      27.270 -14.486  -0.898  0.00  0.00    -0.222 NA
ATOM      5  C   UNL d   1      26.462 -14.994  -1.860  0.00  0.00     0.162 A 
ATOM      6  C   UNL d   1      25.853 -14.166  -2.792  0.00  0.00     0.193 A 
ENDROOT
BRANCH   1   7
ATOM      7  N   UNL d   1      25.498 -11.885  -3.512  0.00  0.00    -0.368 N 
ATOM      8  H   UNL d   1      24.612 -12.230  -3.852  0.00  0.00     0.161 HD
BRANCH   7   9
ATOM      9  C   UNL d   1      26.327 -11.131  -4.455  0.00  0.00     0.160 C 
BRANCH   9  10
ATOM     10  C   UNL d   1      27.404 -12.004  -5.037  0.00  0.00    -0.040 A 
ATOM     11  C   UNL d   1      27.036 -13.143  -5.770  0.00  0.00     0.011 A 
ATOM     12  C   UNL d   1      28.013 -14.010  -6.257  0.00  0.00     0.037 A 
ATOM     13  C   UNL d   1      29.363 -13.720  -6.069  0.00  0.00     0.068 A 
ATOM     14  C   UNL d   1      29.734 -12.591  -5.348  0.00  0.00     0.037 A 
ATOM     15  C   UNL d   1      28.764 -11.749  -4.831  0.00  0.00     0.011 A 
BRANCH  13  16
ATOM     16  O   UNL d   1      30.252 -14.537  -6.705  0.00  0.00    -0.351 OA
BRANCH  16  17
ATOM     17  C   UNL d   1      30.061 -15.930  -6.469  0.00  0.00     0.175 C 
BRANCH  17  18
ATOM     18  C   UNL d   1      30.489 -16.218  -5.039  0.00  0.00     0.026 C 
BRANCH  18  19
ATOM     19  C   UNL d   1      29.278 -16.293  -4.117  0.00  0.00    -0.002 C 
ATOM     20  C   UNL d   1      29.667 -16.853  -2.762  0.00  0.00     0.005 C 
ENDBRANCH  18  19
ENDBRANCH  17  18
ENDBRANCH  16  17
ENDBRANCH  13  16
ENDBRANCH   9  10
ENDBRANCH   7   9
ENDBRANCH   1   7
BRANCH   6  21
ATOM     21  N   UNL d   1      25.137 -14.588  -3.993  0.00  0.00    -0.108 N 
ATOM     22  O   UNL d   1      25.598 -15.538  -4.664  0.00  0.00    -0.532 OA
ATOM     23  O   UNL d   1      24.048 -14.075  -4.248  0.00  0.00    -0.532 OA
ENDBRANCH   6  21
BRANCH   5  24
ATOM     24  N   UNL d   1      26.421 -16.365  -1.796  0.00  0.00    -0.368 N 
ATOM     25  H   UNL d   1      27.101 -16.818  -2.397  0.00  0.00     0.161 HD
BRANCH  24  26
ATOM     26  C   UNL d   1      25.871 -17.021  -0.645  0.00  0.00     0.160 C 
BRANCH  26  27
ATOM     27  C   UNL d   1      24.429 -17.331  -0.639  0.00  0.00    -0.040 A 
ATOM     28  C   UNL d   1      24.042 -18.681  -0.512  0.00  0.00     0.011 A 
ATOM     29  C   UNL d   1      22.707 -19.021  -0.645  0.00  0.00     0.037 A 
ATOM     30  C   UNL d   1      21.768 -18.005  -0.812  0.00  0.00     0.068 A 
ATOM     31  C   UNL d   1      22.173 -16.668  -0.892  0.00  0.00     0.037 A 
ATOM     32  C   UNL d   1      23.495 -16.329  -0.781  0.00  0.00     0.011 A 
BRANCH  30  33
ATOM     33  O   UNL d   1      20.460 -18.398  -0.859  0.00  0.00    -0.351 OA
BRANCH  33  34
ATOM     34  C   UNL d   1      20.285 -19.797  -0.641  0.00  0.00     0.175 C 
BRANCH  34  35
ATOM     35  C   UNL d   1      18.872 -20.030  -0.160  0.00  0.00     0.026 C 
BRANCH  35  36
ATOM     36  C   UNL d   1      18.782 -19.817   1.344  0.00  0.00    -0.002 C 
ATOM     37  C   UNL d   1      20.164 -19.853   1.964  0.00  0.00     0.005 C 
ENDBRANCH  35  36
ENDBRANCH  34  35
ENDBRANCH  33  34
ENDBRANCH  30  33
ENDBRANCH  26  27
ENDBRANCH  24  26
ENDBRANCH   5  24
TORSDOF 15
ENDMDL
MODEL 8
REMARK VINA RESULT:    -8.174      3.896      9.752
REMARK INTER + INTRA:         -14.874
REMARK INTER:                 -12.649
REMARK INTRA:                  -2.225
REMARK CONF_INDEPENDENT:        4.474
REMARK UNBOUND:                -2.225
REMARK  15 active torsions:
REMARK  status: ('A' for Active; 'I' for Inactive)
REMARK    1  A    between atoms: C_2  and  C_3 
REMARK    2  A    between atoms: C_3  and  C_4 
REMARK    3  A    between atoms: C_4  and  O_5 
REMARK    4  A    between atoms: O_5  and  C_6 
REMARK    5  A    between atoms: C_9  and  C_10 
REMARK    6  A    between atoms: C_10  and  N_11 
REMARK    7  A    between atoms: N_11  and  C_12 
REMARK    8  A    between atoms: C_16  and  N_17 
REMARK    9  A    between atoms: N_17  and  C_18 
REMARK   10  A    between atoms: C_18  and  C_19 
REMARK   11  A    between atoms: C_22  and  O_23 
REMARK   12  A    between atoms: O_23  and  C_24 
REMARK   13  A    between atoms: C_24  and  C_25 
REMARK   14  A    between atoms: C_25  and  C_26 
REMARK   15  A    between atoms: C_30  and  N_31 
ROOT
ATOM      1  C   UNL d   1      26.397 -12.197  -3.716  0.00  0.00     0.162 A 
ATOM      2  N   UNL d   1      27.460 -11.485  -3.284  0.00  0.00    -0.222 NA
ATOM      3  C   UNL d   1      27.992 -11.850  -2.113  0.00  0.00     0.237 A 
ATOM      4  N   UNL d   1      27.548 -12.852  -1.345  0.00  0.00    -0.222 NA
ATOM      5  C   UNL d   1      26.521 -13.599  -1.818  0.00  0.00     0.162 A 
ATOM      6  C   UNL d   1      25.924 -13.303  -3.035  0.00  0.00     0.193 A 
ENDROOT
BRANCH   1   7
ATOM      7  N   UNL d   1      25.860 -11.785  -4.915  0.00  0.00    -0.368 N 
ATOM      8  H   UNL d   1      24.899 -12.087  -4.991  0.00  0.00     0.161 HD
BRANCH   7   9
ATOM      9  C   UNL d   1      26.670 -11.825  -6.135  0.00  0.00     0.160 C 
BRANCH   9  10
ATOM     10  C   UNL d   1      27.754 -12.860  -6.023  0.00  0.00    -0.040 A 
ATOM     11  C   UNL d   1      27.398 -14.200  -5.804  0.00  0.00     0.011 A 
ATOM     12  C   UNL d   1      28.385 -15.168  -5.621  0.00  0.00     0.037 A 
ATOM     13  C   UNL d   1      29.732 -14.820  -5.713  0.00  0.00     0.068 A 
ATOM     14  C   UNL d   1      30.091 -13.497  -5.935  0.00  0.00     0.037 A 
ATOM     15  C   UNL d   1      29.112 -12.527  -6.078  0.00  0.00     0.011 A 
BRANCH  13  16
ATOM     16  O   UNL d   1      30.627 -15.850  -5.673  0.00  0.00    -0.351 OA
BRANCH  16  17
ATOM     17  C   UNL d   1      30.270 -16.985  -6.460  0.00  0.00     0.175 C 
BRANCH  17  18
ATOM     18  C   UNL d   1      31.534 -17.493  -7.135  0.00  0.00     0.026 C 
BRANCH  18  19
ATOM     19  C   UNL d   1      31.531 -19.014  -7.215  0.00  0.00    -0.002 C 
ATOM     20  C   UNL d   1      31.138 -19.480  -8.604  0.00  0.00     0.005 C 
ENDBRANCH  18  19
ENDBRANCH  17  18
ENDBRANCH  16  17
ENDBRANCH  13  16
ENDBRANCH   9  10
ENDBRANCH   7   9
ENDBRANCH   1   7
BRANCH   6  21
ATOM     21  N   UNL d   1      24.963 -14.134  -3.756  0.00  0.00    -0.108 N 
ATOM     22  O   UNL d   1      25.287 -15.304  -4.056  0.00  0.00    -0.532 OA
ATOM     23  O   UNL d   1      23.828 -13.700  -3.947  0.00  0.00    -0.532 OA
ENDBRANCH   6  21
BRANCH   5  24
ATOM     24  N   UNL d   1      26.253 -14.655  -0.982  0.00  0.00    -0.368 N 
ATOM     25  H   UNL d   1      25.824 -14.378  -0.106  0.00  0.00     0.161 HD
BRANCH  24  26
ATOM     26  C   UNL d   1      26.106 -15.980  -1.512  0.00  0.00     0.160 C 
BRANCH  26  27
ATOM     27  C   UNL d   1      24.937 -16.775  -1.091  0.00  0.00    -0.040 A 
ATOM     28  C   UNL d   1      23.655 -16.216  -1.271  0.00  0.00     0.011 A 
ATOM     29  C   UNL d   1      22.550 -16.873  -0.759  0.00  0.00     0.037 A 
ATOM     30  C   UNL d   1      22.726 -18.117  -0.156  0.00  0.00     0.068 A 
ATOM     31  C   UNL d   1      24.004 -18.670  -0.027  0.00  0.00     0.037 A 
ATOM     32  C   UNL d   1      25.103 -18.015  -0.514  0.00  0.00     0.011 A 
BRANCH  30  33
ATOM     33  O   UNL d   1      21.587 -18.748   0.259  0.00  0.00    -0.351 OA
BRANCH  33  34
ATOM     34  C   UNL d   1      20.816 -19.284  -0.814  0.00  0.00     0.175 C 
BRANCH  34  35
ATOM     35  C   UNL d   1      19.427 -19.580  -0.301  0.00  0.00     0.026 C 
BRANCH  35  36
ATOM     36  C   UNL d   1      19.445 -20.805   0.601  0.00  0.00    -0.002 C 
ATOM     37  C   UNL d   1      18.030 -21.240   0.924  0.00  0.00     0.005 C 
ENDBRANCH  35  36
ENDBRANCH  34  35
ENDBRANCH  33  34
ENDBRANCH  30  33
ENDBRANCH  26  27
ENDBRANCH  24  26
ENDBRANCH   5  24
TORSDOF 15
ENDMDL
MODEL 9
REMARK VINA RESULT:    -8.150      4.112      6.440
REMARK INTER + INTRA:         -15.420
REMARK INTER:                 -12.624
REMARK INTRA:                  -2.796
REMARK CONF_INDEPENDENT:        4.474
REMARK UNBOUND:                -2.796
REMARK  15 active torsions:
REMARK  status: ('A' for Active; 'I' for Inactive)
REMARK    1  A    between atoms: C_2  and  C_3 
REMARK    2  A    between atoms: C_3  and  C_4 
REMARK    3  A    between atoms: C_4  and  O_5 
REMARK    4  A    between atoms: O_5  and  C_6 
REMARK    5  A    between atoms: C_9  and  C_10 
REMARK    6  A    between atoms: C_10  and  N_11 
REMARK    7  A    between atoms: N_11  and  C_12 
REMARK    8  A    between atoms: C_16  and  N_17 
REMARK    9  A    between atoms: N_17  and  C_18 
REMARK   10  A    between atoms: C_18  and  C_19 
REMARK   11  A    between atoms: C_22  and  O_23 
REMARK   12  A    between atoms: O_23  and  C_24 
REMARK   13  A    between atoms: C_24  and  C_25 
REMARK   14  A    between atoms: C_25  and  C_26 
REMARK   15  A    between atoms: C_30  and  N_31 
ROOT
ATOM      1  C   UNL d   1      26.699 -14.851  -2.310  0.00  0.00     0.162 A 
ATOM      2  N   UNL d   1      26.708 -14.123  -1.173  0.00  0.00    -0.222 NA
ATOM      3  C   UNL d   1      26.558 -12.801  -1.304  0.00  0.00     0.237 A 
ATOM      4  N   UNL d   1      26.410 -12.156  -2.467  0.00  0.00    -0.222 NA
ATOM      5  C   UNL d   1      26.340 -12.902  -3.596  0.00  0.00     0.162 A 
ATOM      6  C   UNL d   1      26.464 -14.283  -3.548  0.00  0.00     0.193 A 
ENDROOT
BRANCH   1   7
ATOM      7  N   UNL d   1      26.874 -16.207  -2.143  0.00  0.00    -0.368 N 
ATOM      8  H   UNL d   1      26.599 -16.701  -2.979  0.00  0.00     0.161 HD
BRANCH   7   9
ATOM      9  C   UNL d   1      26.553 -16.837  -0.859  0.00  0.00     0.160 C 
BRANCH   9  10
ATOM     10  C   UNL d   1      25.098 -17.209  -0.796  0.00  0.00    -0.040 A 
ATOM     11  C   UNL d   1      24.130 -16.210  -0.986  0.00  0.00     0.011 A 
ATOM     12  C   UNL d   1      22.775 -16.514  -0.859  0.00  0.00     0.037 A 
ATOM     13  C   UNL d   1      22.372 -17.823  -0.600  0.00  0.00     0.068 A 
ATOM     14  C   UNL d   1      23.325 -18.816  -0.416  0.00  0.00     0.037 A 
ATOM     15  C   UNL d   1      24.673 -18.510  -0.504  0.00  0.00     0.011 A 
BRANCH  13  16
ATOM     16  O   UNL d   1      21.028 -18.062  -0.641  0.00  0.00    -0.351 OA
BRANCH  16  17
ATOM     17  C   UNL d   1      20.663 -19.346  -1.142  0.00  0.00     0.175 C 
BRANCH  17  18
ATOM     18  C   UNL d   1      19.234 -19.621  -0.704  0.00  0.00     0.026 C 
BRANCH  18  19
ATOM     19  C   UNL d   1      19.138 -19.696   0.815  0.00  0.00    -0.002 C 
ATOM     20  C   UNL d   1      18.675 -21.070   1.259  0.00  0.00     0.005 C 
ENDBRANCH  18  19
ENDBRANCH  17  18
ENDBRANCH  16  17
ENDBRANCH  13  16
ENDBRANCH   9  10
ENDBRANCH   7   9
ENDBRANCH   1   7
BRANCH   6  21
ATOM     21  N   UNL d   1      26.204 -15.217  -4.640  0.00  0.00    -0.108 N 
ATOM     22  O   UNL d   1      25.155 -15.899  -4.611  0.00  0.00    -0.532 OA
ATOM     23  O   UNL d   1      26.963 -15.226  -5.608  0.00  0.00    -0.532 OA
ENDBRANCH   6  21
BRANCH   5  24
ATOM     24  N   UNL d   1      26.072 -12.117  -4.691  0.00  0.00    -0.368 N 
ATOM     25  H   UNL d   1      25.154 -11.687  -4.664  0.00  0.00     0.161 HD
BRANCH  24  26
ATOM     26  C   UNL d   1      27.145 -11.566  -5.467  0.00  0.00     0.160 C 
BRANCH  26  27
ATOM     27  C   UNL d   1      28.295 -12.434  -5.786  0.00  0.00    -0.040 A 
ATOM     28  C   UNL d   1      28.269 -13.149  -7.001  0.00  0.00     0.011 A 
ATOM     29  C   UNL d   1      29.260 -14.078  -7.264  0.00  0.00     0.037 A 
ATOM     30  C   UNL d   1      30.310 -14.215  -6.358  0.00  0.00     0.068 A 
ATOM     31  C   UNL d   1      30.336 -13.463  -5.179  0.00  0.00     0.037 A 
ATOM     32  C   UNL d   1      29.346 -12.557  -4.904  0.00  0.00     0.011 A 
BRANCH  30  33
ATOM     33  O   UNL d   1      31.297 -15.092  -6.712  0.00  0.00    -0.351 OA
BRANCH  33  34
ATOM     34  C   UNL d   1      30.818 -16.413  -6.953  0.00  0.00     0.175 C 
BRANCH  34  35
ATOM     35  C   UNL d   1      30.911 -17.195  -5.665  0.00  0.00     0.026 C 
BRANCH  35  36
ATOM     36  C   UNL d   1      29.646 -17.012  -4.839  0.00  0.00    -0.002 C 
ATOM     37  C   UNL d   1      29.970 -17.079  -3.360  0.00  0.00     0.005 C 
ENDBRANCH  35  36
ENDBRANCH  34  35
ENDBRANCH  33  34
ENDBRANCH  30  33
ENDBRANCH  26  27
ENDBRANCH  24  26
ENDBRANCH   5  24
TORSDOF 15
ENDMDL
