MODEL 1
REMARK VINA RESULT:    -8.006      0.000      0.000
REMARK INTER + INTRA:          -9.755
REMARK INTER:                  -9.199
REMARK INTRA:                  -0.556
REMARK CONF_INDEPENDENT:        1.193
REMARK UNBOUND:                -0.556
REMARK  4 active torsions:
REMARK  status: ('A' for Active; 'I' for Inactive)
REMARK    1  A    between atoms: N_1  and  C_2 
REMARK    2  A    between atoms: C_2  and  C_4 
REMARK    3  A    between atoms: C_7  and  C_8 
REMARK       I    between atoms: C_8  and  N_10 
REMARK    4  A    between atoms: N_10  and  C_11 
ROOT
ATOM      1  C   UNL d   1      25.477 -16.140  -1.976  0.00  0.00     0.256 C 
ATOM      2  O   UNL d   1      26.628 -16.376  -1.672  0.00  0.00    -0.267 OA
ATOM      3  N   UNL d   1      25.100 -15.139  -2.880  0.00  0.00    -0.323 N 
ATOM      4  H   UNL d   1      24.139 -14.922  -3.071  0.00  0.00     0.169 HD
ENDROOT
BRANCH   1   5
ATOM      5  C   UNL d   1      24.384 -16.954  -1.343  0.00  0.00     0.032 A 
ATOM      6  C   UNL d   1      23.116 -16.358  -1.235  0.00  0.00     0.018 A 
ATOM      7  C   UNL d   1      22.079 -16.995  -0.544  0.00  0.00     0.015 A 
ATOM      8  C   UNL d   1      22.270 -18.277  -0.018  0.00  0.00     0.001 A 
ATOM      9  C   UNL d   1      23.519 -18.894  -0.158  0.00  0.00     0.015 A 
ATOM     10  C   UNL d   1      24.570 -18.235  -0.813  0.00  0.00     0.018 A 
BRANCH   8  11
ATOM     11  C   UNL d   1      21.138 -19.013   0.604  0.00  0.00     0.104 C 
ATOM     12  S   UNL d   1      20.025 -19.926  -0.244  0.00  0.00    -0.060 SA
BRANCH  11  13
ATOM     13  N   UNL d   1      21.030 -18.950   1.969  0.00  0.00    -0.390 N 
ATOM     14  H   UNL d   1      21.202 -19.798   2.501  0.00  0.00     0.157 HD
ATOM     15  H   UNL d   1      20.684 -18.146   2.475  0.00  0.00     0.157 HD
ENDBRANCH  11  13
ENDBRANCH   8  11
ENDBRANCH   1   5
BRANCH   3  16
ATOM     16  C   UNL d   1      26.039 -14.489  -3.695  0.00  0.00     0.037 C 
ATOM     17  C   UNL d   1      26.177 -13.106  -3.760  0.00  0.00     0.032 C 
ATOM     18  C   UNL d   1      27.346 -12.610  -4.382  0.00  0.00     0.042 C 
ATOM     19  C   UNL d   1      28.087 -13.507  -5.143  0.00  0.00     0.111 C 
ATOM     20  C   UNL d   1      27.424 -14.588  -5.606  0.00  0.00     0.113 C 
ATOM     21  O   UNL d   1      29.429 -13.944  -5.054  0.00  0.00    -0.256 OA
ATOM     22  C   UNL d   1      26.749 -15.248  -4.606  0.00  0.00     0.069 C 
ATOM     23  O   UNL d   1      28.156 -15.197  -6.592  0.00  0.00    -0.256 OA
ATOM     24  C   UNL d   1      29.318 -15.232  -5.798  0.00  0.00     0.498 C 
ATOM     25  F   UNL d   1      29.136 -16.327  -4.998  0.00  0.00    -0.147 F 
ATOM     26  F   UNL d   1      30.412 -15.497  -6.547  0.00  0.00    -0.147 F 
ENDBRANCH   3  16
TORSDOF 4
ENDMDL
MODEL 2
REMARK VINA RESULT:    -8.005      4.807      8.429
REMARK INTER + INTRA:          -9.718
REMARK INTER:                  -9.198
REMARK INTRA:                  -0.520
REMARK CONF_INDEPENDENT:        1.193
REMARK UNBOUND:                -0.520
REMARK  4 active torsions:
REMARK  status: ('A' for Active; 'I' for Inactive)
REMARK    1  A    between atoms: N_1  and  C_2 
REMARK    2  A    between atoms: C_2  and  C_4 
REMARK    3  A    between atoms: C_7  and  C_8 
REMARK       I    between atoms: C_8  and  N_10 
REMARK    4  A    between atoms: N_10  and  C_11 
ROOT
ATOM      1  C   UNL d   1      25.375 -15.163  -3.041  0.00  0.00     0.256 C 
ATOM      2  O   UNL d   1      24.243 -14.820  -2.772  0.00  0.00    -0.267 OA
ATOM      3  N   UNL d   1      26.064 -16.176  -2.360  0.00  0.00    -0.323 N 
ATOM      4  H   UNL d   1      27.021 -16.403  -2.560  0.00  0.00     0.169 HD
ENDROOT
BRANCH   1   5
ATOM      5  C   UNL d   1      26.094 -14.462  -4.158  0.00  0.00     0.032 A 
ATOM      6  C   UNL d   1      27.056 -15.200  -4.870  0.00  0.00     0.018 A 
ATOM      7  C   UNL d   1      27.861 -14.586  -5.837  0.00  0.00     0.015 A 
ATOM      8  C   UNL d   1      27.663 -13.242  -6.164  0.00  0.00     0.001 A 
ATOM      9  C   UNL d   1      26.679 -12.511  -5.487  0.00  0.00     0.015 A 
ATOM     10  C   UNL d   1      25.903 -13.116  -4.488  0.00  0.00     0.018 A 
BRANCH   8  11
ATOM     11  C   UNL d   1      28.425 -12.617  -7.277  0.00  0.00     0.104 C 
ATOM     12  S   UNL d   1      28.892 -11.012  -7.318  0.00  0.00    -0.060 SA
BRANCH  11  13
ATOM     13  N   UNL d   1      28.785 -13.430  -8.320  0.00  0.00    -0.390 N 
ATOM     14  H   UNL d   1      29.708 -13.307  -8.725  0.00  0.00     0.157 HD
ATOM     15  H   UNL d   1      28.155 -14.070  -8.785  0.00  0.00     0.157 HD
ENDBRANCH  11  13
ENDBRANCH   8  11
ENDBRANCH   1   5
BRANCH   3  16
ATOM     16  C   UNL d   1      25.411 -17.043  -1.472  0.00  0.00     0.037 C 
ATOM     17  C   UNL d   1      26.019 -17.596  -0.349  0.00  0.00     0.032 C 
ATOM     18  C   UNL d   1      25.167 -18.200   0.605  0.00  0.00     0.042 C 
ATOM     19  C   UNL d   1      23.862 -18.472   0.206  0.00  0.00     0.111 C 
ATOM     20  C   UNL d   1      23.655 -18.584  -1.123  0.00  0.00     0.113 C 
ATOM     21  O   UNL d   1      22.609 -18.053   0.712  0.00  0.00    -0.256 OA
ATOM     22  C   UNL d   1      24.156 -17.508  -1.817  0.00  0.00     0.069 C 
ATOM     23  O   UNL d   1      22.439 -19.171  -1.356  0.00  0.00    -0.256 OA
ATOM     24  C   UNL d   1      21.769 -18.276  -0.501  0.00  0.00     0.498 C 
ATOM     25  F   UNL d   1      21.588 -17.159  -1.269  0.00  0.00    -0.147 F 
ATOM     26  F   UNL d   1      20.530 -18.725  -0.199  0.00  0.00    -0.147 F 
ENDBRANCH   3  16
TORSDOF 4
ENDMDL
MODEL 3
REMARK VINA RESULT:    -7.758      5.891      9.190
REMARK INTER + INTRA:          -9.465
REMARK INTER:                  -8.951
REMARK INTRA:                  -0.514
REMARK CONF_INDEPENDENT:        1.193
REMARK UNBOUND:                -0.514
REMARK  4 active torsions:
REMARK  status: ('A' for Active; 'I' for Inactive)
REMARK    1  A    between atoms: N_1  and  C_2 
REMARK    2  A    between atoms: C_2  and  C_4 
REMARK    3  A    between atoms: C_7  and  C_8 
REMARK       I    between atoms: C_8  and  N_10 
REMARK    4  A    between atoms: N_10  and  C_11 
ROOT
ATOM      1  C   UNL d   1      23.815 -17.205  -0.556  0.00  0.00     0.256 C 
ATOM      2  O   UNL d   1      23.122 -16.363  -1.087  0.00  0.00    -0.267 OA
ATOM      3  N   UNL d   1      23.318 -18.405  -0.029  0.00  0.00    -0.323 N 
ATOM      4  H   UNL d   1      23.901 -19.059   0.459  0.00  0.00     0.169 HD
ENDROOT
BRANCH   1   5
ATOM      5  C   UNL d   1      25.292 -16.953  -0.439  0.00  0.00     0.032 A 
ATOM      6  C   UNL d   1      25.809 -15.827  -1.103  0.00  0.00     0.018 A 
ATOM      7  C   UNL d   1      27.188 -15.593  -1.153  0.00  0.00     0.015 A 
ATOM      8  C   UNL d   1      28.068 -16.437  -0.470  0.00  0.00     0.001 A 
ATOM      9  C   UNL d   1      27.557 -17.538   0.228  0.00  0.00     0.015 A 
ATOM     10  C   UNL d   1      26.177 -17.796   0.240  0.00  0.00     0.018 A 
BRANCH   8  11
ATOM     11  C   UNL d   1      29.520 -16.124  -0.411  0.00  0.00     0.104 C 
ATOM     12  S   UNL d   1      30.301 -15.067  -1.443  0.00  0.00    -0.060 SA
BRANCH  11  13
ATOM     13  N   UNL d   1      30.248 -16.731   0.579  0.00  0.00    -0.390 N 
ATOM     14  H   UNL d   1      30.271 -17.745   0.603  0.00  0.00     0.157 HD
ATOM     15  H   UNL d   1      30.675 -16.238   1.353  0.00  0.00     0.157 HD
ENDBRANCH  11  13
ENDBRANCH   8  11
ENDBRANCH   1   5
BRANCH   3  16
ATOM     16  C   UNL d   1      22.011 -18.839  -0.294  0.00  0.00     0.037 C 
ATOM     17  C   UNL d   1      21.488 -18.973  -1.577  0.00  0.00     0.032 C 
ATOM     18  C   UNL d   1      20.279 -19.697  -1.701  0.00  0.00     0.042 C 
ATOM     19  C   UNL d   1      19.561 -19.934  -0.533  0.00  0.00     0.111 C 
ATOM     20  C   UNL d   1      19.799 -19.093   0.495  0.00  0.00     0.113 C 
ATOM     21  O   UNL d   1      19.140 -21.129   0.094  0.00  0.00    -0.256 OA
ATOM     22  C   UNL d   1      21.141 -18.980   0.771  0.00  0.00     0.069 C 
ATOM     23  O   UNL d   1      18.812 -19.221   1.438  0.00  0.00    -0.256 OA
ATOM     24  C   UNL d   1      18.946 -20.622   1.483  0.00  0.00     0.498 C 
ATOM     25  F   UNL d   1      20.019 -20.823   2.307  0.00  0.00    -0.147 F 
ATOM     26  F   UNL d   1      17.889 -21.193   2.104  0.00  0.00    -0.147 F 
ENDBRANCH   3  16
TORSDOF 4
ENDMDL
MODEL 4
REMARK VINA RESULT:    -7.473      2.143      3.023
REMARK INTER + INTRA:          -9.159
REMARK INTER:                  -8.666
REMARK INTRA:                  -0.493
REMARK CONF_INDEPENDENT:        1.193
REMARK UNBOUND:                -0.493
REMARK  4 active torsions:
REMARK  status: ('A' for Active; 'I' for Inactive)
REMARK    1  A    between atoms: N_1  and  C_2 
REMARK    2  A    between atoms: C_2  and  C_4 
REMARK    3  A    between atoms: C_7  and  C_8 
REMARK       I    between atoms: C_8  and  N_10 
REMARK    4  A    between atoms: N_10  and  C_11 
ROOT
ATOM      1  C   UNL d   1      23.948 -17.837  -0.648  0.00  0.00     0.256 C 
ATOM      2  O   UNL d   1      24.933 -18.459  -0.312  0.00  0.00    -0.267 OA
ATOM      3  N   UNL d   1      23.993 -16.567  -1.240  0.00  0.00    -0.323 N 
ATOM      4  H   UNL d   1      23.164 -16.045  -1.455  0.00  0.00     0.169 HD
ENDROOT
BRANCH   1   5
ATOM      5  C   UNL d   1      22.595 -18.446  -0.411  0.00  0.00     0.032 A 
ATOM      6  C   UNL d   1      22.171 -18.575   0.923  0.00  0.00     0.018 A 
ATOM      7  C   UNL d   1      20.985 -19.248   1.238  0.00  0.00     0.015 A 
ATOM      8  C   UNL d   1      20.161 -19.733   0.217  0.00  0.00     0.001 A 
ATOM      9  C   UNL d   1      20.558 -19.571  -1.116  0.00  0.00     0.015 A 
ATOM     10  C   UNL d   1      21.769 -18.935  -1.428  0.00  0.00     0.018 A 
BRANCH   8  11
ATOM     11  C   UNL d   1      18.840 -20.334   0.536  0.00  0.00     0.104 C 
ATOM     12  S   UNL d   1      18.313 -20.691   2.081  0.00  0.00    -0.060 SA
BRANCH  11  13
ATOM     13  N   UNL d   1      17.998 -20.582  -0.517  0.00  0.00    -0.390 N 
ATOM     14  H   UNL d   1      17.692 -19.794  -1.079  0.00  0.00     0.157 HD
ATOM     15  H   UNL d   1      17.573 -21.480  -0.705  0.00  0.00     0.157 HD
ENDBRANCH  11  13
ENDBRANCH   8  11
ENDBRANCH   1   5
BRANCH   3  16
ATOM     16  C   UNL d   1      25.194 -16.018  -1.715  0.00  0.00     0.037 C 
ATOM     17  C   UNL d   1      26.360 -15.943  -0.959  0.00  0.00     0.032 C 
ATOM     18  C   UNL d   1      27.554 -15.647  -1.657  0.00  0.00     0.042 C 
ATOM     19  C   UNL d   1      27.426 -15.151  -2.950  0.00  0.00     0.111 C 
ATOM     20  C   UNL d   1      26.248 -14.563  -3.249  0.00  0.00     0.113 C 
ATOM     21  O   UNL d   1      27.899 -15.620  -4.197  0.00  0.00    -0.256 OA
ATOM     22  C   UNL d   1      25.176 -15.364  -2.932  0.00  0.00     0.069 C 
ATOM     23  O   UNL d   1      26.371 -13.838  -4.406  0.00  0.00    -0.256 OA
ATOM     24  C   UNL d   1      26.942 -14.921  -5.101  0.00  0.00     0.498 C 
ATOM     25  F   UNL d   1      25.865 -15.679  -5.470  0.00  0.00    -0.147 F 
ATOM     26  F   UNL d   1      27.519 -14.510  -6.253  0.00  0.00    -0.147 F 
ENDBRANCH   3  16
TORSDOF 4
ENDMDL
MODEL 5
REMARK VINA RESULT:    -7.240      1.685      2.232
REMARK INTER + INTRA:          -8.787
REMARK INTER:                  -8.433
REMARK INTRA:                  -0.354
REMARK CONF_INDEPENDENT:        1.193
REMARK UNBOUND:                -0.354
REMARK  4 active torsions:
REMARK  status: ('A' for Active; 'I' for Inactive)
REMARK    1  A    between atoms: N_1  and  C_2 
REMARK    2  A    between atoms: C_2  and  C_4 
REMARK    3  A    between atoms: C_7  and  C_8 
REMARK       I    between atoms: C_8  and  N_10 
REMARK    4  A    between atoms: N_10  and  C_11 
ROOT
ATOM      1  C   UNL d   1      25.509 -17.103  -1.205  0.00  0.00     0.256 C 
ATOM      2  O   UNL d   1      26.414 -17.498  -0.500  0.00  0.00    -0.267 OA
ATOM      3  N   UNL d   1      25.684 -16.207  -2.268  0.00  0.00    -0.323 N 
ATOM      4  H   UNL d   1      24.913 -15.847  -2.800  0.00  0.00     0.169 HD
ENDROOT
BRANCH   1   5
ATOM      5  C   UNL d   1      24.114 -17.584  -0.923  0.00  0.00     0.032 A 
ATOM      6  C   UNL d   1      23.962 -18.922  -0.521  0.00  0.00     0.018 A 
ATOM      7  C   UNL d   1      22.690 -19.486  -0.365  0.00  0.00     0.015 A 
ATOM      8  C   UNL d   1      21.548 -18.697  -0.531  0.00  0.00     0.001 A 
ATOM      9  C   UNL d   1      21.693 -17.352  -0.892  0.00  0.00     0.015 A 
ATOM     10  C   UNL d   1      22.968 -16.800  -1.091  0.00  0.00     0.018 A 
BRANCH   8  11
ATOM     11  C   UNL d   1      20.200 -19.252  -0.243  0.00  0.00     0.104 C 
ATOM     12  S   UNL d   1      19.822 -20.164   1.106  0.00  0.00    -0.060 SA
BRANCH  11  13
ATOM     13  N   UNL d   1      19.203 -18.965  -1.140  0.00  0.00    -0.390 N 
ATOM     14  H   UNL d   1      18.780 -19.736  -1.646  0.00  0.00     0.157 HD
ATOM     15  H   UNL d   1      18.936 -18.028  -1.411  0.00  0.00     0.157 HD
ENDBRANCH  11  13
ENDBRANCH   8  11
ENDBRANCH   1   5
BRANCH   3  16
ATOM     16  C   UNL d   1      26.959 -15.886  -2.758  0.00  0.00     0.037 C 
ATOM     17  C   UNL d   1      28.140 -16.182  -2.085  0.00  0.00     0.032 C 
ATOM     18  C   UNL d   1      29.340 -16.073  -2.825  0.00  0.00     0.042 C 
ATOM     19  C   UNL d   1      29.278 -15.389  -4.035  0.00  0.00     0.111 C 
ATOM     20  C   UNL d   1      28.260 -14.514  -4.174  0.00  0.00     0.113 C 
ATOM     21  O   UNL d   1      29.576 -15.779  -5.361  0.00  0.00    -0.256 OA
ATOM     22  C   UNL d   1      27.044 -15.085  -3.881  0.00  0.00     0.069 C 
ATOM     23  O   UNL d   1      28.501 -13.685  -5.239  0.00  0.00    -0.256 OA
ATOM     24  C   UNL d   1      28.772 -14.764  -6.102  0.00  0.00     0.498 C 
ATOM     25  F   UNL d   1      27.533 -15.200  -6.482  0.00  0.00    -0.147 F 
ATOM     26  F   UNL d   1      29.381 -14.342  -7.233  0.00  0.00    -0.147 F 
ENDBRANCH   3  16
TORSDOF 4
ENDMDL
MODEL 6
REMARK VINA RESULT:    -7.122      2.069      2.708
REMARK INTER + INTRA:          -8.791
REMARK INTER:                  -8.315
REMARK INTRA:                  -0.476
REMARK CONF_INDEPENDENT:        1.193
REMARK UNBOUND:                -0.476
REMARK  4 active torsions:
REMARK  status: ('A' for Active; 'I' for Inactive)
REMARK    1  A    between atoms: N_1  and  C_2 
REMARK    2  A    between atoms: C_2  and  C_4 
REMARK    3  A    between atoms: C_7  and  C_8 
REMARK       I    between atoms: C_8  and  N_10 
REMARK    4  A    between atoms: N_10  and  C_11 
ROOT
ATOM      1  C   UNL d   1      25.472 -16.174  -2.074  0.00  0.00     0.256 C 
ATOM      2  O   UNL d   1      26.594 -16.534  -1.787  0.00  0.00    -0.267 OA
ATOM      3  N   UNL d   1      25.193 -15.144  -2.983  0.00  0.00    -0.323 N 
ATOM      4  H   UNL d   1      24.260 -14.822  -3.160  0.00  0.00     0.169 HD
ENDROOT
BRANCH   1   5
ATOM      5  C   UNL d   1      24.306 -16.853  -1.414  0.00  0.00     0.032 A 
ATOM      6  C   UNL d   1      24.475 -18.195  -1.029  0.00  0.00     0.018 A 
ATOM      7  C   UNL d   1      23.400 -18.939  -0.528  0.00  0.00     0.015 A 
ATOM      8  C   UNL d   1      22.158 -18.330  -0.328  0.00  0.00     0.001 A 
ATOM      9  C   UNL d   1      21.993 -16.983  -0.671  0.00  0.00     0.015 A 
ATOM     10  C   UNL d   1      23.060 -16.250  -1.214  0.00  0.00     0.018 A 
BRANCH   8  11
ATOM     11  C   UNL d   1      21.048 -19.076   0.322  0.00  0.00     0.104 C 
ATOM     12  S   UNL d   1      19.976 -20.070  -0.488  0.00  0.00    -0.060 SA
BRANCH  11  13
ATOM     13  N   UNL d   1      20.926 -18.951   1.682  0.00  0.00    -0.390 N 
ATOM     14  H   UNL d   1      21.403 -19.629   2.268  0.00  0.00     0.157 HD
ATOM     15  H   UNL d   1      20.306 -18.297   2.139  0.00  0.00     0.157 HD
ENDBRANCH  11  13
ENDBRANCH   8  11
ENDBRANCH   1   5
BRANCH   3  16
ATOM     16  C   UNL d   1      26.185 -14.612  -3.821  0.00  0.00     0.037 C 
ATOM     17  C   UNL d   1      27.227 -15.365  -4.355  0.00  0.00     0.032 C 
ATOM     18  C   UNL d   1      27.966 -14.774  -5.406  0.00  0.00     0.042 C 
ATOM     19  C   UNL d   1      27.808 -13.406  -5.600  0.00  0.00     0.111 C 
ATOM     20  C   UNL d   1      27.370 -12.699  -4.537  0.00  0.00     0.113 C 
ATOM     21  O   UNL d   1      27.375 -12.650  -6.714  0.00  0.00    -0.256 OA
ATOM     22  C   UNL d   1      26.232 -13.242  -3.989  0.00  0.00     0.069 C 
ATOM     23  O   UNL d   1      27.577 -11.361  -4.751  0.00  0.00    -0.256 OA
ATOM     24  C   UNL d   1      26.957 -11.401  -6.015  0.00  0.00     0.498 C 
ATOM     25  F   UNL d   1      25.621 -11.340  -5.728  0.00  0.00    -0.147 F 
ATOM     26  F   UNL d   1      27.235 -10.287  -6.729  0.00  0.00    -0.147 F 
ENDBRANCH   3  16
TORSDOF 4
ENDMDL
MODEL 7
REMARK VINA RESULT:    -7.033      4.947      8.291
REMARK INTER + INTRA:          -8.756
REMARK INTER:                  -8.226
REMARK INTRA:                  -0.530
REMARK CONF_INDEPENDENT:        1.193
REMARK UNBOUND:                -0.530
REMARK  4 active torsions:
REMARK  status: ('A' for Active; 'I' for Inactive)
REMARK    1  A    between atoms: N_1  and  C_2 
REMARK    2  A    between atoms: C_2  and  C_4 
REMARK    3  A    between atoms: C_7  and  C_8 
REMARK       I    between atoms: C_8  and  N_10 
REMARK    4  A    between atoms: N_10  and  C_11 
ROOT
ATOM      1  C   UNL d   1      25.466 -14.235  -3.415  0.00  0.00     0.256 C 
ATOM      2  O   UNL d   1      25.471 -15.088  -4.278  0.00  0.00    -0.267 OA
ATOM      3  N   UNL d   1      25.223 -14.500  -2.061  0.00  0.00    -0.323 N 
ATOM      4  H   UNL d   1      25.164 -13.772  -1.373  0.00  0.00     0.169 HD
ENDROOT
BRANCH   1   5
ATOM      5  C   UNL d   1      25.721 -12.809  -3.810  0.00  0.00     0.032 A 
ATOM      6  C   UNL d   1      25.873 -11.870  -2.775  0.00  0.00     0.018 A 
ATOM      7  C   UNL d   1      25.983 -10.503  -3.055  0.00  0.00     0.015 A 
ATOM      8  C   UNL d   1      26.024 -10.059  -4.380  0.00  0.00     0.001 A 
ATOM      9  C   UNL d   1      25.913 -10.993  -5.417  0.00  0.00     0.015 A 
ATOM     10  C   UNL d   1      25.759 -12.359  -5.134  0.00  0.00     0.018 A 
BRANCH   8  11
ATOM     11  C   UNL d   1      26.269  -8.626  -4.688  0.00  0.00     0.104 C 
ATOM     12  S   UNL d   1      27.268  -8.080  -5.911  0.00  0.00    -0.060 SA
BRANCH  11  13
ATOM     13  N   UNL d   1      25.601  -7.702  -3.926  0.00  0.00    -0.390 N 
ATOM     14  H   UNL d   1      26.020  -6.784  -3.813  0.00  0.00     0.157 HD
ATOM     15  H   UNL d   1      24.775  -7.906  -3.380  0.00  0.00     0.157 HD
ENDBRANCH  11  13
ENDBRANCH   8  11
ENDBRANCH   1   5
BRANCH   3  16
ATOM     16  C   UNL d   1      25.209 -15.809  -1.557  0.00  0.00     0.037 C 
ATOM     17  C   UNL d   1      26.348 -16.479  -1.120  0.00  0.00     0.032 C 
ATOM     18  C   UNL d   1      26.145 -17.660  -0.370  0.00  0.00     0.042 C 
ATOM     19  C   UNL d   1      24.872 -18.219  -0.400  0.00  0.00     0.111 C 
ATOM     20  C   UNL d   1      24.103 -17.894  -1.461  0.00  0.00     0.113 C 
ATOM     21  O   UNL d   1      23.938 -18.506   0.622  0.00  0.00    -0.256 OA
ATOM     22  C   UNL d   1      24.037 -16.535  -1.655  0.00  0.00     0.069 C 
ATOM     23  O   UNL d   1      23.036 -18.751  -1.542  0.00  0.00    -0.256 OA
ATOM     24  C   UNL d   1      22.689 -18.550  -0.192  0.00  0.00     0.498 C 
ATOM     25  F   UNL d   1      21.987 -17.377  -0.204  0.00  0.00    -0.147 F 
ATOM     26  F   UNL d   1      21.823 -19.497   0.234  0.00  0.00    -0.147 F 
ENDBRANCH   3  16
TORSDOF 4
ENDMDL
MODEL 8
REMARK VINA RESULT:    -6.975      3.822      4.345
REMARK INTER + INTRA:          -8.697
REMARK INTER:                  -8.169
REMARK INTRA:                  -0.528
REMARK CONF_INDEPENDENT:        1.193
REMARK UNBOUND:                -0.528
REMARK  4 active torsions:
REMARK  status: ('A' for Active; 'I' for Inactive)
REMARK    1  A    between atoms: N_1  and  C_2 
REMARK    2  A    between atoms: C_2  and  C_4 
REMARK    3  A    between atoms: C_7  and  C_8 
REMARK       I    between atoms: C_8  and  N_10 
REMARK    4  A    between atoms: N_10  and  C_11 
ROOT
ATOM      1  C   UNL d   1      25.597 -16.993  -1.056  0.00  0.00     0.256 C 
ATOM      2  O   UNL d   1      25.791 -16.206  -1.959  0.00  0.00    -0.267 OA
ATOM      3  N   UNL d   1      26.602 -17.453  -0.194  0.00  0.00    -0.323 N 
ATOM      4  H   UNL d   1      26.430 -18.149   0.508  0.00  0.00     0.169 HD
ENDROOT
BRANCH   1   5
ATOM      5  C   UNL d   1      24.206 -17.522  -0.848  0.00  0.00     0.032 A 
ATOM      6  C   UNL d   1      24.076 -18.884  -0.521  0.00  0.00     0.018 A 
ATOM      7  C   UNL d   1      22.815 -19.485  -0.439  0.00  0.00     0.015 A 
ATOM      8  C   UNL d   1      21.659 -18.717  -0.603  0.00  0.00     0.001 A 
ATOM      9  C   UNL d   1      21.781 -17.351  -0.889  0.00  0.00     0.015 A 
ATOM     10  C   UNL d   1      23.047 -16.759  -1.014  0.00  0.00     0.018 A 
BRANCH   8  11
ATOM     11  C   UNL d   1      20.317 -19.319  -0.391  0.00  0.00     0.104 C 
ATOM     12  S   UNL d   1      19.939 -20.370   0.852  0.00  0.00    -0.060 SA
BRANCH  11  13
ATOM     13  N   UNL d   1      19.326 -18.956  -1.266  0.00  0.00    -0.390 N 
ATOM     14  H   UNL d   1      18.733 -19.688  -1.645  0.00  0.00     0.157 HD
ATOM     15  H   UNL d   1      19.215 -18.025  -1.645  0.00  0.00     0.157 HD
ENDBRANCH  11  13
ENDBRANCH   8  11
ENDBRANCH   1   5
BRANCH   3  16
ATOM     16  C   UNL d   1      27.868 -16.850  -0.151  0.00  0.00     0.037 C 
ATOM     17  C   UNL d   1      28.110 -15.605   0.420  0.00  0.00     0.032 C 
ATOM     18  C   UNL d   1      29.461 -15.263   0.658  0.00  0.00     0.042 C 
ATOM     19  C   UNL d   1      30.430 -16.037   0.026  0.00  0.00     0.111 C 
ATOM     20  C   UNL d   1      30.035 -16.702  -1.080  0.00  0.00     0.113 C 
ATOM     21  O   UNL d   1      31.498 -16.815   0.529  0.00  0.00    -0.256 OA
ATOM     22  C   UNL d   1      28.897 -17.441  -0.859  0.00  0.00     0.069 C 
ATOM     23  O   UNL d   1      31.131 -17.138  -1.777  0.00  0.00    -0.256 OA
ATOM     24  C   UNL d   1      31.705 -17.726  -0.634  0.00  0.00     0.498 C 
ATOM     25  F   UNL d   1      31.063 -18.928  -0.525  0.00  0.00    -0.147 F 
ATOM     26  F   UNL d   1      33.009 -18.019  -0.839  0.00  0.00    -0.147 F 
ENDBRANCH   3  16
TORSDOF 4
ENDMDL
MODEL 9
REMARK VINA RESULT:    -6.932      4.074      4.844
REMARK INTER + INTRA:          -8.656
REMARK INTER:                  -8.125
REMARK INTRA:                  -0.531
REMARK CONF_INDEPENDENT:        1.193
REMARK UNBOUND:                -0.531
REMARK  4 active torsions:
REMARK  status: ('A' for Active; 'I' for Inactive)
REMARK    1  A    between atoms: N_1  and  C_2 
REMARK    2  A    between atoms: C_2  and  C_4 
REMARK    3  A    between atoms: C_7  and  C_8 
REMARK       I    between atoms: C_8  and  N_10 
REMARK    4  A    between atoms: N_10  and  C_11 
ROOT
ATOM      1  C   UNL d   1      25.593 -16.912  -0.891  0.00  0.00     0.256 C 
ATOM      2  O   UNL d   1      25.874 -16.347  -1.927  0.00  0.00    -0.267 OA
ATOM      3  N   UNL d   1      26.493 -17.091   0.168  0.00  0.00    -0.323 N 
ATOM      4  H   UNL d   1      26.258 -17.614   0.991  0.00  0.00     0.169 HD
ENDROOT
BRANCH   1   5
ATOM      5  C   UNL d   1      24.207 -17.469  -0.727  0.00  0.00     0.032 A 
ATOM      6  C   UNL d   1      24.092 -18.841  -0.442  0.00  0.00     0.018 A 
ATOM      7  C   UNL d   1      22.840 -19.464  -0.403  0.00  0.00     0.015 A 
ATOM      8  C   UNL d   1      21.675 -18.709  -0.568  0.00  0.00     0.001 A 
ATOM      9  C   UNL d   1      21.780 -17.334  -0.812  0.00  0.00     0.015 A 
ATOM     10  C   UNL d   1      23.039 -16.719  -0.895  0.00  0.00     0.018 A 
BRANCH   8  11
ATOM     11  C   UNL d   1      20.338 -19.338  -0.401  0.00  0.00     0.104 C 
ATOM     12  S   UNL d   1      20.024 -20.635   0.605  0.00  0.00    -0.060 SA
BRANCH  11  13
ATOM     13  N   UNL d   1      19.299 -18.788  -1.105  0.00  0.00    -0.390 N 
ATOM     14  H   UNL d   1      19.373 -17.815  -1.385  0.00  0.00     0.157 HD
ATOM     15  H   UNL d   1      18.416 -19.253  -1.270  0.00  0.00     0.157 HD
ENDBRANCH  11  13
ENDBRANCH   8  11
ENDBRANCH   1   5
BRANCH   3  16
ATOM     16  C   UNL d   1      27.721 -16.413   0.214  0.00  0.00     0.037 C 
ATOM     17  C   UNL d   1      28.904 -16.927  -0.308  0.00  0.00     0.032 C 
ATOM     18  C   UNL d   1      29.980 -16.022  -0.459  0.00  0.00     0.042 C 
ATOM     19  C   UNL d   1      29.881 -14.803   0.205  0.00  0.00     0.111 C 
ATOM     20  C   UNL d   1      29.049 -14.769   1.268  0.00  0.00     0.113 C 
ATOM     21  O   UNL d   1      29.897 -13.467  -0.258  0.00  0.00    -0.256 OA
ATOM     22  C   UNL d   1      27.800 -15.254   0.962  0.00  0.00     0.069 C 
ATOM     23  O   UNL d   1      29.294 -13.645   2.014  0.00  0.00    -0.256 OA
ATOM     24  C   UNL d   1      29.214 -12.802   0.889  0.00  0.00     0.498 C 
ATOM     25  F   UNL d   1      27.870 -12.619   0.710  0.00  0.00    -0.147 F 
ATOM     26  F   UNL d   1      29.723 -11.579   1.159  0.00  0.00    -0.147 F 
ENDBRANCH   3  16
TORSDOF 4
ENDMDL
