MODEL 1
REMARK VINA RESULT:    -7.433      0.000      0.000
REMARK INTER + INTRA:         -11.644
REMARK INTER:                 -10.118
REMARK INTRA:                  -1.526
REMARK CONF_INDEPENDENT:        2.685
REMARK UNBOUND:                -1.526
REMARK  9 active torsions:
REMARK  status: ('A' for Active; 'I' for Inactive)
REMARK    1  A    between atoms: C_3  and  N_4 
REMARK       I    between atoms: N_4  and  C_5 
REMARK    2  A    between atoms: C_5  and  C_7 
REMARK    3  A    between atoms: C_12  and  N_13 
REMARK       I    between atoms: N_13  and  C_14 
REMARK    4  A    between atoms: C_14  and  C_16 
REMARK    5  A    between atoms: C_19  and  N_20 
REMARK    6  A    between atoms: N_20  and  C_21 
REMARK    7  A    between atoms: C_21  and  C_22 
REMARK    8  A    between atoms: C_22  and  O_23 
REMARK    9  A    between atoms: C_25  and  N_26 
ROOT
ATOM      1  C   UNL d   1      26.590 -13.001   1.405  0.00  0.00     0.014 C 
ATOM      2  C   UNL d   1      27.136 -13.456   2.498  0.00  0.00    -0.098 C 
ATOM      3  C   UNL d   1      27.772 -13.987   3.772  0.00  0.00     0.216 C 
ENDROOT
BRANCH   3   4
ATOM      4  N   UNL d   1      29.134 -14.485   3.536  0.00  0.00    -0.346 N 
ATOM      5  C   UNL d   1      30.005 -13.738   2.746  0.00  0.00     0.254 C 
ATOM      6  O   UNL d   1      29.914 -12.517   2.634  0.00  0.00    -0.268 OA
ATOM      7  H   UNL d   1      29.276 -15.482   3.553  0.00  0.00     0.163 HD
BRANCH   5   8
ATOM      8  C   UNL d   1      31.079 -14.456   1.966  0.00  0.00     0.058 A 
ATOM      9  C   UNL d   1      32.395 -14.004   2.205  0.00  0.00     0.019 A 
ATOM     10  C   UNL d   1      33.475 -14.446   1.434  0.00  0.00     0.001 A 
ATOM     11  C   UNL d   1      33.271 -15.399   0.443  0.00  0.00     0.002 A 
ATOM     12  C   UNL d   1      31.983 -15.890   0.210  0.00  0.00     0.030 A 
ATOM     13  C   UNL d   1      30.870 -15.422   0.947  0.00  0.00     0.050 A 
BRANCH  13  14
ATOM     14  N   UNL d   1      29.611 -15.984   0.594  0.00  0.00    -0.322 N 
ATOM     15  C   UNL d   1      29.164 -16.028  -0.718  0.00  0.00     0.256 C 
ATOM     16  O   UNL d   1      29.893 -15.960  -1.679  0.00  0.00    -0.267 OA
ATOM     17  H   UNL d   1      29.235 -16.694   1.211  0.00  0.00     0.169 HD
BRANCH  15  18
ATOM     18  C   UNL d   1      27.705 -16.177  -0.964  0.00  0.00     0.034 C 
ATOM     19  C   UNL d   1      26.989 -16.942  -0.047  0.00  0.00     0.019 C 
ATOM     20  C   UNL d   1      25.619 -17.126  -0.193  0.00  0.00     0.032 C 
ATOM     21  C   UNL d   1      24.881 -16.463  -1.200  0.00  0.00     0.061 C 
ATOM     22  C   UNL d   1      25.640 -15.779  -2.206  0.00  0.00     0.130 C 
ATOM     23  C   UNL d   1      27.050 -15.683  -2.078  0.00  0.00     0.055 C 
BRANCH  21  24
ATOM     24  N   UNL d   1      23.506 -16.620  -1.035  0.00  0.00    -0.386 N 
ATOM     25  H   UNL d   1      22.877 -16.175  -1.699  0.00  0.00     0.159 HD
BRANCH  24  26
ATOM     26  C   UNL d   1      22.982 -17.708  -0.256  0.00  0.00     0.146 C 
BRANCH  26  27
ATOM     27  C   UNL d   1      22.145 -18.728  -0.974  0.00  0.00     0.186 C 
BRANCH  27  28
ATOM     28  O   UNL d   1      20.790 -18.286  -0.832  0.00  0.00    -0.394 OA
ATOM     29  C   UNL d   1      19.968 -19.339  -0.377  0.00  0.00     0.201 C 
ENDBRANCH  27  28
ENDBRANCH  26  27
ENDBRANCH  24  26
ENDBRANCH  21  24
BRANCH  22  30
ATOM     30  N   UNL d   1      25.153 -15.082  -3.446  0.00  0.00    -0.113 N 
ATOM     31  O   UNL d   1      24.404 -14.112  -3.405  0.00  0.00    -0.532 OA
ATOM     32  O   UNL d   1      25.549 -15.532  -4.534  0.00  0.00    -0.532 OA
ENDBRANCH  22  30
ENDBRANCH  15  18
ENDBRANCH  13  14
ENDBRANCH   5   8
ENDBRANCH   3   4
TORSDOF 9
ENDMDL
MODEL 2
REMARK VINA RESULT:    -6.770      3.449      8.225
REMARK INTER + INTRA:         -11.168
REMARK INTER:                  -9.455
REMARK INTRA:                  -1.713
REMARK CONF_INDEPENDENT:        2.685
REMARK UNBOUND:                -1.713
REMARK  9 active torsions:
REMARK  status: ('A' for Active; 'I' for Inactive)
REMARK    1  A    between atoms: C_3  and  N_4 
REMARK       I    between atoms: N_4  and  C_5 
REMARK    2  A    between atoms: C_5  and  C_7 
REMARK    3  A    between atoms: C_12  and  N_13 
REMARK       I    between atoms: N_13  and  C_14 
REMARK    4  A    between atoms: C_14  and  C_16 
REMARK    5  A    between atoms: C_19  and  N_20 
REMARK    6  A    between atoms: N_20  and  C_21 
REMARK    7  A    between atoms: C_21  and  C_22 
REMARK    8  A    between atoms: C_22  and  O_23 
REMARK    9  A    between atoms: C_25  and  N_26 
ROOT
ATOM      1  C   UNL d   1      22.635 -18.517  -0.424  0.00  0.00     0.014 C 
ATOM      2  C   UNL d   1      23.885 -18.220  -0.198  0.00  0.00    -0.098 C 
ATOM      3  C   UNL d   1      25.342 -17.875   0.064  0.00  0.00     0.216 C 
ENDROOT
BRANCH   3   4
ATOM      4  N   UNL d   1      25.909 -17.047  -1.008  0.00  0.00    -0.346 N 
ATOM      5  C   UNL d   1      25.923 -15.661  -0.864  0.00  0.00     0.254 C 
ATOM      6  O   UNL d   1      25.954 -15.111   0.235  0.00  0.00    -0.268 OA
ATOM      7  H   UNL d   1      25.866 -17.407  -1.948  0.00  0.00     0.163 HD
BRANCH   5   8
ATOM      8  C   UNL d   1      25.858 -14.799  -2.101  0.00  0.00     0.058 A 
ATOM      9  C   UNL d   1      25.582 -15.492  -3.300  0.00  0.00     0.019 A 
ATOM     10  C   UNL d   1      25.664 -14.864  -4.547  0.00  0.00     0.001 A 
ATOM     11  C   UNL d   1      25.964 -13.509  -4.618  0.00  0.00     0.002 A 
ATOM     12  C   UNL d   1      26.206 -12.790  -3.443  0.00  0.00     0.030 A 
ATOM     13  C   UNL d   1      26.175 -13.418  -2.176  0.00  0.00     0.050 A 
BRANCH  13  14
ATOM     14  N   UNL d   1      26.464 -12.579  -1.062  0.00  0.00    -0.322 N 
ATOM     15  C   UNL d   1      27.473 -12.874  -0.158  0.00  0.00     0.256 C 
ATOM     16  O   UNL d   1      28.406 -13.602  -0.406  0.00  0.00    -0.267 OA
ATOM     17  H   UNL d   1      26.224 -11.599  -1.149  0.00  0.00     0.169 HD
BRANCH  15  18
ATOM     18  C   UNL d   1      27.418 -12.254   1.192  0.00  0.00     0.034 C 
ATOM     19  C   UNL d   1      27.872 -13.028   2.256  0.00  0.00     0.019 C 
ATOM     20  C   UNL d   1      27.866 -12.526   3.552  0.00  0.00     0.032 C 
ATOM     21  C   UNL d   1      27.509 -11.187   3.831  0.00  0.00     0.061 C 
ATOM     22  C   UNL d   1      26.930 -10.439   2.753  0.00  0.00     0.130 C 
ATOM     23  C   UNL d   1      26.867 -11.012   1.456  0.00  0.00     0.055 C 
BRANCH  21  24
ATOM     24  N   UNL d   1      27.775 -10.835   5.153  0.00  0.00    -0.386 N 
ATOM     25  H   UNL d   1      27.136 -10.205   5.633  0.00  0.00     0.159 HD
BRANCH  24  26
ATOM     26  C   UNL d   1      28.637 -11.646   5.967  0.00  0.00     0.146 C 
BRANCH  26  27
ATOM     27  C   UNL d   1      28.752 -11.286   7.420  0.00  0.00     0.186 C 
BRANCH  27  28
ATOM     28  O   UNL d   1      28.534  -9.872   7.488  0.00  0.00    -0.394 OA
ATOM     29  C   UNL d   1      29.556  -9.178   6.805  0.00  0.00     0.201 C 
ENDBRANCH  27  28
ENDBRANCH  26  27
ENDBRANCH  24  26
ENDBRANCH  21  24
BRANCH  22  30
ATOM     30  N   UNL d   1      26.360  -9.049   2.766  0.00  0.00    -0.113 N 
ATOM     31  O   UNL d   1      26.657  -8.223   3.623  0.00  0.00    -0.532 OA
ATOM     32  O   UNL d   1      25.563  -8.761   1.858  0.00  0.00    -0.532 OA
ENDBRANCH  22  30
ENDBRANCH  15  18
ENDBRANCH  13  14
ENDBRANCH   5   8
ENDBRANCH   3   4
TORSDOF 9
ENDMDL
MODEL 3
REMARK VINA RESULT:    -6.255      2.397      3.181
REMARK INTER + INTRA:         -10.634
REMARK INTER:                  -8.940
REMARK INTRA:                  -1.694
REMARK CONF_INDEPENDENT:        2.685
REMARK UNBOUND:                -1.694
REMARK  9 active torsions:
REMARK  status: ('A' for Active; 'I' for Inactive)
REMARK    1  A    between atoms: C_3  and  N_4 
REMARK       I    between atoms: N_4  and  C_5 
REMARK    2  A    between atoms: C_5  and  C_7 
REMARK    3  A    between atoms: C_12  and  N_13 
REMARK       I    between atoms: N_13  and  C_14 
REMARK    4  A    between atoms: C_14  and  C_16 
REMARK    5  A    between atoms: C_19  and  N_20 
REMARK    6  A    between atoms: N_20  and  C_21 
REMARK    7  A    between atoms: C_21  and  C_22 
REMARK    8  A    between atoms: C_22  and  O_23 
REMARK    9  A    between atoms: C_25  and  N_26 
ROOT
ATOM      1  C   UNL d   1      30.378  -8.963   0.087  0.00  0.00     0.014 C 
ATOM      2  C   UNL d   1      29.349  -9.764   0.079  0.00  0.00    -0.098 C 
ATOM      3  C   UNL d   1      28.151 -10.699   0.069  0.00  0.00     0.216 C 
ENDROOT
BRANCH   3   4
ATOM      4  N   UNL d   1      28.383 -11.893   0.892  0.00  0.00    -0.346 N 
ATOM      5  C   UNL d   1      27.645 -12.069   2.061  0.00  0.00     0.254 C 
ATOM      6  O   UNL d   1      26.522 -11.592   2.212  0.00  0.00    -0.268 OA
ATOM      7  H   UNL d   1      29.300 -12.307   0.866  0.00  0.00     0.163 HD
BRANCH   5   8
ATOM      8  C   UNL d   1      28.261 -12.841   3.203  0.00  0.00     0.058 A 
ATOM      9  C   UNL d   1      28.894 -12.050   4.186  0.00  0.00     0.019 A 
ATOM     10  C   UNL d   1      29.658 -12.623   5.208  0.00  0.00     0.001 A 
ATOM     11  C   UNL d   1      29.756 -14.005   5.305  0.00  0.00     0.002 A 
ATOM     12  C   UNL d   1      29.108 -14.813   4.364  0.00  0.00     0.030 A 
ATOM     13  C   UNL d   1      28.369 -14.252   3.296  0.00  0.00     0.050 A 
BRANCH  13  14
ATOM     14  N   UNL d   1      27.781 -15.183   2.394  0.00  0.00    -0.322 N 
ATOM     15  C   UNL d   1      27.856 -15.027   1.018  0.00  0.00     0.256 C 
ATOM     16  O   UNL d   1      28.694 -14.356   0.463  0.00  0.00    -0.267 OA
ATOM     17  H   UNL d   1      27.668 -16.135   2.723  0.00  0.00     0.169 HD
BRANCH  15  18
ATOM     18  C   UNL d   1      26.857 -15.731   0.170  0.00  0.00     0.034 C 
ATOM     19  C   UNL d   1      26.463 -16.999   0.586  0.00  0.00     0.019 C 
ATOM     20  C   UNL d   1      25.527 -17.726  -0.140  0.00  0.00     0.032 C 
ATOM     21  C   UNL d   1      24.858 -17.173  -1.256  0.00  0.00     0.061 C 
ATOM     22  C   UNL d   1      25.354 -15.920  -1.746  0.00  0.00     0.130 C 
ATOM     23  C   UNL d   1      26.376 -15.242  -1.032  0.00  0.00     0.055 C 
BRANCH  21  24
ATOM     24  N   UNL d   1      23.816 -17.985  -1.701  0.00  0.00    -0.386 N 
ATOM     25  H   UNL d   1      24.039 -18.833  -2.216  0.00  0.00     0.159 HD
BRANCH  24  26
ATOM     26  C   UNL d   1      22.515 -17.901  -1.098  0.00  0.00     0.146 C 
BRANCH  26  27
ATOM     27  C   UNL d   1      21.985 -19.137  -0.429  0.00  0.00     0.186 C 
BRANCH  27  28
ATOM     28  O   UNL d   1      20.910 -19.595  -1.257  0.00  0.00    -0.394 OA
ATOM     29  C   UNL d   1      19.666 -19.192  -0.726  0.00  0.00     0.201 C 
ENDBRANCH  27  28
ENDBRANCH  26  27
ENDBRANCH  24  26
ENDBRANCH  21  24
BRANCH  22  30
ATOM     30  N   UNL d   1      24.928 -15.145  -2.961  0.00  0.00    -0.113 N 
ATOM     31  O   UNL d   1      24.041 -14.299  -2.926  0.00  0.00    -0.532 OA
ATOM     32  O   UNL d   1      25.522 -15.396  -4.023  0.00  0.00    -0.532 OA
ENDBRANCH  22  30
ENDBRANCH  15  18
ENDBRANCH  13  14
ENDBRANCH   5   8
ENDBRANCH   3   4
TORSDOF 9
ENDMDL
MODEL 4
REMARK VINA RESULT:    -6.006      4.505      8.801
REMARK INTER + INTRA:         -10.892
REMARK INTER:                  -8.690
REMARK INTRA:                  -2.202
REMARK CONF_INDEPENDENT:        2.685
REMARK UNBOUND:                -2.202
REMARK  9 active torsions:
REMARK  status: ('A' for Active; 'I' for Inactive)
REMARK    1  A    between atoms: C_3  and  N_4 
REMARK       I    between atoms: N_4  and  C_5 
REMARK    2  A    between atoms: C_5  and  C_7 
REMARK    3  A    between atoms: C_12  and  N_13 
REMARK       I    between atoms: N_13  and  C_14 
REMARK    4  A    between atoms: C_14  and  C_16 
REMARK    5  A    between atoms: C_19  and  N_20 
REMARK    6  A    between atoms: N_20  and  C_21 
REMARK    7  A    between atoms: C_21  and  C_22 
REMARK    8  A    between atoms: C_22  and  O_23 
REMARK    9  A    between atoms: C_25  and  N_26 
ROOT
ATOM      1  C   UNL d   1      27.441  -9.672  -7.896  0.00  0.00     0.014 C 
ATOM      2  C   UNL d   1      26.665  -9.425  -6.877  0.00  0.00    -0.098 C 
ATOM      3  C   UNL d   1      25.761  -9.136  -5.689  0.00  0.00     0.216 C 
ENDROOT
BRANCH   3   4
ATOM      4  N   UNL d   1      25.333 -10.370  -5.017  0.00  0.00    -0.346 N 
ATOM      5  C   UNL d   1      26.001 -10.785  -3.867  0.00  0.00     0.254 C 
ATOM      6  O   UNL d   1      26.571  -9.999  -3.112  0.00  0.00    -0.268 OA
ATOM      7  H   UNL d   1      24.910 -11.087  -5.582  0.00  0.00     0.163 HD
BRANCH   5   8
ATOM      8  C   UNL d   1      26.063 -12.260  -3.552  0.00  0.00     0.058 A 
ATOM      9  C   UNL d   1      25.697 -13.114  -4.616  0.00  0.00     0.019 A 
ATOM     10  C   UNL d   1      25.534 -14.491  -4.429  0.00  0.00     0.001 A 
ATOM     11  C   UNL d   1      25.795 -15.054  -3.187  0.00  0.00     0.002 A 
ATOM     12  C   UNL d   1      26.195 -14.236  -2.125  0.00  0.00     0.030 A 
ATOM     13  C   UNL d   1      26.319 -12.835  -2.281  0.00  0.00     0.050 A 
BRANCH  13  14
ATOM     14  N   UNL d   1      26.708 -12.114  -1.117  0.00  0.00    -0.322 N 
ATOM     15  C   UNL d   1      27.347 -12.726  -0.048  0.00  0.00     0.256 C 
ATOM     16  O   UNL d   1      27.951 -13.769  -0.134  0.00  0.00    -0.267 OA
ATOM     17  H   UNL d   1      26.888 -11.124  -1.228  0.00  0.00     0.169 HD
BRANCH  15  18
ATOM     18  C   UNL d   1      27.297 -12.061   1.281  0.00  0.00     0.034 C 
ATOM     19  C   UNL d   1      27.759 -12.797   2.368  0.00  0.00     0.019 C 
ATOM     20  C   UNL d   1      27.759 -12.251   3.646  0.00  0.00     0.032 C 
ATOM     21  C   UNL d   1      27.401 -10.904   3.881  0.00  0.00     0.061 C 
ATOM     22  C   UNL d   1      26.815 -10.194   2.781  0.00  0.00     0.130 C 
ATOM     23  C   UNL d   1      26.746 -10.811   1.505  0.00  0.00     0.055 C 
BRANCH  21  24
ATOM     24  N   UNL d   1      27.674 -10.506   5.189  0.00  0.00    -0.386 N 
ATOM     25  H   UNL d   1      27.033 -10.779   5.930  0.00  0.00     0.159 HD
BRANCH  24  26
ATOM     26  C   UNL d   1      29.004 -10.121   5.573  0.00  0.00     0.146 C 
BRANCH  26  27
ATOM     27  C   UNL d   1      29.582 -10.773   6.797  0.00  0.00     0.186 C 
BRANCH  27  28
ATOM     28  O   UNL d   1      28.501 -11.495   7.399  0.00  0.00    -0.394 OA
ATOM     29  C   UNL d   1      28.475 -12.828   6.939  0.00  0.00     0.201 C 
ENDBRANCH  27  28
ENDBRANCH  26  27
ENDBRANCH  24  26
ENDBRANCH  21  24
BRANCH  22  30
ATOM     30  N   UNL d   1      26.243  -8.805   2.750  0.00  0.00    -0.113 N 
ATOM     31  O   UNL d   1      25.405  -8.456   1.925  0.00  0.00    -0.532 OA
ATOM     32  O   UNL d   1      26.655  -8.009   3.610  0.00  0.00    -0.532 OA
ENDBRANCH  22  30
ENDBRANCH  15  18
ENDBRANCH  13  14
ENDBRANCH   5   8
ENDBRANCH   3   4
TORSDOF 9
ENDMDL
MODEL 5
REMARK VINA RESULT:    -5.655      3.509      7.977
REMARK INTER + INTRA:         -11.263
REMARK INTER:                  -8.340
REMARK INTRA:                  -2.923
REMARK CONF_INDEPENDENT:        2.685
REMARK UNBOUND:                -2.923
REMARK  9 active torsions:
REMARK  status: ('A' for Active; 'I' for Inactive)
REMARK    1  A    between atoms: C_3  and  N_4 
REMARK       I    between atoms: N_4  and  C_5 
REMARK    2  A    between atoms: C_5  and  C_7 
REMARK    3  A    between atoms: C_12  and  N_13 
REMARK       I    between atoms: N_13  and  C_14 
REMARK    4  A    between atoms: C_14  and  C_16 
REMARK    5  A    between atoms: C_19  and  N_20 
REMARK    6  A    between atoms: N_20  and  C_21 
REMARK    7  A    between atoms: C_21  and  C_22 
REMARK    8  A    between atoms: C_22  and  O_23 
REMARK    9  A    between atoms: C_25  and  N_26 
ROOT
ATOM      1  C   UNL d   1      30.487 -15.050   0.459  0.00  0.00     0.014 C 
ATOM      2  C   UNL d   1      29.510 -15.903   0.327  0.00  0.00    -0.098 C 
ATOM      3  C   UNL d   1      28.372 -16.899   0.173  0.00  0.00     0.216 C 
ENDROOT
BRANCH   3   4
ATOM      4  N   UNL d   1      27.317 -16.390  -0.713  0.00  0.00    -0.346 N 
ATOM      5  C   UNL d   1      27.668 -15.849  -1.948  0.00  0.00     0.254 C 
ATOM      6  O   UNL d   1      28.684 -16.186  -2.554  0.00  0.00    -0.268 OA
ATOM      7  H   UNL d   1      26.476 -16.040  -0.285  0.00  0.00     0.163 HD
BRANCH   5   8
ATOM      8  C   UNL d   1      26.791 -14.778  -2.551  0.00  0.00     0.058 A 
ATOM      9  C   UNL d   1      26.211 -15.111  -3.795  0.00  0.00     0.019 A 
ATOM     10  C   UNL d   1      25.521 -14.165  -4.560  0.00  0.00     0.001 A 
ATOM     11  C   UNL d   1      25.341 -12.879  -4.067  0.00  0.00     0.002 A 
ATOM     12  C   UNL d   1      25.873 -12.533  -2.821  0.00  0.00     0.030 A 
ATOM     13  C   UNL d   1      26.615 -13.461  -2.054  0.00  0.00     0.050 A 
BRANCH  13  14
ATOM     14  N   UNL d   1      27.124 -12.976  -0.816  0.00  0.00    -0.322 N 
ATOM     15  C   UNL d   1      26.623 -13.400   0.406  0.00  0.00     0.256 C 
ATOM     16  O   UNL d   1      26.019 -14.436   0.561  0.00  0.00    -0.267 OA
ATOM     17  H   UNL d   1      28.083 -12.649  -0.809  0.00  0.00     0.169 HD
BRANCH  15  18
ATOM     18  C   UNL d   1      26.847 -12.542   1.599  0.00  0.00     0.034 C 
ATOM     19  C   UNL d   1      27.501 -13.127   2.679  0.00  0.00     0.019 C 
ATOM     20  C   UNL d   1      27.761 -12.397   3.832  0.00  0.00     0.032 C 
ATOM     21  C   UNL d   1      27.477 -11.014   3.919  0.00  0.00     0.061 C 
ATOM     22  C   UNL d   1      26.698 -10.451   2.854  0.00  0.00     0.130 C 
ATOM     23  C   UNL d   1      26.370 -11.249   1.727  0.00  0.00     0.055 C 
BRANCH  21  24
ATOM     24  N   UNL d   1      28.008 -10.438   5.071  0.00  0.00    -0.386 N 
ATOM     25  H   UNL d   1      27.383 -10.209   5.840  0.00  0.00     0.159 HD
BRANCH  24  26
ATOM     26  C   UNL d   1      29.407 -10.563   5.373  0.00  0.00     0.146 C 
BRANCH  26  27
ATOM     27  C   UNL d   1      29.779 -10.892   6.791  0.00  0.00     0.186 C 
BRANCH  27  28
ATOM     28  O   UNL d   1      28.546 -11.194   7.454  0.00  0.00    -0.394 OA
ATOM     29  C   UNL d   1      28.322 -12.587   7.480  0.00  0.00     0.201 C 
ENDBRANCH  27  28
ENDBRANCH  26  27
ENDBRANCH  24  26
ENDBRANCH  21  24
BRANCH  22  30
ATOM     30  N   UNL d   1      26.152  -9.058   2.717  0.00  0.00    -0.113 N 
ATOM     31  O   UNL d   1      26.656  -8.095   3.286  0.00  0.00    -0.532 OA
ATOM     32  O   UNL d   1      25.155  -8.915   1.991  0.00  0.00    -0.532 OA
ENDBRANCH  22  30
ENDBRANCH  15  18
ENDBRANCH  13  14
ENDBRANCH   5   8
ENDBRANCH   3   4
TORSDOF 9
ENDMDL
MODEL 6
REMARK VINA RESULT:    -5.417      3.905      7.595
REMARK INTER + INTRA:         -11.337
REMARK INTER:                  -8.102
REMARK INTRA:                  -3.235
REMARK CONF_INDEPENDENT:        2.685
REMARK UNBOUND:                -3.235
REMARK  9 active torsions:
REMARK  status: ('A' for Active; 'I' for Inactive)
REMARK    1  A    between atoms: C_3  and  N_4 
REMARK       I    between atoms: N_4  and  C_5 
REMARK    2  A    between atoms: C_5  and  C_7 
REMARK    3  A    between atoms: C_12  and  N_13 
REMARK       I    between atoms: N_13  and  C_14 
REMARK    4  A    between atoms: C_14  and  C_16 
REMARK    5  A    between atoms: C_19  and  N_20 
REMARK    6  A    between atoms: N_20  and  C_21 
REMARK    7  A    between atoms: C_21  and  C_22 
REMARK    8  A    between atoms: C_22  and  O_23 
REMARK    9  A    between atoms: C_25  and  N_26 
ROOT
ATOM      1  C   UNL d   1      29.524 -16.533  -3.061  0.00  0.00     0.014 C 
ATOM      2  C   UNL d   1      29.276 -16.687  -1.790  0.00  0.00    -0.098 C 
ATOM      3  C   UNL d   1      28.987 -16.866  -0.308  0.00  0.00     0.216 C 
ENDROOT
BRANCH   3   4
ATOM      4  N   UNL d   1      27.560 -16.699  -0.006  0.00  0.00    -0.346 N 
ATOM      5  C   UNL d   1      26.752 -17.828   0.107  0.00  0.00     0.254 C 
ATOM      6  O   UNL d   1      27.190 -18.924   0.451  0.00  0.00    -0.268 OA
ATOM      7  H   UNL d   1      27.114 -15.848  -0.309  0.00  0.00     0.163 HD
BRANCH   5   8
ATOM      8  C   UNL d   1      25.287 -17.714  -0.241  0.00  0.00     0.058 A 
ATOM      9  C   UNL d   1      24.414 -18.431   0.606  0.00  0.00     0.019 A 
ATOM     10  C   UNL d   1      23.053 -18.567   0.312  0.00  0.00     0.001 A 
ATOM     11  C   UNL d   1      22.523 -17.936  -0.806  0.00  0.00     0.002 A 
ATOM     12  C   UNL d   1      23.359 -17.189  -1.642  0.00  0.00     0.030 A 
ATOM     13  C   UNL d   1      24.746 -17.078  -1.388  0.00  0.00     0.050 A 
BRANCH  13  14
ATOM     14  N   UNL d   1      25.489 -16.310  -2.329  0.00  0.00    -0.322 N 
ATOM     15  C   UNL d   1      25.840 -14.990  -2.092  0.00  0.00     0.256 C 
ATOM     16  O   UNL d   1      25.896 -14.497  -0.989  0.00  0.00    -0.267 OA
ATOM     17  H   UNL d   1      26.093 -16.819  -2.963  0.00  0.00     0.169 HD
BRANCH  15  18
ATOM     18  C   UNL d   1      26.178 -14.127  -3.255  0.00  0.00     0.034 C 
ATOM     19  C   UNL d   1      25.658 -12.836  -3.250  0.00  0.00     0.019 C 
ATOM     20  C   UNL d   1      25.931 -11.957  -4.292  0.00  0.00     0.032 C 
ATOM     21  C   UNL d   1      26.826 -12.291  -5.333  0.00  0.00     0.061 C 
ATOM     22  C   UNL d   1      27.259 -13.657  -5.394  0.00  0.00     0.130 C 
ATOM     23  C   UNL d   1      26.891 -14.557  -4.361  0.00  0.00     0.055 C 
BRANCH  21  24
ATOM     24  N   UNL d   1      27.117 -11.199  -6.149  0.00  0.00    -0.386 N 
ATOM     25  H   UNL d   1      28.075 -11.061  -6.463  0.00  0.00     0.159 HD
BRANCH  24  26
ATOM     26  C   UNL d   1      26.077 -10.545  -6.893  0.00  0.00     0.146 C 
BRANCH  26  27
ATOM     27  C   UNL d   1      26.383 -10.161  -8.312  0.00  0.00     0.186 C 
BRANCH  27  28
ATOM     28  O   UNL d   1      27.727 -10.596  -8.550  0.00  0.00    -0.394 OA
ATOM     29  C   UNL d   1      27.745 -11.686  -9.447  0.00  0.00     0.201 C 
ENDBRANCH  27  28
ENDBRANCH  26  27
ENDBRANCH  24  26
ENDBRANCH  21  24
BRANCH  22  30
ATOM     30  N   UNL d   1      28.112 -14.333  -6.430  0.00  0.00    -0.113 N 
ATOM     31  O   UNL d   1      28.784 -13.704  -7.242  0.00  0.00    -0.532 OA
ATOM     32  O   UNL d   1      28.115 -15.575  -6.433  0.00  0.00    -0.532 OA
ENDBRANCH  22  30
ENDBRANCH  15  18
ENDBRANCH  13  14
ENDBRANCH   5   8
ENDBRANCH   3   4
TORSDOF 9
ENDMDL
MODEL 7
REMARK VINA RESULT:    -5.098      4.509      8.045
REMARK INTER + INTRA:         -10.674
REMARK INTER:                  -7.782
REMARK INTRA:                  -2.891
REMARK CONF_INDEPENDENT:        2.685
REMARK UNBOUND:                -2.891
REMARK  9 active torsions:
REMARK  status: ('A' for Active; 'I' for Inactive)
REMARK    1  A    between atoms: C_3  and  N_4 
REMARK       I    between atoms: N_4  and  C_5 
REMARK    2  A    between atoms: C_5  and  C_7 
REMARK    3  A    between atoms: C_12  and  N_13 
REMARK       I    between atoms: N_13  and  C_14 
REMARK    4  A    between atoms: C_14  and  C_16 
REMARK    5  A    between atoms: C_19  and  N_20 
REMARK    6  A    between atoms: N_20  and  C_21 
REMARK    7  A    between atoms: C_21  and  C_22 
REMARK    8  A    between atoms: C_22  and  O_23 
REMARK    9  A    between atoms: C_25  and  N_26 
ROOT
ATOM      1  C   UNL d   1      29.896 -16.271  -5.725  0.00  0.00     0.014 C 
ATOM      2  C   UNL d   1      29.673 -16.454  -4.453  0.00  0.00    -0.098 C 
ATOM      3  C   UNL d   1      29.412 -16.667  -2.971  0.00  0.00     0.216 C 
ENDROOT
BRANCH   3   4
ATOM      4  N   UNL d   1      28.050 -16.269  -2.593  0.00  0.00    -0.346 N 
ATOM      5  C   UNL d   1      27.648 -16.394  -1.265  0.00  0.00     0.254 C 
ATOM      6  O   UNL d   1      28.440 -16.346  -0.326  0.00  0.00    -0.268 OA
ATOM      7  H   UNL d   1      27.332 -16.337  -3.295  0.00  0.00     0.163 HD
BRANCH   5   8
ATOM      8  C   UNL d   1      26.188 -16.637  -0.966  0.00  0.00     0.058 A 
ATOM      9  C   UNL d   1      25.926 -17.740  -0.125  0.00  0.00     0.019 A 
ATOM     10  C   UNL d   1      24.624 -18.198   0.101  0.00  0.00     0.001 A 
ATOM     11  C   UNL d   1      23.548 -17.522  -0.461  0.00  0.00     0.002 A 
ATOM     12  C   UNL d   1      23.778 -16.404  -1.268  0.00  0.00     0.030 A 
ATOM     13  C   UNL d   1      25.089 -15.954  -1.548  0.00  0.00     0.050 A 
BRANCH  13  14
ATOM     14  N   UNL d   1      25.186 -14.821  -2.404  0.00  0.00    -0.322 N 
ATOM     15  C   UNL d   1      25.589 -14.927  -3.726  0.00  0.00     0.256 C 
ATOM     16  O   UNL d   1      25.530 -15.950  -4.367  0.00  0.00    -0.267 OA
ATOM     17  H   UNL d   1      24.595 -14.028  -2.186  0.00  0.00     0.169 HD
BRANCH  15  18
ATOM     18  C   UNL d   1      26.116 -13.713  -4.406  0.00  0.00     0.034 C 
ATOM     19  C   UNL d   1      27.045 -13.917  -5.421  0.00  0.00     0.019 C 
ATOM     20  C   UNL d   1      27.584 -12.841  -6.117  0.00  0.00     0.032 C 
ATOM     21  C   UNL d   1      27.136 -11.517  -5.905  0.00  0.00     0.061 C 
ATOM     22  C   UNL d   1      26.272 -11.304  -4.780  0.00  0.00     0.130 C 
ATOM     23  C   UNL d   1      25.808 -12.417  -4.031  0.00  0.00     0.055 C 
BRANCH  21  24
ATOM     24  N   UNL d   1      27.649 -10.629  -6.849  0.00  0.00    -0.386 N 
ATOM     25  H   UNL d   1      28.627 -10.709  -7.119  0.00  0.00     0.159 HD
BRANCH  24  26
ATOM     26  C   UNL d   1      26.772  -9.924  -7.742  0.00  0.00     0.146 C 
BRANCH  26  27
ATOM     27  C   UNL d   1      27.344  -9.478  -9.057  0.00  0.00     0.186 C 
BRANCH  27  28
ATOM     28  O   UNL d   1      28.500 -10.294  -9.275  0.00  0.00    -0.394 OA
ATOM     29  C   UNL d   1      28.136 -11.531  -9.847  0.00  0.00     0.201 C 
ENDBRANCH  27  28
ENDBRANCH  26  27
ENDBRANCH  24  26
ENDBRANCH  21  24
BRANCH  22  30
ATOM     30  N   UNL d   1      25.724 -10.014  -4.240  0.00  0.00    -0.113 N 
ATOM     31  O   UNL d   1      25.516  -9.037  -4.953  0.00  0.00    -0.532 OA
ATOM     32  O   UNL d   1      25.482  -9.972  -3.023  0.00  0.00    -0.532 OA
ENDBRANCH  22  30
ENDBRANCH  15  18
ENDBRANCH  13  14
ENDBRANCH   5   8
ENDBRANCH   3   4
TORSDOF 9
ENDMDL
MODEL 8
REMARK VINA RESULT:    -5.082      4.013      8.229
REMARK INTER + INTRA:         -10.783
REMARK INTER:                  -7.767
REMARK INTRA:                  -3.016
REMARK CONF_INDEPENDENT:        2.685
REMARK UNBOUND:                -3.016
REMARK  9 active torsions:
REMARK  status: ('A' for Active; 'I' for Inactive)
REMARK    1  A    between atoms: C_3  and  N_4 
REMARK       I    between atoms: N_4  and  C_5 
REMARK    2  A    between atoms: C_5  and  C_7 
REMARK    3  A    between atoms: C_12  and  N_13 
REMARK       I    between atoms: N_13  and  C_14 
REMARK    4  A    between atoms: C_14  and  C_16 
REMARK    5  A    between atoms: C_19  and  N_20 
REMARK    6  A    between atoms: N_20  and  C_21 
REMARK    7  A    between atoms: C_21  and  C_22 
REMARK    8  A    between atoms: C_22  and  O_23 
REMARK    9  A    between atoms: C_25  and  N_26 
ROOT
ATOM      1  C   UNL d   1      30.975 -11.835   2.557  0.00  0.00     0.014 C 
ATOM      2  C   UNL d   1      31.224 -13.016   2.065  0.00  0.00    -0.098 C 
ATOM      3  C   UNL d   1      31.514 -14.393   1.490  0.00  0.00     0.216 C 
ENDROOT
BRANCH   3   4
ATOM      4  N   UNL d   1      30.293 -15.201   1.367  0.00  0.00    -0.346 N 
ATOM      5  C   UNL d   1      29.752 -15.429   0.104  0.00  0.00     0.254 C 
ATOM      6  O   UNL d   1      30.435 -15.432  -0.918  0.00  0.00    -0.268 OA
ATOM      7  H   UNL d   1      29.653 -15.202   2.144  0.00  0.00     0.163 HD
BRANCH   5   8
ATOM      8  C   UNL d   1      28.262 -15.641  -0.023  0.00  0.00     0.058 A 
ATOM      9  C   UNL d   1      27.882 -16.864  -0.617  0.00  0.00     0.019 A 
ATOM     10  C   UNL d   1      26.553 -17.130  -0.963  0.00  0.00     0.001 A 
ATOM     11  C   UNL d   1      25.564 -16.202  -0.665  0.00  0.00     0.002 A 
ATOM     12  C   UNL d   1      25.909 -14.997  -0.043  0.00  0.00     0.030 A 
ATOM     13  C   UNL d   1      27.253 -14.689   0.272  0.00  0.00     0.050 A 
BRANCH  13  14
ATOM     14  N   UNL d   1      27.472 -13.421   0.880  0.00  0.00    -0.322 N 
ATOM     15  C   UNL d   1      27.643 -13.277   2.248  0.00  0.00     0.256 C 
ATOM     16  O   UNL d   1      27.990 -14.174   2.980  0.00  0.00    -0.267 OA
ATOM     17  H   UNL d   1      27.897 -12.703   0.306  0.00  0.00     0.169 HD
BRANCH  15  18
ATOM     18  C   UNL d   1      27.395 -11.943   2.856  0.00  0.00     0.034 C 
ATOM     19  C   UNL d   1      28.014 -11.685   4.076  0.00  0.00     0.019 C 
ATOM     20  C   UNL d   1      27.846 -10.460   4.712  0.00  0.00     0.032 C 
ATOM     21  C   UNL d   1      27.140  -9.396   4.106  0.00  0.00     0.061 C 
ATOM     22  C   UNL d   1      26.408  -9.709   2.912  0.00  0.00     0.130 C 
ATOM     23  C   UNL d   1      26.529 -10.998   2.333  0.00  0.00     0.055 C 
BRANCH  21  24
ATOM     24  N   UNL d   1      27.274  -8.203   4.814  0.00  0.00    -0.386 N 
ATOM     25  H   UNL d   1      26.903  -8.148   5.760  0.00  0.00     0.159 HD
BRANCH  24  26
ATOM     26  C   UNL d   1      28.268  -7.237   4.437  0.00  0.00     0.146 C 
BRANCH  26  27
ATOM     27  C   UNL d   1      29.227  -6.784   5.501  0.00  0.00     0.186 C 
BRANCH  27  28
ATOM     28  O   UNL d   1      28.672  -7.239   6.741  0.00  0.00    -0.394 OA
ATOM     29  C   UNL d   1      29.389  -8.351   7.229  0.00  0.00     0.201 C 
ENDBRANCH  27  28
ENDBRANCH  26  27
ENDBRANCH  24  26
ENDBRANCH  21  24
BRANCH  22  30
ATOM     30  N   UNL d   1      25.490  -8.831   2.110  0.00  0.00    -0.113 N 
ATOM     31  O   UNL d   1      24.385  -9.206   1.730  0.00  0.00    -0.532 OA
ATOM     32  O   UNL d   1      25.897  -7.688   1.843  0.00  0.00    -0.532 OA
ENDBRANCH  22  30
ENDBRANCH  15  18
ENDBRANCH  13  14
ENDBRANCH   5   8
ENDBRANCH   3   4
TORSDOF 9
ENDMDL
MODEL 9
REMARK VINA RESULT:    -4.851      6.397      8.855
REMARK INTER + INTRA:         -10.706
REMARK INTER:                  -7.536
REMARK INTRA:                  -3.170
REMARK CONF_INDEPENDENT:        2.685
REMARK UNBOUND:                -3.170
REMARK  9 active torsions:
REMARK  status: ('A' for Active; 'I' for Inactive)
REMARK    1  A    between atoms: C_3  and  N_4 
REMARK       I    between atoms: N_4  and  C_5 
REMARK    2  A    between atoms: C_5  and  C_7 
REMARK    3  A    between atoms: C_12  and  N_13 
REMARK       I    between atoms: N_13  and  C_14 
REMARK    4  A    between atoms: C_14  and  C_16 
REMARK    5  A    between atoms: C_19  and  N_20 
REMARK    6  A    between atoms: N_20  and  C_21 
REMARK    7  A    between atoms: C_21  and  C_22 
REMARK    8  A    between atoms: C_22  and  O_23 
REMARK    9  A    between atoms: C_25  and  N_26 
ROOT
ATOM      1  C   UNL d   1      30.302 -12.481  -9.048  0.00  0.00     0.014 C 
ATOM      2  C   UNL d   1      31.477 -13.037  -8.935  0.00  0.00    -0.098 C 
ATOM      3  C   UNL d   1      32.845 -13.684  -8.803  0.00  0.00     0.216 C 
ENDROOT
BRANCH   3   4
ATOM      4  N   UNL d   1      32.816 -14.845  -7.904  0.00  0.00    -0.346 N 
ATOM      5  C   UNL d   1      32.902 -16.126  -8.443  0.00  0.00     0.254 C 
ATOM      6  O   UNL d   1      33.468 -16.359  -9.509  0.00  0.00    -0.268 OA
ATOM      7  H   UNL d   1      32.318 -14.749  -7.034  0.00  0.00     0.163 HD
BRANCH   5   8
ATOM      8  C   UNL d   1      32.241 -17.271  -7.712  0.00  0.00     0.058 A 
ATOM      9  C   UNL d   1      32.981 -18.473  -7.692  0.00  0.00     0.019 A 
ATOM     10  C   UNL d   1      32.430 -19.666  -7.210  0.00  0.00     0.001 A 
ATOM     11  C   UNL d   1      31.146 -19.668  -6.680  0.00  0.00     0.002 A 
ATOM     12  C   UNL d   1      30.405 -18.482  -6.655  0.00  0.00     0.030 A 
ATOM     13  C   UNL d   1      30.926 -17.276  -7.180  0.00  0.00     0.050 A 
BRANCH  13  14
ATOM     14  N   UNL d   1      30.061 -16.148  -7.116  0.00  0.00    -0.322 N 
ATOM     15  C   UNL d   1      30.111 -15.236  -6.072  0.00  0.00     0.256 C 
ATOM     16  O   UNL d   1      31.074 -15.084  -5.358  0.00  0.00    -0.267 OA
ATOM     17  H   UNL d   1      29.705 -15.791  -7.995  0.00  0.00     0.169 HD
BRANCH  15  18
ATOM     18  C   UNL d   1      28.918 -14.387  -5.816  0.00  0.00     0.034 C 
ATOM     19  C   UNL d   1      29.020 -13.042  -6.158  0.00  0.00     0.019 C 
ATOM     20  C   UNL d   1      27.951 -12.176  -5.962  0.00  0.00     0.032 C 
ATOM     21  C   UNL d   1      26.691 -12.637  -5.519  0.00  0.00     0.061 C 
ATOM     22  C   UNL d   1      26.630 -13.993  -5.056  0.00  0.00     0.130 C 
ATOM     23  C   UNL d   1      27.768 -14.831  -5.187  0.00  0.00     0.055 C 
BRANCH  21  24
ATOM     24  N   UNL d   1      25.710 -11.649  -5.595  0.00  0.00    -0.386 N 
ATOM     25  H   UNL d   1      24.900 -11.710  -4.983  0.00  0.00     0.159 HD
BRANCH  24  26
ATOM     26  C   UNL d   1      26.010 -10.365  -6.168  0.00  0.00     0.146 C 
BRANCH  26  27
ATOM     27  C   UNL d   1      25.823  -9.160  -5.291  0.00  0.00     0.186 C 
BRANCH  27  28
ATOM     28  O   UNL d   1      25.119  -9.628  -4.134  0.00  0.00    -0.394 OA
ATOM     29  C   UNL d   1      26.002  -9.784  -3.045  0.00  0.00     0.201 C 
ENDBRANCH  27  28
ENDBRANCH  26  27
ENDBRANCH  24  26
ENDBRANCH  21  24
BRANCH  22  30
ATOM     30  N   UNL d   1      25.476 -14.729  -4.434  0.00  0.00    -0.113 N 
ATOM     31  O   UNL d   1      25.531 -15.921  -4.152  0.00  0.00    -0.532 OA
ATOM     32  O   UNL d   1      24.447 -14.071  -4.210  0.00  0.00    -0.532 OA
ENDBRANCH  22  30
ENDBRANCH  15  18
ENDBRANCH  13  14
ENDBRANCH   5   8
ENDBRANCH   3   4
TORSDOF 9
ENDMDL
