MODEL 1
REMARK VINA RESULT:   -11.204      0.000      0.000
REMARK INTER + INTRA:         -15.244
REMARK INTER:                 -13.889
REMARK INTRA:                  -1.356
REMARK CONF_INDEPENDENT:        2.685
REMARK UNBOUND:                -1.356
REMARK  9 active torsions:
REMARK  status: ('A' for Active; 'I' for Inactive)
REMARK    1  A    between atoms: O_2  and  C_3 
REMARK    2  A    between atoms: C_6  and  C_7 
REMARK    3  A    between atoms: N_8  and  N_9 
REMARK       I    between atoms: N_9  and  C_10 
REMARK    4  A    between atoms: C_10  and  C_12 
REMARK    5  A    between atoms: C_12  and  S_13 
REMARK    6  A    between atoms: S_13  and  C_14 
REMARK    7  A    between atoms: C_24  and  O_25 
REMARK    8  A    between atoms: O_25  and  C_26 
REMARK    9  A    between atoms: C_26  and  C_27 
ROOT
ATOM      1  C   UNL d   1      27.627 -17.126   0.242  0.00  0.00     0.150 C 
ATOM      2  N   UNL d   1      28.204 -15.962   0.343  0.00  0.00    -0.184 NA
ENDROOT
BRANCH   2   3
ATOM      3  N   UNL d   1      29.549 -15.867   0.681  0.00  0.00    -0.247 N 
ATOM      4  C   UNL d   1      30.244 -14.708   0.287  0.00  0.00     0.247 C 
ATOM      5  O   UNL d   1      29.700 -13.773  -0.306  0.00  0.00    -0.271 OA
ATOM      6  H   UNL d   1      29.964 -16.646   1.180  0.00  0.00     0.192 HD
BRANCH   4   7
ATOM      7  C   UNL d   1      31.773 -14.611   0.639  0.00  0.00     0.182 C 
BRANCH   7   8
ATOM      8  S   UNL d   1      32.007 -15.118   2.530  0.00  0.00    -0.104 SA
BRANCH   8   9
ATOM      9  C   UNL d   1      30.626 -14.437   3.500  0.00  0.00     0.385 C 
ATOM     10  N   UNL d   1      31.009 -13.234   4.303  0.00  0.00     0.139 N 
ATOM     11  C   UNL d   1      29.985 -13.125   5.106  0.00  0.00     0.265 C 
ATOM     12  H   UNL d   1      31.905 -13.535   4.728  0.00  0.00     0.321 HD
ATOM     13  C   UNL d   1      28.540 -12.775   4.789  0.00  0.00     0.024 C 
ATOM     14  C   UNL d   1      29.844 -14.420   5.801  0.00  0.00     0.053 C 
ATOM     15  C   UNL d   1      27.730 -12.727   5.867  0.00  0.00    -0.001 C 
ATOM     16  C   UNL d   1      28.296 -13.089   7.142  0.00  0.00     0.002 C 
ATOM     17  C   UNL d   1      29.269 -14.043   7.172  0.00  0.00     0.028 C 
ATOM     18  N   UNL d   1      29.923 -15.233   4.764  0.00  0.00    -0.353 N 
ATOM     19  H   UNL d   1      29.252 -15.960   4.485  0.00  0.00     0.162 HD
ENDBRANCH   8   9
ENDBRANCH   7   8
ENDBRANCH   4   7
ENDBRANCH   2   3
BRANCH   1  20
ATOM     20  C   UNL d   1      26.188 -17.261  -0.176  0.00  0.00    -0.014 A 
ATOM     21  C   UNL d   1      25.369 -18.303   0.270  0.00  0.00     0.016 A 
ATOM     22  C   UNL d   1      24.054 -18.453  -0.240  0.00  0.00     0.040 A 
ATOM     23  C   UNL d   1      23.490 -17.533  -1.151  0.00  0.00     0.101 A 
ATOM     24  C   UNL d   1      24.325 -16.459  -1.562  0.00  0.00     0.103 A 
ATOM     25  C   UNL d   1      25.648 -16.349  -1.078  0.00  0.00     0.052 A 
BRANCH  23  26
ATOM     26  O   UNL d   1      22.116 -17.676  -1.271  0.00  0.00    -0.353 OA
ATOM     27  C   UNL d   1      21.366 -18.840  -0.882  0.00  0.00     0.210 C 
ENDBRANCH  23  26
BRANCH  24  28
ATOM     28  O   UNL d   1      24.066 -15.380  -2.391  0.00  0.00    -0.344 OA
BRANCH  28  29
ATOM     29  C   UNL d   1      25.146 -14.496  -2.375  0.00  0.00     0.214 C 
BRANCH  29  30
ATOM     30  C   UNL d   1      25.855 -14.175  -3.638  0.00  0.00    -0.034 C 
ATOM     31  C   UNL d   1      26.491 -15.194  -4.347  0.00  0.00     0.009 C 
ATOM     32  C   UNL d   1      27.327 -14.853  -5.392  0.00  0.00     0.001 C 
ATOM     33  C   UNL d   1      27.402 -13.522  -5.807  0.00  0.00     0.000 C 
ATOM     34  C   UNL d   1      26.614 -12.538  -5.211  0.00  0.00     0.001 C 
ATOM     35  C   UNL d   1      25.822 -12.869  -4.128  0.00  0.00     0.009 C 
ENDBRANCH  29  30
ENDBRANCH  28  29
ENDBRANCH  24  28
ENDBRANCH   1  20
TORSDOF 9
ENDMDL
MODEL 2
REMARK VINA RESULT:   -10.427      0.856      1.167
REMARK INTER + INTRA:         -15.132
REMARK INTER:                 -13.112
REMARK INTRA:                  -2.020
REMARK CONF_INDEPENDENT:        2.685
REMARK UNBOUND:                -2.020
REMARK  9 active torsions:
REMARK  status: ('A' for Active; 'I' for Inactive)
REMARK    1  A    between atoms: O_2  and  C_3 
REMARK    2  A    between atoms: C_6  and  C_7 
REMARK    3  A    between atoms: N_8  and  N_9 
REMARK       I    between atoms: N_9  and  C_10 
REMARK    4  A    between atoms: C_10  and  C_12 
REMARK    5  A    between atoms: C_12  and  S_13 
REMARK    6  A    between atoms: S_13  and  C_14 
REMARK    7  A    between atoms: C_24  and  O_25 
REMARK    8  A    between atoms: O_25  and  C_26 
REMARK    9  A    between atoms: C_26  and  C_27 
ROOT
ATOM      1  C   UNL d   1      27.420 -17.638   0.181  0.00  0.00     0.150 C 
ATOM      2  N   UNL d   1      28.199 -16.611  -0.012  0.00  0.00    -0.184 NA
ENDROOT
BRANCH   2   3
ATOM      3  N   UNL d   1      29.566 -16.707   0.229  0.00  0.00    -0.247 N 
ATOM      4  C   UNL d   1      30.296 -15.509   0.340  0.00  0.00     0.247 C 
ATOM      5  O   UNL d   1      29.768 -14.396   0.270  0.00  0.00    -0.271 OA
ATOM      6  H   UNL d   1      29.967 -17.635   0.295  0.00  0.00     0.192 HD
BRANCH   4   7
ATOM      7  C   UNL d   1      31.847 -15.612   0.581  0.00  0.00     0.182 C 
BRANCH   7   8
ATOM      8  S   UNL d   1      32.155 -15.939   2.500  0.00  0.00    -0.104 SA
BRANCH   8   9
ATOM      9  C   UNL d   1      31.106 -14.810   3.469  0.00  0.00     0.385 C 
ATOM     10  N   UNL d   1      30.554 -15.441   4.708  0.00  0.00     0.139 N 
ATOM     11  C   UNL d   1      29.636 -14.577   5.048  0.00  0.00     0.265 C 
ATOM     12  H   UNL d   1      30.223 -16.357   4.355  0.00  0.00     0.321 HD
ATOM     13  C   UNL d   1      29.789 -13.143   5.532  0.00  0.00     0.024 C 
ATOM     14  C   UNL d   1      28.744 -14.415   3.882  0.00  0.00     0.053 C 
ATOM     15  C   UNL d   1      28.623 -12.527   5.822  0.00  0.00    -0.001 C 
ATOM     16  C   UNL d   1      27.404 -13.250   5.559  0.00  0.00     0.002 C 
ATOM     17  C   UNL d   1      27.375 -14.111   4.503  0.00  0.00     0.028 C 
ATOM     18  N   UNL d   1      29.650 -14.241   2.938  0.00  0.00    -0.353 N 
ATOM     19  H   UNL d   1      29.719 -13.462   2.271  0.00  0.00     0.162 HD
ENDBRANCH   8   9
ENDBRANCH   7   8
ENDBRANCH   4   7
ENDBRANCH   2   3
BRANCH   1  20
ATOM     20  C   UNL d   1      25.947 -17.580  -0.125  0.00  0.00    -0.014 A 
ATOM     21  C   UNL d   1      25.030 -18.484   0.419  0.00  0.00     0.016 A 
ATOM     22  C   UNL d   1      23.671 -18.461   0.013  0.00  0.00     0.040 A 
ATOM     23  C   UNL d   1      23.170 -17.495  -0.887  0.00  0.00     0.101 A 
ATOM     24  C   UNL d   1      24.110 -16.561  -1.398  0.00  0.00     0.103 A 
ATOM     25  C   UNL d   1      25.470 -16.625  -1.018  0.00  0.00     0.052 A 
BRANCH  23  26
ATOM     26  O   UNL d   1      21.784 -17.446  -0.900  0.00  0.00    -0.353 OA
ATOM     27  C   UNL d   1      20.914 -18.592  -0.896  0.00  0.00     0.210 C 
ENDBRANCH  23  26
BRANCH  24  28
ATOM     28  O   UNL d   1      23.939 -15.478  -2.246  0.00  0.00    -0.344 OA
BRANCH  28  29
ATOM     29  C   UNL d   1      25.061 -14.649  -2.194  0.00  0.00     0.214 C 
BRANCH  29  30
ATOM     30  C   UNL d   1      25.842 -14.387  -3.427  0.00  0.00    -0.034 C 
ATOM     31  C   UNL d   1      25.905 -15.363  -4.421  0.00  0.00     0.009 C 
ATOM     32  C   UNL d   1      26.806 -15.199  -5.455  0.00  0.00     0.001 C 
ATOM     33  C   UNL d   1      27.520 -14.004  -5.563  0.00  0.00     0.000 C 
ATOM     34  C   UNL d   1      27.307 -12.957  -4.667  0.00  0.00     0.001 C 
ATOM     35  C   UNL d   1      26.449 -13.142  -3.600  0.00  0.00     0.009 C 
ENDBRANCH  29  30
ENDBRANCH  28  29
ENDBRANCH  24  28
ENDBRANCH   1  20
TORSDOF 9
ENDMDL
MODEL 3
REMARK VINA RESULT:   -10.170      2.615      5.054
REMARK INTER + INTRA:         -13.836
REMARK INTER:                 -12.854
REMARK INTRA:                  -0.982
REMARK CONF_INDEPENDENT:        2.685
REMARK UNBOUND:                -0.982
REMARK  9 active torsions:
REMARK  status: ('A' for Active; 'I' for Inactive)
REMARK    1  A    between atoms: O_2  and  C_3 
REMARK    2  A    between atoms: C_6  and  C_7 
REMARK    3  A    between atoms: N_8  and  N_9 
REMARK       I    between atoms: N_9  and  C_10 
REMARK    4  A    between atoms: C_10  and  C_12 
REMARK    5  A    between atoms: C_12  and  S_13 
REMARK    6  A    between atoms: S_13  and  C_14 
REMARK    7  A    between atoms: C_24  and  O_25 
REMARK    8  A    between atoms: O_25  and  C_26 
REMARK    9  A    between atoms: C_26  and  C_27 
ROOT
ATOM      1  C   UNL d   1      28.360 -15.708   0.341  0.00  0.00     0.150 C 
ATOM      2  N   UNL d   1      28.171 -14.701   1.145  0.00  0.00    -0.184 NA
ENDROOT
BRANCH   2   3
ATOM      3  N   UNL d   1      28.431 -14.825   2.506  0.00  0.00    -0.247 N 
ATOM      4  C   UNL d   1      27.669 -14.041   3.392  0.00  0.00     0.247 C 
ATOM      5  O   UNL d   1      26.769 -13.288   3.012  0.00  0.00    -0.271 OA
ATOM      6  H   UNL d   1      29.167 -15.463   2.787  0.00  0.00     0.192 HD
BRANCH   4   7
ATOM      7  C   UNL d   1      27.981 -14.155   4.929  0.00  0.00     0.182 C 
BRANCH   7   8
ATOM      8  S   UNL d   1      29.909 -13.848   5.195  0.00  0.00    -0.104 SA
BRANCH   8   9
ATOM      9  C   UNL d   1      30.213 -13.469   6.949  0.00  0.00     0.385 C 
ATOM     10  N   UNL d   1      31.513 -12.767   7.182  0.00  0.00     0.139 N 
ATOM     11  C   UNL d   1      31.635 -12.877   8.477  0.00  0.00     0.265 C 
ATOM     12  H   UNL d   1      32.166 -13.325   6.603  0.00  0.00     0.321 HD
ATOM     13  C   UNL d   1      30.801 -12.252   9.584  0.00  0.00     0.024 C 
ATOM     14  C   UNL d   1      31.544 -14.315   8.797  0.00  0.00     0.053 C 
ATOM     15  C   UNL d   1      31.214 -12.557  10.832  0.00  0.00    -0.001 C 
ATOM     16  C   UNL d   1      32.310 -13.484  10.962  0.00  0.00     0.002 C 
ATOM     17  C   UNL d   1      32.435 -14.476  10.035  0.00  0.00     0.028 C 
ATOM     18  N   UNL d   1      30.468 -14.626   8.099  0.00  0.00    -0.353 N 
ATOM     19  H   UNL d   1      29.611 -15.082   8.437  0.00  0.00     0.162 HD
ENDBRANCH   8   9
ENDBRANCH   7   8
ENDBRANCH   4   7
ENDBRANCH   2   3
BRANCH   1  20
ATOM     20  C   UNL d   1      28.141 -15.586  -1.143  0.00  0.00    -0.014 A 
ATOM     21  C   UNL d   1      29.197 -15.505  -2.056  0.00  0.00     0.016 A 
ATOM     22  C   UNL d   1      28.941 -15.277  -3.432  0.00  0.00     0.040 A 
ATOM     23  C   UNL d   1      27.631 -15.196  -3.952  0.00  0.00     0.101 A 
ATOM     24  C   UNL d   1      26.571 -15.320  -3.014  0.00  0.00     0.103 A 
ATOM     25  C   UNL d   1      26.843 -15.502  -1.639  0.00  0.00     0.052 A 
BRANCH  23  26
ATOM     26  O   UNL d   1      27.599 -15.292  -5.335  0.00  0.00    -0.353 OA
ATOM     27  C   UNL d   1      28.017 -14.262  -6.248  0.00  0.00     0.210 C 
ENDBRANCH  23  26
BRANCH  24  28
ATOM     28  O   UNL d   1      25.198 -15.333  -3.199  0.00  0.00    -0.344 OA
BRANCH  28  29
ATOM     29  C   UNL d   1      24.550 -15.230  -1.967  0.00  0.00     0.214 C 
BRANCH  29  30
ATOM     30  C   UNL d   1      23.957 -16.438  -1.342  0.00  0.00    -0.034 C 
ATOM     31  C   UNL d   1      22.630 -16.410  -0.917  0.00  0.00     0.009 C 
ATOM     32  C   UNL d   1      22.159 -17.453  -0.143  0.00  0.00     0.001 C 
ATOM     33  C   UNL d   1      22.967 -18.571   0.070  0.00  0.00     0.000 C 
ATOM     34  C   UNL d   1      24.227 -18.670  -0.521  0.00  0.00     0.001 C 
ATOM     35  C   UNL d   1      24.720 -17.603  -1.246  0.00  0.00     0.009 C 
ENDBRANCH  29  30
ENDBRANCH  28  29
ENDBRANCH  24  28
ENDBRANCH   1  20
TORSDOF 9
ENDMDL
MODEL 4
REMARK VINA RESULT:   -10.049      1.600      4.378
REMARK INTER + INTRA:         -13.967
REMARK INTER:                 -12.734
REMARK INTRA:                  -1.232
REMARK CONF_INDEPENDENT:        2.685
REMARK UNBOUND:                -1.232
REMARK  9 active torsions:
REMARK  status: ('A' for Active; 'I' for Inactive)
REMARK    1  A    between atoms: O_2  and  C_3 
REMARK    2  A    between atoms: C_6  and  C_7 
REMARK    3  A    between atoms: N_8  and  N_9 
REMARK       I    between atoms: N_9  and  C_10 
REMARK    4  A    between atoms: C_10  and  C_12 
REMARK    5  A    between atoms: C_12  and  S_13 
REMARK    6  A    between atoms: S_13  and  C_14 
REMARK    7  A    between atoms: C_24  and  O_25 
REMARK    8  A    between atoms: O_25  and  C_26 
REMARK    9  A    between atoms: C_26  and  C_27 
ROOT
ATOM      1  C   UNL d   1      29.212 -14.905  -0.945  0.00  0.00     0.150 C 
ATOM      2  N   UNL d   1      29.497 -16.176  -0.902  0.00  0.00    -0.184 NA
ENDROOT
BRANCH   2   3
ATOM      3  N   UNL d   1      30.277 -16.691   0.127  0.00  0.00    -0.247 N 
ATOM      4  C   UNL d   1      31.554 -16.131   0.323  0.00  0.00     0.247 C 
ATOM      5  O   UNL d   1      31.981 -15.191  -0.350  0.00  0.00    -0.271 OA
ATOM      6  H   UNL d   1      29.892 -17.454   0.671  0.00  0.00     0.192 HD
BRANCH   4   7
ATOM      7  C   UNL d   1      32.452 -16.732   1.465  0.00  0.00     0.182 C 
BRANCH   7   8
ATOM      8  S   UNL d   1      32.692 -15.355   2.855  0.00  0.00    -0.104 SA
BRANCH   8   9
ATOM      9  C   UNL d   1      31.056 -14.789   3.416  0.00  0.00     0.385 C 
ATOM     10  N   UNL d   1      31.071 -13.393   3.953  0.00  0.00     0.139 N 
ATOM     11  C   UNL d   1      29.908 -13.334   4.544  0.00  0.00     0.265 C 
ATOM     12  H   UNL d   1      31.905 -13.406   4.567  0.00  0.00     0.321 HD
ATOM     13  C   UNL d   1      28.513 -13.365   3.940  0.00  0.00     0.024 C 
ATOM     14  C   UNL d   1      29.855 -14.456   5.502  0.00  0.00     0.053 C 
ATOM     15  C   UNL d   1      27.514 -13.262   4.842  0.00  0.00    -0.001 C 
ATOM     16  C   UNL d   1      27.877 -13.226   6.236  0.00  0.00     0.002 C 
ATOM     17  C   UNL d   1      28.972 -13.930   6.640  0.00  0.00     0.028 C 
ATOM     18  N   UNL d   1      30.267 -15.433   4.715  0.00  0.00    -0.353 N 
ATOM     19  H   UNL d   1      29.794 -16.325   4.523  0.00  0.00     0.162 HD
ENDBRANCH   8   9
ENDBRANCH   7   8
ENDBRANCH   4   7
ENDBRANCH   2   3
BRANCH   1  20
ATOM     20  C   UNL d   1      28.324 -14.329  -2.015  0.00  0.00    -0.014 A 
ATOM     21  C   UNL d   1      28.625 -13.138  -2.683  0.00  0.00     0.016 A 
ATOM     22  C   UNL d   1      27.702 -12.577  -3.602  0.00  0.00     0.040 A 
ATOM     23  C   UNL d   1      26.490 -13.217  -3.939  0.00  0.00     0.101 A 
ATOM     24  C   UNL d   1      26.220 -14.445  -3.278  0.00  0.00     0.103 A 
ATOM     25  C   UNL d   1      27.129 -14.969  -2.332  0.00  0.00     0.052 A 
BRANCH  23  26
ATOM     26  O   UNL d   1      25.898 -12.677  -5.071  0.00  0.00    -0.353 OA
ATOM     27  C   UNL d   1      25.919 -11.286  -5.435  0.00  0.00     0.210 C 
ENDBRANCH  23  26
BRANCH  24  28
ATOM     28  O   UNL d   1      25.164 -15.332  -3.414  0.00  0.00    -0.344 OA
BRANCH  28  29
ATOM     29  C   UNL d   1      24.288 -15.200  -2.335  0.00  0.00     0.214 C 
BRANCH  29  30
ATOM     30  C   UNL d   1      24.117 -16.324  -1.383  0.00  0.00    -0.034 C 
ATOM     31  C   UNL d   1      25.237 -17.029  -0.943  0.00  0.00     0.009 C 
ATOM     32  C   UNL d   1      25.047 -18.201  -0.239  0.00  0.00     0.001 C 
ATOM     33  C   UNL d   1      23.757 -18.575   0.143  0.00  0.00     0.000 C 
ATOM     34  C   UNL d   1      22.661 -17.761  -0.140  0.00  0.00     0.001 C 
ATOM     35  C   UNL d   1      22.843 -16.618  -0.894  0.00  0.00     0.009 C 
ENDBRANCH  29  30
ENDBRANCH  28  29
ENDBRANCH  24  28
ENDBRANCH   1  20
TORSDOF 9
ENDMDL
MODEL 5
REMARK VINA RESULT:    -9.922      1.283      1.721
REMARK INTER + INTRA:         -14.799
REMARK INTER:                 -12.606
REMARK INTRA:                  -2.193
REMARK CONF_INDEPENDENT:        2.685
REMARK UNBOUND:                -2.193
REMARK  9 active torsions:
REMARK  status: ('A' for Active; 'I' for Inactive)
REMARK    1  A    between atoms: O_2  and  C_3 
REMARK    2  A    between atoms: C_6  and  C_7 
REMARK    3  A    between atoms: N_8  and  N_9 
REMARK       I    between atoms: N_9  and  C_10 
REMARK    4  A    between atoms: C_10  and  C_12 
REMARK    5  A    between atoms: C_12  and  S_13 
REMARK    6  A    between atoms: S_13  and  C_14 
REMARK    7  A    between atoms: C_24  and  O_25 
REMARK    8  A    between atoms: O_25  and  C_26 
REMARK    9  A    between atoms: C_26  and  C_27 
ROOT
ATOM      1  C   UNL d   1      27.445 -17.644   0.277  0.00  0.00     0.150 C 
ATOM      2  N   UNL d   1      28.278 -16.764  -0.202  0.00  0.00    -0.184 NA
ENDROOT
BRANCH   2   3
ATOM      3  N   UNL d   1      29.641 -16.872   0.049  0.00  0.00    -0.247 N 
ATOM      4  C   UNL d   1      30.416 -15.699  -0.023  0.00  0.00     0.247 C 
ATOM      5  O   UNL d   1      29.928 -14.591  -0.260  0.00  0.00    -0.271 OA
ATOM      6  H   UNL d   1      30.009 -17.794   0.254  0.00  0.00     0.192 HD
BRANCH   4   7
ATOM      7  C   UNL d   1      31.963 -15.822   0.229  0.00  0.00     0.182 C 
BRANCH   7   8
ATOM      8  S   UNL d   1      32.265 -15.974   2.170  0.00  0.00    -0.104 SA
BRANCH   8   9
ATOM      9  C   UNL d   1      31.189 -14.785   3.032  0.00  0.00     0.385 C 
ATOM     10  N   UNL d   1      30.702 -15.286   4.354  0.00  0.00     0.139 N 
ATOM     11  C   UNL d   1      29.752 -14.429   4.619  0.00  0.00     0.265 C 
ATOM     12  H   UNL d   1      30.406 -16.252   4.124  0.00  0.00     0.321 HD
ATOM     13  C   UNL d   1      29.848 -12.943   4.923  0.00  0.00     0.024 C 
ATOM     14  C   UNL d   1      28.823 -14.450   3.472  0.00  0.00     0.053 C 
ATOM     15  C   UNL d   1      28.663 -12.348   5.176  0.00  0.00    -0.001 C 
ATOM     16  C   UNL d   1      27.474 -13.152   5.042  0.00  0.00     0.002 C 
ATOM     17  C   UNL d   1      27.458 -14.135   4.097  0.00  0.00     0.028 C 
ATOM     18  N   UNL d   1      29.693 -14.350   2.484  0.00  0.00    -0.353 N 
ATOM     19  H   UNL d   1      29.705 -13.655   1.727  0.00  0.00     0.162 HD
ENDBRANCH   8   9
ENDBRANCH   7   8
ENDBRANCH   4   7
ENDBRANCH   2   3
BRANCH   1  20
ATOM     20  C   UNL d   1      25.971 -17.584  -0.024  0.00  0.00    -0.014 A 
ATOM     21  C   UNL d   1      25.052 -18.480   0.530  0.00  0.00     0.016 A 
ATOM     22  C   UNL d   1      23.693 -18.455   0.128  0.00  0.00     0.040 A 
ATOM     23  C   UNL d   1      23.192 -17.495  -0.778  0.00  0.00     0.101 A 
ATOM     24  C   UNL d   1      24.134 -16.568  -1.300  0.00  0.00     0.103 A 
ATOM     25  C   UNL d   1      25.494 -16.635  -0.923  0.00  0.00     0.052 A 
BRANCH  23  26
ATOM     26  O   UNL d   1      21.806 -17.442  -0.787  0.00  0.00    -0.353 OA
ATOM     27  C   UNL d   1      20.933 -18.574  -0.947  0.00  0.00     0.210 C 
ENDBRANCH  23  26
BRANCH  24  28
ATOM     28  O   UNL d   1      23.964 -15.492  -2.156  0.00  0.00    -0.344 OA
BRANCH  28  29
ATOM     29  C   UNL d   1      25.146 -15.248  -2.856  0.00  0.00     0.214 C 
BRANCH  29  30
ATOM     30  C   UNL d   1      25.657 -13.861  -2.979  0.00  0.00    -0.034 C 
ATOM     31  C   UNL d   1      25.255 -13.074  -4.058  0.00  0.00     0.009 C 
ATOM     32  C   UNL d   1      25.903 -11.875  -4.281  0.00  0.00     0.001 C 
ATOM     33  C   UNL d   1      26.833 -11.410  -3.350  0.00  0.00     0.000 C 
ATOM     34  C   UNL d   1      27.089 -12.119  -2.176  0.00  0.00     0.001 C 
ATOM     35  C   UNL d   1      26.484 -13.345  -1.980  0.00  0.00     0.009 C 
ENDBRANCH  29  30
ENDBRANCH  28  29
ENDBRANCH  24  28
ENDBRANCH   1  20
TORSDOF 9
ENDMDL
MODEL 6
REMARK VINA RESULT:    -9.496      2.126      5.333
REMARK INTER + INTRA:         -13.781
REMARK INTER:                 -12.181
REMARK INTRA:                  -1.600
REMARK CONF_INDEPENDENT:        2.685
REMARK UNBOUND:                -1.600
REMARK  9 active torsions:
REMARK  status: ('A' for Active; 'I' for Inactive)
REMARK    1  A    between atoms: O_2  and  C_3 
REMARK    2  A    between atoms: C_6  and  C_7 
REMARK    3  A    between atoms: N_8  and  N_9 
REMARK       I    between atoms: N_9  and  C_10 
REMARK    4  A    between atoms: C_10  and  C_12 
REMARK    5  A    between atoms: C_12  and  S_13 
REMARK    6  A    between atoms: S_13  and  C_14 
REMARK    7  A    between atoms: C_24  and  O_25 
REMARK    8  A    between atoms: O_25  and  C_26 
REMARK    9  A    between atoms: C_26  and  C_27 
ROOT
ATOM      1  C   UNL d   1      28.662 -14.730   0.157  0.00  0.00     0.150 C 
ATOM      2  N   UNL d   1      27.834 -15.107   1.091  0.00  0.00    -0.184 NA
ENDROOT
BRANCH   2   3
ATOM      3  N   UNL d   1      28.127 -14.876   2.430  0.00  0.00    -0.247 N 
ATOM      4  C   UNL d   1      27.526 -13.764   3.050  0.00  0.00     0.247 C 
ATOM      5  O   UNL d   1      26.733 -13.022   2.465  0.00  0.00    -0.271 OA
ATOM      6  H   UNL d   1      28.773 -15.511   2.886  0.00  0.00     0.192 HD
BRANCH   4   7
ATOM      7  C   UNL d   1      27.880 -13.481   4.556  0.00  0.00     0.182 C 
BRANCH   7   8
ATOM      8  S   UNL d   1      29.763 -12.909   4.653  0.00  0.00    -0.104 SA
BRANCH   8   9
ATOM      9  C   UNL d   1      30.711 -13.769   3.359  0.00  0.00     0.385 C 
ATOM     10  N   UNL d   1      31.159 -15.136   3.769  0.00  0.00     0.139 N 
ATOM     11  C   UNL d   1      32.034 -15.408   2.839  0.00  0.00     0.265 C 
ATOM     12  H   UNL d   1      31.530 -14.965   4.721  0.00  0.00     0.321 HD
ATOM     13  C   UNL d   1      31.824 -15.640   1.351  0.00  0.00     0.024 C 
ATOM     14  C   UNL d   1      33.023 -14.312   2.844  0.00  0.00     0.053 C 
ATOM     15  C   UNL d   1      32.952 -15.924   0.667  0.00  0.00    -0.001 C 
ATOM     16  C   UNL d   1      34.197 -15.886   1.392  0.00  0.00     0.002 C 
ATOM     17  C   UNL d   1      34.329 -14.989   2.410  0.00  0.00     0.028 C 
ATOM     18  N   UNL d   1      32.202 -13.278   2.846  0.00  0.00    -0.353 N 
ATOM     19  H   UNL d   1      32.184 -12.490   2.185  0.00  0.00     0.162 HD
ENDBRANCH   8   9
ENDBRANCH   7   8
ENDBRANCH   4   7
ENDBRANCH   2   3
BRANCH   1  20
ATOM     20  C   UNL d   1      28.345 -14.917  -1.302  0.00  0.00    -0.014 A 
ATOM     21  C   UNL d   1      29.332 -14.918  -2.293  0.00  0.00     0.016 A 
ATOM     22  C   UNL d   1      28.975 -14.983  -3.663  0.00  0.00     0.040 A 
ATOM     23  C   UNL d   1      27.636 -15.124  -4.087  0.00  0.00     0.101 A 
ATOM     24  C   UNL d   1      26.651 -15.161  -3.064  0.00  0.00     0.103 A 
ATOM     25  C   UNL d   1      27.020 -15.049  -1.704  0.00  0.00     0.052 A 
BRANCH  23  26
ATOM     26  O   UNL d   1      27.533 -15.488  -5.421  0.00  0.00    -0.353 OA
ATOM     27  C   UNL d   1      28.189 -14.822  -6.515  0.00  0.00     0.210 C 
ENDBRANCH  23  26
BRANCH  24  28
ATOM     28  O   UNL d   1      25.278 -15.335  -3.137  0.00  0.00    -0.344 OA
BRANCH  28  29
ATOM     29  C   UNL d   1      24.711 -15.197  -1.869  0.00  0.00     0.214 C 
BRANCH  29  30
ATOM     30  C   UNL d   1      24.189 -16.390  -1.160  0.00  0.00    -0.034 C 
ATOM     31  C   UNL d   1      25.077 -17.368  -0.714  0.00  0.00     0.009 C 
ATOM     32  C   UNL d   1      24.568 -18.568  -0.258  0.00  0.00     0.001 C 
ATOM     33  C   UNL d   1      23.188 -18.720  -0.114  0.00  0.00     0.000 C 
ATOM     34  C   UNL d   1      22.317 -17.665  -0.385  0.00  0.00     0.001 C 
ATOM     35  C   UNL d   1      22.821 -16.485  -0.896  0.00  0.00     0.009 C 
ENDBRANCH  29  30
ENDBRANCH  28  29
ENDBRANCH  24  28
ENDBRANCH   1  20
TORSDOF 9
ENDMDL
MODEL 7
REMARK VINA RESULT:    -9.386      4.806      7.560
REMARK INTER + INTRA:         -14.525
REMARK INTER:                 -12.071
REMARK INTRA:                  -2.454
REMARK CONF_INDEPENDENT:        2.685
REMARK UNBOUND:                -2.454
REMARK  9 active torsions:
REMARK  status: ('A' for Active; 'I' for Inactive)
REMARK    1  A    between atoms: O_2  and  C_3 
REMARK    2  A    between atoms: C_6  and  C_7 
REMARK    3  A    between atoms: N_8  and  N_9 
REMARK       I    between atoms: N_9  and  C_10 
REMARK    4  A    between atoms: C_10  and  C_12 
REMARK    5  A    between atoms: C_12  and  S_13 
REMARK    6  A    between atoms: S_13  and  C_14 
REMARK    7  A    between atoms: C_24  and  O_25 
REMARK    8  A    between atoms: O_25  and  C_26 
REMARK    9  A    between atoms: C_26  and  C_27 
ROOT
ATOM      1  C   UNL d   1      24.716 -14.229  -3.063  0.00  0.00     0.150 C 
ATOM      2  N   UNL d   1      25.278 -14.234  -4.238  0.00  0.00    -0.184 NA
ENDROOT
BRANCH   2   3
ATOM      3  N   UNL d   1      25.155 -13.138  -5.086  0.00  0.00    -0.247 N 
ATOM      4  C   UNL d   1      26.333 -12.464  -5.461  0.00  0.00     0.247 C 
ATOM      5  O   UNL d   1      27.454 -12.829  -5.099  0.00  0.00    -0.271 OA
ATOM      6  H   UNL d   1      24.221 -12.872  -5.375  0.00  0.00     0.192 HD
BRANCH   4   7
ATOM      7  C   UNL d   1      26.195 -11.206  -6.393  0.00  0.00     0.182 C 
BRANCH   7   8
ATOM      8  S   UNL d   1      25.862  -9.628  -5.260  0.00  0.00    -0.104 SA
BRANCH   8   9
ATOM      9  C   UNL d   1      26.321 -10.024  -3.544  0.00  0.00     0.385 C 
ATOM     10  N   UNL d   1      27.781 -10.303  -3.377  0.00  0.00     0.139 N 
ATOM     11  C   UNL d   1      27.805 -10.835  -2.184  0.00  0.00     0.265 C 
ATOM     12  H   UNL d   1      27.973 -10.936  -4.173  0.00  0.00     0.321 HD
ATOM     13  C   UNL d   1      27.506 -10.201  -0.835  0.00  0.00     0.024 C 
ATOM     14  C   UNL d   1      26.868 -11.976  -2.204  0.00  0.00     0.053 C 
ATOM     15  C   UNL d   1      27.646 -11.036   0.216  0.00  0.00    -0.001 C 
ATOM     16  C   UNL d   1      27.966 -12.412  -0.066  0.00  0.00     0.002 C 
ATOM     17  C   UNL d   1      27.477 -12.972  -1.209  0.00  0.00     0.028 C 
ATOM     18  N   UNL d   1      25.825 -11.391  -2.762  0.00  0.00    -0.353 N 
ATOM     19  H   UNL d   1      24.863 -11.346  -2.400  0.00  0.00     0.162 HD
ENDBRANCH   8   9
ENDBRANCH   7   8
ENDBRANCH   4   7
ENDBRANCH   2   3
BRANCH   1  20
ATOM     20  C   UNL d   1      24.879 -15.377  -2.103  0.00  0.00    -0.014 A 
ATOM     21  C   UNL d   1      26.120 -15.957  -1.828  0.00  0.00     0.016 A 
ATOM     22  C   UNL d   1      26.209 -17.109  -1.005  0.00  0.00     0.040 A 
ATOM     23  C   UNL d   1      25.078 -17.673  -0.374  0.00  0.00     0.101 A 
ATOM     24  C   UNL d   1      23.831 -17.045  -0.636  0.00  0.00     0.103 A 
ATOM     25  C   UNL d   1      23.754 -15.925  -1.494  0.00  0.00     0.052 A 
BRANCH  23  26
ATOM     26  O   UNL d   1      25.418 -18.576   0.622  0.00  0.00    -0.353 OA
ATOM     27  C   UNL d   1      26.656 -18.575   1.355  0.00  0.00     0.210 C 
ENDBRANCH  23  26
BRANCH  24  28
ATOM     28  O   UNL d   1      22.563 -17.315  -0.146  0.00  0.00    -0.344 OA
BRANCH  28  29
ATOM     29  C   UNL d   1      22.240 -18.654  -0.371  0.00  0.00     0.214 C 
BRANCH  29  30
ATOM     30  C   UNL d   1      20.919 -19.176   0.059  0.00  0.00    -0.034 C 
ATOM     31  C   UNL d   1      20.652 -19.332   1.418  0.00  0.00     0.009 C 
ATOM     32  C   UNL d   1      19.515 -20.020   1.795  0.00  0.00     0.001 C 
ATOM     33  C   UNL d   1      18.592 -20.411   0.823  0.00  0.00     0.000 C 
ATOM     34  C   UNL d   1      18.780 -20.080  -0.519  0.00  0.00     0.001 C 
ATOM     35  C   UNL d   1      19.944 -19.444  -0.903  0.00  0.00     0.009 C 
ENDBRANCH  29  30
ENDBRANCH  28  29
ENDBRANCH  24  28
ENDBRANCH   1  20
TORSDOF 9
ENDMDL
MODEL 8
REMARK VINA RESULT:    -9.024      5.596      9.112
REMARK INTER + INTRA:         -13.734
REMARK INTER:                 -11.709
REMARK INTRA:                  -2.025
REMARK CONF_INDEPENDENT:        2.685
REMARK UNBOUND:                -2.025
REMARK  9 active torsions:
REMARK  status: ('A' for Active; 'I' for Inactive)
REMARK    1  A    between atoms: O_2  and  C_3 
REMARK    2  A    between atoms: C_6  and  C_7 
REMARK    3  A    between atoms: N_8  and  N_9 
REMARK       I    between atoms: N_9  and  C_10 
REMARK    4  A    between atoms: C_10  and  C_12 
REMARK    5  A    between atoms: C_12  and  S_13 
REMARK    6  A    between atoms: S_13  and  C_14 
REMARK    7  A    between atoms: C_24  and  O_25 
REMARK    8  A    between atoms: O_25  and  C_26 
REMARK    9  A    between atoms: C_26  and  C_27 
ROOT
ATOM      1  C   UNL d   1      25.074 -14.014  -3.049  0.00  0.00     0.150 C 
ATOM      2  N   UNL d   1      25.226 -14.069  -4.342  0.00  0.00    -0.184 NA
ENDROOT
BRANCH   2   3
ATOM      3  N   UNL d   1      25.161 -12.912  -5.111  0.00  0.00    -0.247 N 
ATOM      4  C   UNL d   1      26.371 -12.258  -5.413  0.00  0.00     0.247 C 
ATOM      5  O   UNL d   1      27.470 -12.689  -5.056  0.00  0.00    -0.271 OA
ATOM      6  H   UNL d   1      24.244 -12.592  -5.400  0.00  0.00     0.192 HD
BRANCH   4   7
ATOM      7  C   UNL d   1      26.299 -10.932  -6.255  0.00  0.00     0.182 C 
BRANCH   7   8
ATOM      8  S   UNL d   1      27.039 -11.295  -8.046  0.00  0.00    -0.104 SA
BRANCH   8   9
ATOM      9  C   UNL d   1      28.680 -12.060  -7.864  0.00  0.00     0.385 C 
ATOM     10  N   UNL d   1      28.614 -13.526  -7.574  0.00  0.00     0.139 N 
ATOM     11  C   UNL d   1      29.842 -13.768  -7.200  0.00  0.00     0.265 C 
ATOM     12  H   UNL d   1      27.887 -13.569  -6.839  0.00  0.00     0.321 HD
ATOM     13  C   UNL d   1      31.127 -13.721  -8.011  0.00  0.00     0.024 C 
ATOM     14  C   UNL d   1      30.143 -12.844  -6.090  0.00  0.00     0.053 C 
ATOM     15  C   UNL d   1      32.236 -14.051  -7.316  0.00  0.00    -0.001 C 
ATOM     16  C   UNL d   1      32.085 -14.315  -5.907  0.00  0.00     0.002 C 
ATOM     17  C   UNL d   1      31.133 -13.624  -5.217  0.00  0.00     0.028 C 
ATOM     18  N   UNL d   1      29.712 -11.716  -6.622  0.00  0.00    -0.353 N 
ATOM     19  H   UNL d   1      30.233 -10.837  -6.738  0.00  0.00     0.162 HD
ENDBRANCH   8   9
ENDBRANCH   7   8
ENDBRANCH   4   7
ENDBRANCH   2   3
BRANCH   1  20
ATOM     20  C   UNL d   1      25.195 -15.241  -2.186  0.00  0.00    -0.014 A 
ATOM     21  C   UNL d   1      26.412 -15.893  -1.970  0.00  0.00     0.016 A 
ATOM     22  C   UNL d   1      26.457 -17.110  -1.243  0.00  0.00     0.040 A 
ATOM     23  C   UNL d   1      25.308 -17.675  -0.648  0.00  0.00     0.101 A 
ATOM     24  C   UNL d   1      24.087 -16.976  -0.846  0.00  0.00     0.103 A 
ATOM     25  C   UNL d   1      24.052 -15.789  -1.611  0.00  0.00     0.052 A 
BRANCH  23  26
ATOM     26  O   UNL d   1      25.616 -18.668   0.270  0.00  0.00    -0.353 OA
ATOM     27  C   UNL d   1      26.932 -18.949   0.778  0.00  0.00     0.210 C 
ENDBRANCH  23  26
BRANCH  24  28
ATOM     28  O   UNL d   1      22.812 -17.231  -0.366  0.00  0.00    -0.344 OA
BRANCH  28  29
ATOM     29  C   UNL d   1      22.490 -18.576  -0.558  0.00  0.00     0.214 C 
BRANCH  29  30
ATOM     30  C   UNL d   1      21.197 -19.103  -0.059  0.00  0.00    -0.034 C 
ATOM     31  C   UNL d   1      20.981 -19.204   1.315  0.00  0.00     0.009 C 
ATOM     32  C   UNL d   1      19.873 -19.896   1.763  0.00  0.00     0.001 C 
ATOM     33  C   UNL d   1      18.924 -20.346   0.843  0.00  0.00     0.000 C 
ATOM     34  C   UNL d   1      19.057 -20.072  -0.518  0.00  0.00     0.001 C 
ATOM     35  C   UNL d   1      20.194 -19.432  -0.972  0.00  0.00     0.009 C 
ENDBRANCH  29  30
ENDBRANCH  28  29
ENDBRANCH  24  28
ENDBRANCH   1  20
TORSDOF 9
ENDMDL
