MODEL 1
REMARK VINA RESULT:   -11.257      0.000      0.000
REMARK INTER + INTRA:         -14.839
REMARK INTER:                 -13.643
REMARK INTRA:                  -1.196
REMARK CONF_INDEPENDENT:        2.386
REMARK UNBOUND:                -1.196
REMARK  8 active torsions:
REMARK  status: ('A' for Active; 'I' for Inactive)
REMARK    1  A    between atoms: C_2  and  C_4 
REMARK       I    between atoms: C_4  and  N_6 
REMARK    2  A    between atoms: N_6  and  C_7 
REMARK    3  A    between atoms: C_10  and  N_11 
REMARK    4  A    between atoms: N_11  and  C_12 
REMARK    5  A    between atoms: C_12  and  C_13 
REMARK       I    between atoms: C_13  and  N_15 
REMARK    6  A    between atoms: N_15  and  C_16 
REMARK    7  A    between atoms: C_20  and  N_21 
REMARK       I    between atoms: N_21  and  C_22 
REMARK    8  A    between atoms: C_22  and  C_24 
ROOT
ATOM      1  C   UNL d   1      27.180 -15.266   0.757  0.00  0.00     0.239 C 
ATOM      2  O   UNL d   1      26.657 -14.335   0.137  0.00  0.00    -0.271 OA
ATOM      3  N   UNL d   1      26.740 -16.595   0.708  0.00  0.00    -0.326 N 
ATOM      4  H   UNL d   1      27.119 -17.286   1.342  0.00  0.00     0.169 HD
ENDROOT
BRANCH   1   5
ATOM      5  C   UNL d   1      28.358 -14.979   1.698  0.00  0.00     0.223 C 
BRANCH   5   6
ATOM      6  N   UNL d   1      28.026 -13.855   2.595  0.00  0.00    -0.381 N 
ATOM      7  H   UNL d   1      27.979 -12.951   2.121  0.00  0.00     0.160 HD
BRANCH   6   8
ATOM      8  C   UNL d   1      28.308 -13.872   3.950  0.00  0.00     0.028 A 
ATOM      9  C   UNL d   1      27.585 -13.080   4.858  0.00  0.00     0.031 A 
ATOM     10  C   UNL d   1      27.833 -13.132   6.249  0.00  0.00     0.032 A 
ATOM     11  C   UNL d   1      28.778 -14.026   6.755  0.00  0.00     0.034 A 
ATOM     12  C   UNL d   1      29.481 -14.825   5.857  0.00  0.00     0.032 A 
ATOM     13  C   UNL d   1      29.236 -14.759   4.487  0.00  0.00     0.031 A 
BRANCH  11  14
ATOM     14  N   UNL d   1      28.967 -14.200   8.149  0.00  0.00    -0.327 N 
ATOM     15  C   UNL d   1      28.701 -13.196   9.072  0.00  0.00     0.225 C 
ATOM     16  O   UNL d   1      28.155 -12.131   8.781  0.00  0.00    -0.273 OA
ATOM     17  H   UNL d   1      29.277 -15.111   8.461  0.00  0.00     0.169 HD
BRANCH  15  18
ATOM     18  C   UNL d   1      29.120 -13.471  10.519  0.00  0.00     0.070 C 
ATOM     19  C   UNL d   1      27.892 -13.314  11.431  0.00  0.00     0.019 C 
ATOM     20  C   UNL d   1      29.687 -14.874  10.691  0.00  0.00     0.019 C 
ENDBRANCH  15  18
ENDBRANCH  11  14
ENDBRANCH   6   8
ENDBRANCH   5   6
ENDBRANCH   1   5
BRANCH   3  21
ATOM     21  C   UNL d   1      25.787 -17.043  -0.242  0.00  0.00     0.036 A 
ATOM     22  C   UNL d   1      25.828 -16.696  -1.588  0.00  0.00     0.029 A 
ATOM     23  C   UNL d   1      24.781 -17.099  -2.439  0.00  0.00     0.004 A 
ATOM     24  C   UNL d   1      23.698 -17.853  -1.948  0.00  0.00     0.029 A 
ATOM     25  C   UNL d   1      23.645 -18.180  -0.594  0.00  0.00     0.037 A 
ATOM     26  C   UNL d   1      24.706 -17.786   0.213  0.00  0.00     0.059 A 
BRANCH  25  27
ATOM     27  N   UNL d   1      22.531 -18.853  -0.031  0.00  0.00    -0.323 N 
ATOM     28  C   UNL d   1      21.204 -18.615  -0.380  0.00  0.00     0.256 C 
ATOM     29  O   UNL d   1      20.764 -17.823  -1.222  0.00  0.00    -0.267 OA
ATOM     30  H   UNL d   1      22.728 -19.612   0.609  0.00  0.00     0.169 HD
BRANCH  28  31
ATOM     31  C   UNL d   1      20.168 -19.387   0.313  0.00  0.00     0.032 A 
ATOM     32  C   UNL d   1      20.275 -19.574   1.700  0.00  0.00     0.017 A 
ATOM     33  C   UNL d   1      19.407 -20.450   2.347  0.00  0.00     0.001 A 
ATOM     34  C   UNL d   1      18.406 -21.088   1.616  0.00  0.00     0.000 A 
ATOM     35  C   UNL d   1      18.311 -20.905   0.234  0.00  0.00     0.001 A 
ATOM     36  C   UNL d   1      19.203 -20.066  -0.427  0.00  0.00     0.017 A 
ENDBRANCH  28  31
ENDBRANCH  25  27
ENDBRANCH   3  21
TORSDOF 8
ENDMDL
MODEL 2
REMARK VINA RESULT:   -11.248      1.129     11.076
REMARK INTER + INTRA:         -14.919
REMARK INTER:                 -13.634
REMARK INTRA:                  -1.284
REMARK CONF_INDEPENDENT:        2.386
REMARK UNBOUND:                -1.284
REMARK  8 active torsions:
REMARK  status: ('A' for Active; 'I' for Inactive)
REMARK    1  A    between atoms: C_2  and  C_4 
REMARK       I    between atoms: C_4  and  N_6 
REMARK    2  A    between atoms: N_6  and  C_7 
REMARK    3  A    between atoms: C_10  and  N_11 
REMARK    4  A    between atoms: N_11  and  C_12 
REMARK    5  A    between atoms: C_12  and  C_13 
REMARK       I    between atoms: C_13  and  N_15 
REMARK    6  A    between atoms: N_15  and  C_16 
REMARK    7  A    between atoms: C_20  and  N_21 
REMARK       I    between atoms: N_21  and  C_22 
REMARK    8  A    between atoms: C_22  and  C_24 
ROOT
ATOM      1  C   UNL d   1      27.362 -14.426   0.987  0.00  0.00     0.239 C 
ATOM      2  O   UNL d   1      26.865 -13.342   0.668  0.00  0.00    -0.271 OA
ATOM      3  N   UNL d   1      28.012 -14.671   2.204  0.00  0.00    -0.326 N 
ATOM      4  H   UNL d   1      28.518 -15.534   2.351  0.00  0.00     0.169 HD
ENDROOT
BRANCH   1   5
ATOM      5  C   UNL d   1      27.336 -15.592  -0.011  0.00  0.00     0.223 C 
BRANCH   5   6
ATOM      6  N   UNL d   1      26.081 -15.564  -0.788  0.00  0.00    -0.381 N 
ATOM      7  H   UNL d   1      25.783 -14.623  -1.054  0.00  0.00     0.160 HD
BRANCH   6   8
ATOM      8  C   UNL d   1      25.119 -16.554  -0.688  0.00  0.00     0.028 A 
ATOM      9  C   UNL d   1      25.454 -17.862  -0.301  0.00  0.00     0.031 A 
ATOM     10  C   UNL d   1      24.470 -18.865  -0.146  0.00  0.00     0.032 A 
ATOM     11  C   UNL d   1      23.121 -18.551  -0.326  0.00  0.00     0.034 A 
ATOM     12  C   UNL d   1      22.788 -17.250  -0.690  0.00  0.00     0.032 A 
ATOM     13  C   UNL d   1      23.766 -16.271  -0.850  0.00  0.00     0.031 A 
BRANCH  11  14
ATOM     14  N   UNL d   1      22.095 -19.492  -0.057  0.00  0.00    -0.327 N 
ATOM     15  C   UNL d   1      20.753 -19.230  -0.309  0.00  0.00     0.225 C 
ATOM     16  O   UNL d   1      20.356 -18.228  -0.906  0.00  0.00    -0.273 OA
ATOM     17  H   UNL d   1      22.380 -20.394   0.300  0.00  0.00     0.169 HD
BRANCH  15  18
ATOM     18  C   UNL d   1      19.749 -20.270   0.195  0.00  0.00     0.070 C 
ATOM     19  C   UNL d   1      19.532 -20.061   1.703  0.00  0.00     0.019 C 
ATOM     20  C   UNL d   1      18.407 -20.157  -0.517  0.00  0.00     0.019 C 
ENDBRANCH  15  18
ENDBRANCH  11  14
ENDBRANCH   6   8
ENDBRANCH   5   6
ENDBRANCH   1   5
BRANCH   3  21
ATOM     21  C   UNL d   1      27.961 -13.756   3.287  0.00  0.00     0.036 A 
ATOM     22  C   UNL d   1      27.802 -12.385   3.122  0.00  0.00     0.029 A 
ATOM     23  C   UNL d   1      27.869 -11.541   4.247  0.00  0.00     0.004 A 
ATOM     24  C   UNL d   1      28.090 -12.065   5.534  0.00  0.00     0.029 A 
ATOM     25  C   UNL d   1      28.275 -13.438   5.696  0.00  0.00     0.037 A 
ATOM     26  C   UNL d   1      28.179 -14.244   4.568  0.00  0.00     0.059 A 
BRANCH  25  27
ATOM     27  N   UNL d   1      28.596 -14.005   6.955  0.00  0.00    -0.323 N 
ATOM     28  C   UNL d   1      28.531 -13.325   8.169  0.00  0.00     0.256 C 
ATOM     29  O   UNL d   1      28.178 -12.158   8.374  0.00  0.00    -0.267 OA
ATOM     30  H   UNL d   1      28.811 -14.995   6.972  0.00  0.00     0.169 HD
BRANCH  28  31
ATOM     31  C   UNL d   1      28.916 -14.055   9.380  0.00  0.00     0.032 A 
ATOM     32  C   UNL d   1      28.136 -13.908  10.538  0.00  0.00     0.017 A 
ATOM     33  C   UNL d   1      28.582 -14.445  11.743  0.00  0.00     0.001 A 
ATOM     34  C   UNL d   1      29.773 -15.169  11.772  0.00  0.00     0.000 A 
ATOM     35  C   UNL d   1      30.550 -15.303  10.619  0.00  0.00     0.001 A 
ATOM     36  C   UNL d   1      30.133 -14.732   9.421  0.00  0.00     0.017 A 
ENDBRANCH  28  31
ENDBRANCH  25  27
ENDBRANCH   3  21
TORSDOF 8
ENDMDL
MODEL 3
REMARK VINA RESULT:   -10.427      6.361     11.240
REMARK INTER + INTRA:         -14.103
REMARK INTER:                 -12.813
REMARK INTRA:                  -1.290
REMARK CONF_INDEPENDENT:        2.386
REMARK UNBOUND:                -1.290
REMARK  8 active torsions:
REMARK  status: ('A' for Active; 'I' for Inactive)
REMARK    1  A    between atoms: C_2  and  C_4 
REMARK       I    between atoms: C_4  and  N_6 
REMARK    2  A    between atoms: N_6  and  C_7 
REMARK    3  A    between atoms: C_10  and  N_11 
REMARK    4  A    between atoms: N_11  and  C_12 
REMARK    5  A    between atoms: C_12  and  C_13 
REMARK       I    between atoms: C_13  and  N_15 
REMARK    6  A    between atoms: N_15  and  C_16 
REMARK    7  A    between atoms: C_20  and  N_21 
REMARK       I    between atoms: N_21  and  C_22 
REMARK    8  A    between atoms: C_22  and  C_24 
ROOT
ATOM      1  C   UNL d   1      25.598 -14.189  -3.915  0.00  0.00     0.239 C 
ATOM      2  O   UNL d   1      24.489 -14.222  -4.458  0.00  0.00    -0.271 OA
ATOM      3  N   UNL d   1      26.473 -13.096  -3.970  0.00  0.00    -0.326 N 
ATOM      4  H   UNL d   1      27.420 -13.179  -3.626  0.00  0.00     0.169 HD
ENDROOT
BRANCH   1   5
ATOM      5  C   UNL d   1      26.110 -15.428  -3.168  0.00  0.00     0.223 C 
BRANCH   5   6
ATOM      6  N   UNL d   1      25.593 -15.435  -1.786  0.00  0.00    -0.381 N 
ATOM      7  H   UNL d   1      26.229 -15.012  -1.107  0.00  0.00     0.160 HD
BRANCH   6   8
ATOM      8  C   UNL d   1      24.680 -16.372  -1.335  0.00  0.00     0.028 A 
ATOM      9  C   UNL d   1      25.099 -17.608  -0.812  0.00  0.00     0.031 A 
ATOM     10  C   UNL d   1      24.175 -18.548  -0.302  0.00  0.00     0.032 A 
ATOM     11  C   UNL d   1      22.815 -18.236  -0.258  0.00  0.00     0.034 A 
ATOM     12  C   UNL d   1      22.403 -17.005  -0.758  0.00  0.00     0.032 A 
ATOM     13  C   UNL d   1      23.319 -16.088  -1.268  0.00  0.00     0.031 A 
BRANCH  11  14
ATOM     14  N   UNL d   1      21.873 -19.096   0.360  0.00  0.00    -0.327 N 
ATOM     15  C   UNL d   1      20.801 -19.652  -0.329  0.00  0.00     0.225 C 
ATOM     16  O   UNL d   1      20.656 -19.561  -1.549  0.00  0.00    -0.273 OA
ATOM     17  H   UNL d   1      22.027 -19.325   1.333  0.00  0.00     0.169 HD
BRANCH  15  18
ATOM     18  C   UNL d   1      19.772 -20.415   0.510  0.00  0.00     0.070 C 
ATOM     19  C   UNL d   1      19.640 -19.729   1.879  0.00  0.00     0.019 C 
ATOM     20  C   UNL d   1      18.405 -20.450  -0.160  0.00  0.00     0.019 C 
ENDBRANCH  15  18
ENDBRANCH  11  14
ENDBRANCH   6   8
ENDBRANCH   5   6
ENDBRANCH   1   5
BRANCH   3  21
ATOM     21  C   UNL d   1      26.073 -11.829  -4.467  0.00  0.00     0.036 A 
ATOM     22  C   UNL d   1      26.109 -11.491  -5.815  0.00  0.00     0.029 A 
ATOM     23  C   UNL d   1      25.794 -10.175  -6.206  0.00  0.00     0.004 A 
ATOM     24  C   UNL d   1      25.437  -9.202  -5.254  0.00  0.00     0.029 A 
ATOM     25  C   UNL d   1      25.426  -9.535  -3.900  0.00  0.00     0.037 A 
ATOM     26  C   UNL d   1      25.719 -10.848  -3.551  0.00  0.00     0.059 A 
BRANCH  25  27
ATOM     27  N   UNL d   1      25.169  -8.568  -2.895  0.00  0.00    -0.323 N 
ATOM     28  C   UNL d   1      25.945  -8.388  -1.754  0.00  0.00     0.256 C 
ATOM     29  O   UNL d   1      26.971  -8.994  -1.423  0.00  0.00    -0.267 OA
ATOM     30  H   UNL d   1      24.413  -7.916  -3.068  0.00  0.00     0.169 HD
BRANCH  28  31
ATOM     31  C   UNL d   1      25.529  -7.353  -0.803  0.00  0.00     0.032 A 
ATOM     32  C   UNL d   1      24.972  -6.162  -1.296  0.00  0.00     0.017 A 
ATOM     33  C   UNL d   1      24.738  -5.099  -0.428  0.00  0.00     0.001 A 
ATOM     34  C   UNL d   1      25.009  -5.250   0.931  0.00  0.00     0.000 A 
ATOM     35  C   UNL d   1      25.572  -6.434   1.414  0.00  0.00     0.001 A 
ATOM     36  C   UNL d   1      25.850  -7.485   0.546  0.00  0.00     0.017 A 
ENDBRANCH  28  31
ENDBRANCH  25  27
ENDBRANCH   3  21
TORSDOF 8
ENDMDL
MODEL 4
REMARK VINA RESULT:   -10.373      6.082      9.149
REMARK INTER + INTRA:         -14.307
REMARK INTER:                 -12.760
REMARK INTRA:                  -1.547
REMARK CONF_INDEPENDENT:        2.386
REMARK UNBOUND:                -1.547
REMARK  8 active torsions:
REMARK  status: ('A' for Active; 'I' for Inactive)
REMARK    1  A    between atoms: C_2  and  C_4 
REMARK       I    between atoms: C_4  and  N_6 
REMARK    2  A    between atoms: N_6  and  C_7 
REMARK    3  A    between atoms: C_10  and  N_11 
REMARK    4  A    between atoms: N_11  and  C_12 
REMARK    5  A    between atoms: C_12  and  C_13 
REMARK       I    between atoms: C_13  and  N_15 
REMARK    6  A    between atoms: N_15  and  C_16 
REMARK    7  A    between atoms: C_20  and  N_21 
REMARK       I    between atoms: N_21  and  C_22 
REMARK    8  A    between atoms: C_22  and  C_24 
ROOT
ATOM      1  C   UNL d   1      25.363 -14.687  -3.064  0.00  0.00     0.239 C 
ATOM      2  O   UNL d   1      25.180 -15.663  -3.798  0.00  0.00    -0.271 OA
ATOM      3  N   UNL d   1      25.496 -14.759  -1.671  0.00  0.00    -0.326 N 
ATOM      4  H   UNL d   1      25.505 -13.917  -1.111  0.00  0.00     0.169 HD
ENDROOT
BRANCH   1   5
ATOM      5  C   UNL d   1      25.397 -13.279  -3.673  0.00  0.00     0.223 C 
BRANCH   5   6
ATOM      6  N   UNL d   1      26.791 -12.884  -3.956  0.00  0.00    -0.381 N 
ATOM      7  H   UNL d   1      26.920 -11.875  -4.053  0.00  0.00     0.160 HD
BRANCH   6   8
ATOM      8  C   UNL d   1      27.694 -13.725  -4.583  0.00  0.00     0.028 A 
ATOM      9  C   UNL d   1      28.608 -14.497  -3.846  0.00  0.00     0.031 A 
ATOM     10  C   UNL d   1      29.497 -15.397  -4.477  0.00  0.00     0.032 A 
ATOM     11  C   UNL d   1      29.440 -15.577  -5.860  0.00  0.00     0.034 A 
ATOM     12  C   UNL d   1      28.522 -14.828  -6.587  0.00  0.00     0.032 A 
ATOM     13  C   UNL d   1      27.656 -13.935  -5.958  0.00  0.00     0.031 A 
BRANCH  11  14
ATOM     14  N   UNL d   1      30.224 -16.560  -6.515  0.00  0.00    -0.327 N 
ATOM     15  C   UNL d   1      30.472 -17.811  -5.964  0.00  0.00     0.225 C 
ATOM     16  O   UNL d   1      29.928 -18.222  -4.937  0.00  0.00    -0.273 OA
ATOM     17  H   UNL d   1      30.578 -16.329  -7.434  0.00  0.00     0.169 HD
BRANCH  15  18
ATOM     18  C   UNL d   1      31.477 -18.697  -6.705  0.00  0.00     0.070 C 
ATOM     19  C   UNL d   1      31.099 -20.171  -6.483  0.00  0.00     0.019 C 
ATOM     20  C   UNL d   1      31.494 -18.411  -8.200  0.00  0.00     0.019 C 
ENDBRANCH  15  18
ENDBRANCH  11  14
ENDBRANCH   6   8
ENDBRANCH   5   6
ENDBRANCH   1   5
BRANCH   3  21
ATOM     21  C   UNL d   1      25.662 -15.991  -0.989  0.00  0.00     0.036 A 
ATOM     22  C   UNL d   1      26.903 -16.571  -0.749  0.00  0.00     0.029 A 
ATOM     23  C   UNL d   1      26.968 -17.848  -0.159  0.00  0.00     0.004 A 
ATOM     24  C   UNL d   1      25.797 -18.541   0.198  0.00  0.00     0.029 A 
ATOM     25  C   UNL d   1      24.552 -17.971  -0.065  0.00  0.00     0.037 A 
ATOM     26  C   UNL d   1      24.525 -16.700  -0.628  0.00  0.00     0.059 A 
BRANCH  25  27
ATOM     27  N   UNL d   1      23.343 -18.668   0.186  0.00  0.00    -0.323 N 
ATOM     28  C   UNL d   1      22.083 -18.237  -0.220  0.00  0.00     0.256 C 
ATOM     29  O   UNL d   1      21.792 -17.222  -0.865  0.00  0.00    -0.267 OA
ATOM     30  H   UNL d   1      23.420 -19.579   0.621  0.00  0.00     0.169 HD
BRANCH  28  31
ATOM     31  C   UNL d   1      20.930 -19.069   0.137  0.00  0.00     0.032 A 
ATOM     32  C   UNL d   1      20.024 -19.443  -0.868  0.00  0.00     0.017 A 
ATOM     33  C   UNL d   1      18.834 -20.077  -0.524  0.00  0.00     0.001 A 
ATOM     34  C   UNL d   1      18.580 -20.381   0.813  0.00  0.00     0.000 A 
ATOM     35  C   UNL d   1      19.481 -19.998   1.810  0.00  0.00     0.001 A 
ATOM     36  C   UNL d   1      20.652 -19.324   1.478  0.00  0.00     0.017 A 
ENDBRANCH  28  31
ENDBRANCH  25  27
ENDBRANCH   3  21
TORSDOF 8
ENDMDL
MODEL 5
REMARK VINA RESULT:   -10.344      6.833     11.306
REMARK INTER + INTRA:         -13.987
REMARK INTER:                 -12.731
REMARK INTRA:                  -1.256
REMARK CONF_INDEPENDENT:        2.386
REMARK UNBOUND:                -1.256
REMARK  8 active torsions:
REMARK  status: ('A' for Active; 'I' for Inactive)
REMARK    1  A    between atoms: C_2  and  C_4 
REMARK       I    between atoms: C_4  and  N_6 
REMARK    2  A    between atoms: N_6  and  C_7 
REMARK    3  A    between atoms: C_10  and  N_11 
REMARK    4  A    between atoms: N_11  and  C_12 
REMARK    5  A    between atoms: C_12  and  C_13 
REMARK       I    between atoms: C_13  and  N_15 
REMARK    6  A    between atoms: N_15  and  C_16 
REMARK    7  A    between atoms: C_20  and  N_21 
REMARK       I    between atoms: N_21  and  C_22 
REMARK    8  A    between atoms: C_22  and  C_24 
ROOT
ATOM      1  C   UNL d   1      25.958 -14.915  -3.834  0.00  0.00     0.239 C 
ATOM      2  O   UNL d   1      25.445 -15.188  -4.923  0.00  0.00    -0.271 OA
ATOM      3  N   UNL d   1      27.338 -14.822  -3.611  0.00  0.00    -0.326 N 
ATOM      4  H   UNL d   1      27.702 -14.733  -2.671  0.00  0.00     0.169 HD
ENDROOT
BRANCH   1   5
ATOM      5  C   UNL d   1      25.060 -14.713  -2.605  0.00  0.00     0.223 C 
BRANCH   5   6
ATOM      6  N   UNL d   1      25.361 -15.736  -1.585  0.00  0.00    -0.381 N 
ATOM      7  H   UNL d   1      26.351 -15.983  -1.530  0.00  0.00     0.160 HD
BRANCH   6   8
ATOM      8  C   UNL d   1      24.427 -16.667  -1.163  0.00  0.00     0.028 A 
ATOM      9  C   UNL d   1      24.811 -17.958  -0.764  0.00  0.00     0.031 A 
ATOM     10  C   UNL d   1      23.870 -18.896  -0.283  0.00  0.00     0.032 A 
ATOM     11  C   UNL d   1      22.530 -18.529  -0.142  0.00  0.00     0.034 A 
ATOM     12  C   UNL d   1      22.153 -17.244  -0.519  0.00  0.00     0.032 A 
ATOM     13  C   UNL d   1      23.087 -16.329  -1.002  0.00  0.00     0.031 A 
BRANCH  11  14
ATOM     14  N   UNL d   1      21.579 -19.395   0.453  0.00  0.00    -0.327 N 
ATOM     15  C   UNL d   1      20.459 -19.859  -0.226  0.00  0.00     0.225 C 
ATOM     16  O   UNL d   1      20.268 -19.675  -1.429  0.00  0.00    -0.273 OA
ATOM     17  H   UNL d   1      21.763 -19.699   1.401  0.00  0.00     0.169 HD
BRANCH  15  18
ATOM     18  C   UNL d   1      19.434 -20.641   0.601  0.00  0.00     0.070 C 
ATOM     19  C   UNL d   1      19.172 -19.884   1.913  0.00  0.00     0.019 C 
ATOM     20  C   UNL d   1      18.116 -20.814  -0.142  0.00  0.00     0.019 C 
ENDBRANCH  15  18
ENDBRANCH  11  14
ENDBRANCH   6   8
ENDBRANCH   5   6
ENDBRANCH   1   5
BRANCH   3  21
ATOM     21  C   UNL d   1      28.278 -14.809  -4.673  0.00  0.00     0.036 A 
ATOM     22  C   UNL d   1      28.528 -13.688  -5.457  0.00  0.00     0.029 A 
ATOM     23  C   UNL d   1      29.400 -13.795  -6.558  0.00  0.00     0.004 A 
ATOM     24  C   UNL d   1      30.025 -15.016  -6.871  0.00  0.00     0.029 A 
ATOM     25  C   UNL d   1      29.754 -16.146  -6.100  0.00  0.00     0.037 A 
ATOM     26  C   UNL d   1      28.907 -16.000  -5.008  0.00  0.00     0.059 A 
BRANCH  25  27
ATOM     27  N   UNL d   1      30.281 -17.420  -6.431  0.00  0.00    -0.323 N 
ATOM     28  C   UNL d   1      31.151 -17.665  -7.490  0.00  0.00     0.256 C 
ATOM     29  O   UNL d   1      31.626 -16.854  -8.294  0.00  0.00    -0.267 OA
ATOM     30  H   UNL d   1      30.066 -18.184  -5.802  0.00  0.00     0.169 HD
BRANCH  28  31
ATOM     31  C   UNL d   1      31.588 -19.047  -7.707  0.00  0.00     0.032 A 
ATOM     32  C   UNL d   1      31.859 -19.477  -9.016  0.00  0.00     0.017 A 
ATOM     33  C   UNL d   1      32.099 -20.825  -9.264  0.00  0.00     0.001 A 
ATOM     34  C   UNL d   1      32.121 -21.726  -8.199  0.00  0.00     0.000 A 
ATOM     35  C   UNL d   1      31.842 -21.294  -6.900  0.00  0.00     0.001 A 
ATOM     36  C   UNL d   1      31.557 -19.955  -6.651  0.00  0.00     0.017 A 
ENDBRANCH  28  31
ENDBRANCH  25  27
ENDBRANCH   3  21
TORSDOF 8
ENDMDL
MODEL 6
REMARK VINA RESULT:   -10.275      6.269      9.556
REMARK INTER + INTRA:         -13.909
REMARK INTER:                 -12.661
REMARK INTRA:                  -1.248
REMARK CONF_INDEPENDENT:        2.386
REMARK UNBOUND:                -1.248
REMARK  8 active torsions:
REMARK  status: ('A' for Active; 'I' for Inactive)
REMARK    1  A    between atoms: C_2  and  C_4 
REMARK       I    between atoms: C_4  and  N_6 
REMARK    2  A    between atoms: N_6  and  C_7 
REMARK    3  A    between atoms: C_10  and  N_11 
REMARK    4  A    between atoms: N_11  and  C_12 
REMARK    5  A    between atoms: C_12  and  C_13 
REMARK       I    between atoms: C_13  and  N_15 
REMARK    6  A    between atoms: N_15  and  C_16 
REMARK    7  A    between atoms: C_20  and  N_21 
REMARK       I    between atoms: N_21  and  C_22 
REMARK    8  A    between atoms: C_22  and  C_24 
ROOT
ATOM      1  C   UNL d   1      25.266 -14.189  -2.923  0.00  0.00     0.239 C 
ATOM      2  O   UNL d   1      24.782 -15.031  -3.685  0.00  0.00    -0.271 OA
ATOM      3  N   UNL d   1      25.584 -14.428  -1.580  0.00  0.00    -0.326 N 
ATOM      4  H   UNL d   1      25.847 -13.665  -0.970  0.00  0.00     0.169 HD
ENDROOT
BRANCH   1   5
ATOM      5  C   UNL d   1      25.499 -12.758  -3.427  0.00  0.00     0.223 C 
BRANCH   5   6
ATOM      6  N   UNL d   1      25.797 -12.773  -4.873  0.00  0.00    -0.381 N 
ATOM      7  H   UNL d   1      24.963 -12.775  -5.464  0.00  0.00     0.160 HD
BRANCH   6   8
ATOM      8  C   UNL d   1      26.968 -13.301  -5.388  0.00  0.00     0.028 A 
ATOM      9  C   UNL d   1      27.303 -14.653  -5.206  0.00  0.00     0.031 A 
ATOM     10  C   UNL d   1      28.471 -15.211  -5.774  0.00  0.00     0.032 A 
ATOM     11  C   UNL d   1      29.296 -14.426  -6.583  0.00  0.00     0.034 A 
ATOM     12  C   UNL d   1      28.954 -13.092  -6.778  0.00  0.00     0.032 A 
ATOM     13  C   UNL d   1      27.805 -12.549  -6.207  0.00  0.00     0.031 A 
BRANCH  11  14
ATOM     14  N   UNL d   1      30.405 -14.977  -7.272  0.00  0.00    -0.327 N 
ATOM     15  C   UNL d   1      30.918 -16.236  -6.981  0.00  0.00     0.225 C 
ATOM     16  O   UNL d   1      30.379 -17.029  -6.208  0.00  0.00    -0.273 OA
ATOM     17  H   UNL d   1      30.800 -14.427  -8.023  0.00  0.00     0.169 HD
BRANCH  15  18
ATOM     18  C   UNL d   1      32.222 -16.621  -7.685  0.00  0.00     0.070 C 
ATOM     19  C   UNL d   1      32.034 -17.984  -8.371  0.00  0.00     0.019 C 
ATOM     20  C   UNL d   1      32.629 -15.592  -8.732  0.00  0.00     0.019 C 
ENDBRANCH  15  18
ENDBRANCH  11  14
ENDBRANCH   6   8
ENDBRANCH   5   6
ENDBRANCH   1   5
BRANCH   3  21
ATOM     21  C   UNL d   1      25.593 -15.732  -1.024  0.00  0.00     0.036 A 
ATOM     22  C   UNL d   1      26.723 -16.542  -0.990  0.00  0.00     0.029 A 
ATOM     23  C   UNL d   1      26.614 -17.863  -0.516  0.00  0.00     0.004 A 
ATOM     24  C   UNL d   1      25.381 -18.373  -0.069  0.00  0.00     0.029 A 
ATOM     25  C   UNL d   1      24.242 -17.570  -0.127  0.00  0.00     0.037 A 
ATOM     26  C   UNL d   1      24.390 -16.264  -0.579  0.00  0.00     0.059 A 
BRANCH  25  27
ATOM     27  N   UNL d   1      22.960 -18.066   0.219  0.00  0.00    -0.323 N 
ATOM     28  C   UNL d   1      22.143 -18.807  -0.632  0.00  0.00     0.256 C 
ATOM     29  O   UNL d   1      22.376 -19.173  -1.789  0.00  0.00    -0.267 OA
ATOM     30  H   UNL d   1      22.660 -17.937   1.177  0.00  0.00     0.169 HD
BRANCH  28  31
ATOM     31  C   UNL d   1      20.834 -19.229  -0.123  0.00  0.00     0.032 A 
ATOM     32  C   UNL d   1      20.655 -19.360   1.263  0.00  0.00     0.017 A 
ATOM     33  C   UNL d   1      19.484 -19.929   1.757  0.00  0.00     0.001 A 
ATOM     34  C   UNL d   1      18.480 -20.313   0.868  0.00  0.00     0.000 A 
ATOM     35  C   UNL d   1      18.669 -20.188  -0.510  0.00  0.00     0.001 A 
ATOM     36  C   UNL d   1      19.854 -19.661  -1.013  0.00  0.00     0.017 A 
ENDBRANCH  28  31
ENDBRANCH  25  27
ENDBRANCH   3  21
TORSDOF 8
ENDMDL
MODEL 7
REMARK VINA RESULT:    -9.896      6.820     11.529
REMARK INTER + INTRA:         -13.969
REMARK INTER:                 -12.283
REMARK INTRA:                  -1.686
REMARK CONF_INDEPENDENT:        2.386
REMARK UNBOUND:                -1.686
REMARK  8 active torsions:
REMARK  status: ('A' for Active; 'I' for Inactive)
REMARK    1  A    between atoms: C_2  and  C_4 
REMARK       I    between atoms: C_4  and  N_6 
REMARK    2  A    between atoms: N_6  and  C_7 
REMARK    3  A    between atoms: C_10  and  N_11 
REMARK    4  A    between atoms: N_11  and  C_12 
REMARK    5  A    between atoms: C_12  and  C_13 
REMARK       I    between atoms: C_13  and  N_15 
REMARK    6  A    between atoms: N_15  and  C_16 
REMARK    7  A    between atoms: C_20  and  N_21 
REMARK       I    between atoms: N_21  and  C_22 
REMARK    8  A    between atoms: C_22  and  C_24 
ROOT
ATOM      1  C   UNL d   1      25.882 -14.257  -3.408  0.00  0.00     0.239 C 
ATOM      2  O   UNL d   1      25.317 -14.762  -4.383  0.00  0.00    -0.271 OA
ATOM      3  N   UNL d   1      26.726 -13.140  -3.473  0.00  0.00    -0.326 N 
ATOM      4  H   UNL d   1      27.267 -12.858  -2.667  0.00  0.00     0.169 HD
ENDROOT
BRANCH   1   5
ATOM      5  C   UNL d   1      25.717 -14.899  -2.023  0.00  0.00     0.223 C 
BRANCH   5   6
ATOM      6  N   UNL d   1      25.427 -16.339  -2.165  0.00  0.00    -0.381 N 
ATOM      7  H   UNL d   1      25.655 -16.715  -3.088  0.00  0.00     0.160 HD
BRANCH   6   8
ATOM      8  C   UNL d   1      24.459 -16.983  -1.414  0.00  0.00     0.028 A 
ATOM      9  C   UNL d   1      23.172 -16.441  -1.259  0.00  0.00     0.031 A 
ATOM     10  C   UNL d   1      22.164 -17.118  -0.537  0.00  0.00     0.032 A 
ATOM     11  C   UNL d   1      22.419 -18.383  -0.004  0.00  0.00     0.034 A 
ATOM     12  C   UNL d   1      23.688 -18.929  -0.174  0.00  0.00     0.032 A 
ATOM     13  C   UNL d   1      24.679 -18.249  -0.879  0.00  0.00     0.031 A 
BRANCH  11  14
ATOM     14  N   UNL d   1      21.400 -19.149   0.616  0.00  0.00    -0.327 N 
ATOM     15  C   UNL d   1      20.361 -19.733  -0.100  0.00  0.00     0.225 C 
ATOM     16  O   UNL d   1      20.310 -19.753  -1.330  0.00  0.00    -0.273 OA
ATOM     17  H   UNL d   1      21.473 -19.290   1.615  0.00  0.00     0.169 HD
BRANCH  15  18
ATOM     18  C   UNL d   1      19.243 -20.379   0.724  0.00  0.00     0.070 C 
ATOM     19  C   UNL d   1      18.732 -19.359   1.755  0.00  0.00     0.019 C 
ATOM     20  C   UNL d   1      18.079 -20.826  -0.149  0.00  0.00     0.019 C 
ENDBRANCH  15  18
ENDBRANCH  11  14
ENDBRANCH   6   8
ENDBRANCH   5   6
ENDBRANCH   1   5
BRANCH   3  21
ATOM     21  C   UNL d   1      26.834 -12.339  -4.638  0.00  0.00     0.036 A 
ATOM     22  C   UNL d   1      27.967 -12.311  -5.444  0.00  0.00     0.029 A 
ATOM     23  C   UNL d   1      28.027 -11.407  -6.522  0.00  0.00     0.004 A 
ATOM     24  C   UNL d   1      26.955 -10.537  -6.799  0.00  0.00     0.029 A 
ATOM     25  C   UNL d   1      25.830 -10.549  -5.976  0.00  0.00     0.037 A 
ATOM     26  C   UNL d   1      25.794 -11.469  -4.935  0.00  0.00     0.059 A 
BRANCH  25  27
ATOM     27  N   UNL d   1      24.766  -9.628  -6.153  0.00  0.00    -0.323 N 
ATOM     28  C   UNL d   1      24.853  -8.261  -5.901  0.00  0.00     0.256 C 
ATOM     29  O   UNL d   1      25.834  -7.615  -5.514  0.00  0.00    -0.267 OA
ATOM     30  H   UNL d   1      23.913  -9.985  -6.566  0.00  0.00     0.169 HD
BRANCH  28  31
ATOM     31  C   UNL d   1      23.652  -7.450  -6.119  0.00  0.00     0.032 A 
ATOM     32  C   UNL d   1      23.389  -6.957  -7.407  0.00  0.00     0.017 A 
ATOM     33  C   UNL d   1      22.359  -6.041  -7.599  0.00  0.00     0.001 A 
ATOM     34  C   UNL d   1      21.564  -5.666  -6.516  0.00  0.00     0.000 A 
ATOM     35  C   UNL d   1      21.836  -6.153  -5.235  0.00  0.00     0.001 A 
ATOM     36  C   UNL d   1      22.892  -7.035  -5.028  0.00  0.00     0.017 A 
ENDBRANCH  28  31
ENDBRANCH  25  27
ENDBRANCH   3  21
TORSDOF 8
ENDMDL
MODEL 8
REMARK VINA RESULT:    -9.752      6.316     10.009
REMARK INTER + INTRA:         -13.812
REMARK INTER:                 -12.138
REMARK INTRA:                  -1.674
REMARK CONF_INDEPENDENT:        2.386
REMARK UNBOUND:                -1.674
REMARK  8 active torsions:
REMARK  status: ('A' for Active; 'I' for Inactive)
REMARK    1  A    between atoms: C_2  and  C_4 
REMARK       I    between atoms: C_4  and  N_6 
REMARK    2  A    between atoms: N_6  and  C_7 
REMARK    3  A    between atoms: C_10  and  N_11 
REMARK    4  A    between atoms: N_11  and  C_12 
REMARK    5  A    between atoms: C_12  and  C_13 
REMARK       I    between atoms: C_13  and  N_15 
REMARK    6  A    between atoms: N_15  and  C_16 
REMARK    7  A    between atoms: C_20  and  N_21 
REMARK       I    between atoms: N_21  and  C_22 
REMARK    8  A    between atoms: C_22  and  C_24 
ROOT
ATOM      1  C   UNL d   1      25.623 -14.220  -2.476  0.00  0.00     0.239 C 
ATOM      2  O   UNL d   1      26.155 -13.697  -1.492  0.00  0.00    -0.271 OA
ATOM      3  N   UNL d   1      25.331 -15.586  -2.585  0.00  0.00    -0.326 N 
ATOM      4  H   UNL d   1      25.024 -15.977  -3.465  0.00  0.00     0.169 HD
ENDROOT
BRANCH   1   5
ATOM      5  C   UNL d   1      25.294 -13.359  -3.703  0.00  0.00     0.223 C 
BRANCH   5   6
ATOM      6  N   UNL d   1      26.240 -12.229  -3.797  0.00  0.00    -0.381 N 
ATOM      7  H   UNL d   1      26.920 -12.199  -3.034  0.00  0.00     0.160 HD
BRANCH   6   8
ATOM      8  C   UNL d   1      25.930 -11.048  -4.449  0.00  0.00     0.028 A 
ATOM      9  C   UNL d   1      25.882 -10.979  -5.851  0.00  0.00     0.031 A 
ATOM     10  C   UNL d   1      25.515  -9.790  -6.522  0.00  0.00     0.032 A 
ATOM     11  C   UNL d   1      25.136  -8.664  -5.789  0.00  0.00     0.034 A 
ATOM     12  C   UNL d   1      25.166  -8.739  -4.400  0.00  0.00     0.032 A 
ATOM     13  C   UNL d   1      25.538  -9.912  -3.747  0.00  0.00     0.031 A 
BRANCH  11  14
ATOM     14  N   UNL d   1      24.642  -7.496  -6.420  0.00  0.00    -0.327 N 
ATOM     15  C   UNL d   1      23.342  -7.038  -6.238  0.00  0.00     0.225 C 
ATOM     16  O   UNL d   1      22.560  -7.521  -5.418  0.00  0.00    -0.273 OA
ATOM     17  H   UNL d   1      25.290  -6.973  -6.995  0.00  0.00     0.169 HD
BRANCH  15  18
ATOM     18  C   UNL d   1      22.900  -5.868  -7.121  0.00  0.00     0.070 C 
ATOM     19  C   UNL d   1      24.039  -5.520  -8.093  0.00  0.00     0.019 C 
ATOM     20  C   UNL d   1      21.649  -6.201  -7.923  0.00  0.00     0.019 C 
ENDBRANCH  15  18
ENDBRANCH  11  14
ENDBRANCH   6   8
ENDBRANCH   5   6
ENDBRANCH   1   5
BRANCH   3  21
ATOM     21  C   UNL d   1      25.412 -16.468  -1.478  0.00  0.00     0.036 A 
ATOM     22  C   UNL d   1      26.598 -16.749  -0.809  0.00  0.00     0.029 A 
ATOM     23  C   UNL d   1      26.604 -17.719   0.212  0.00  0.00     0.004 A 
ATOM     24  C   UNL d   1      25.427 -18.402   0.569  0.00  0.00     0.029 A 
ATOM     25  C   UNL d   1      24.243 -18.139  -0.119  0.00  0.00     0.037 A 
ATOM     26  C   UNL d   1      24.267 -17.159  -1.105  0.00  0.00     0.059 A 
BRANCH  25  27
ATOM     27  N   UNL d   1      23.053 -18.868   0.136  0.00  0.00    -0.323 N 
ATOM     28  C   UNL d   1      21.780 -18.466  -0.259  0.00  0.00     0.256 C 
ATOM     29  O   UNL d   1      21.459 -17.455  -0.895  0.00  0.00    -0.267 OA
ATOM     30  H   UNL d   1      23.156 -19.779   0.565  0.00  0.00     0.169 HD
BRANCH  28  31
ATOM     31  C   UNL d   1      20.651 -19.329   0.102  0.00  0.00     0.032 A 
ATOM     32  C   UNL d   1      19.681 -19.620  -0.871  0.00  0.00     0.017 A 
ATOM     33  C   UNL d   1      18.514 -20.284  -0.504  0.00  0.00     0.001 A 
ATOM     34  C   UNL d   1      18.347 -20.701   0.816  0.00  0.00     0.000 A 
ATOM     35  C   UNL d   1      19.312 -20.400   1.781  0.00  0.00     0.001 A 
ATOM     36  C   UNL d   1      20.461 -19.697   1.431  0.00  0.00     0.017 A 
ENDBRANCH  28  31
ENDBRANCH  25  27
ENDBRANCH   3  21
TORSDOF 8
ENDMDL
MODEL 9
REMARK VINA RESULT:    -9.317      3.052      4.774
REMARK INTER + INTRA:         -13.762
REMARK INTER:                 -11.703
REMARK INTRA:                  -2.059
REMARK CONF_INDEPENDENT:        2.386
REMARK UNBOUND:                -2.059
REMARK  8 active torsions:
REMARK  status: ('A' for Active; 'I' for Inactive)
REMARK    1  A    between atoms: C_2  and  C_4 
REMARK       I    between atoms: C_4  and  N_6 
REMARK    2  A    between atoms: N_6  and  C_7 
REMARK    3  A    between atoms: C_10  and  N_11 
REMARK    4  A    between atoms: N_11  and  C_12 
REMARK    5  A    between atoms: C_12  and  C_13 
REMARK       I    between atoms: C_13  and  N_15 
REMARK    6  A    between atoms: N_15  and  C_16 
REMARK    7  A    between atoms: C_20  and  N_21 
REMARK       I    between atoms: N_21  and  C_22 
REMARK    8  A    between atoms: C_22  and  C_24 
ROOT
ATOM      1  C   UNL d   1      25.514 -14.904  -3.458  0.00  0.00     0.239 C 
ATOM      2  O   UNL d   1      25.542 -15.949  -4.116  0.00  0.00    -0.271 OA
ATOM      3  N   UNL d   1      25.351 -14.849  -2.068  0.00  0.00    -0.326 N 
ATOM      4  H   UNL d   1      25.198 -13.963  -1.603  0.00  0.00     0.169 HD
ENDROOT
BRANCH   1   5
ATOM      5  C   UNL d   1      25.606 -13.553  -4.182  0.00  0.00     0.223 C 
BRANCH   5   6
ATOM      6  N   UNL d   1      26.908 -12.917  -3.901  0.00  0.00    -0.381 N 
ATOM      7  H   UNL d   1      27.540 -12.903  -4.704  0.00  0.00     0.160 HD
BRANCH   6   8
ATOM      8  C   UNL d   1      27.458 -12.871  -2.631  0.00  0.00     0.028 A 
ATOM      9  C   UNL d   1      26.925 -12.037  -1.634  0.00  0.00     0.031 A 
ATOM     10  C   UNL d   1      27.449 -12.023  -0.321  0.00  0.00     0.032 A 
ATOM     11  C   UNL d   1      28.485 -12.892   0.025  0.00  0.00     0.034 A 
ATOM     12  C   UNL d   1      29.000 -13.732  -0.958  0.00  0.00     0.032 A 
ATOM     13  C   UNL d   1      28.484 -13.731  -2.252  0.00  0.00     0.031 A 
BRANCH  11  14
ATOM     14  N   UNL d   1      28.952 -13.000   1.359  0.00  0.00    -0.327 N 
ATOM     15  C   UNL d   1      28.261 -13.700   2.341  0.00  0.00     0.225 C 
ATOM     16  O   UNL d   1      27.269 -14.393   2.111  0.00  0.00    -0.273 OA
ATOM     17  H   UNL d   1      29.843 -12.570   1.571  0.00  0.00     0.169 HD
BRANCH  15  18
ATOM     18  C   UNL d   1      28.797 -13.580   3.770  0.00  0.00     0.070 C 
ATOM     19  C   UNL d   1      27.697 -14.014   4.752  0.00  0.00     0.019 C 
ATOM     20  C   UNL d   1      30.028 -14.450   3.991  0.00  0.00     0.019 C 
ENDBRANCH  15  18
ENDBRANCH  11  14
ENDBRANCH   6   8
ENDBRANCH   5   6
ENDBRANCH   1   5
BRANCH   3  21
ATOM     21  C   UNL d   1      25.430 -16.004  -1.249  0.00  0.00     0.036 A 
ATOM     22  C   UNL d   1      26.619 -16.675  -0.987  0.00  0.00     0.029 A 
ATOM     23  C   UNL d   1      26.589 -17.875  -0.250  0.00  0.00     0.004 A 
ATOM     24  C   UNL d   1      25.375 -18.400   0.229  0.00  0.00     0.029 A 
ATOM     25  C   UNL d   1      24.180 -17.741  -0.056  0.00  0.00     0.037 A 
ATOM     26  C   UNL d   1      24.248 -16.547  -0.765  0.00  0.00     0.059 A 
BRANCH  25  27
ATOM     27  N   UNL d   1      22.922 -18.278   0.319  0.00  0.00    -0.323 N 
ATOM     28  C   UNL d   1      22.002 -18.831  -0.568  0.00  0.00     0.256 C 
ATOM     29  O   UNL d   1      22.107 -18.971  -1.792  0.00  0.00    -0.267 OA
ATOM     30  H   UNL d   1      22.723 -18.332   1.311  0.00  0.00     0.169 HD
BRANCH  28  31
ATOM     31  C   UNL d   1      20.737 -19.326  -0.016  0.00  0.00     0.032 A 
ATOM     32  C   UNL d   1      20.652 -19.585   1.361  0.00  0.00     0.017 A 
ATOM     33  C   UNL d   1      19.526 -20.222   1.875  0.00  0.00     0.001 A 
ATOM     34  C   UNL d   1      18.473 -20.548   1.022  0.00  0.00     0.000 A 
ATOM     35  C   UNL d   1      18.567 -20.297  -0.349  0.00  0.00     0.001 A 
ATOM     36  C   UNL d   1      19.708 -19.700  -0.877  0.00  0.00     0.017 A 
ENDBRANCH  28  31
ENDBRANCH  25  27
ENDBRANCH   3  21
TORSDOF 8
ENDMDL
