MODEL 1
REMARK VINA RESULT:   -27.712      0.000      0.000
REMARK INTER + INTRA:         -33.476
REMARK INTER:                 -32.187
REMARK INTRA:                  -1.289
REMARK CONF_INDEPENDENT:        4.474
REMARK UNBOUND:                -1.289
REMARK  15 active torsions:
REMARK  status: ('A' for Active; 'I' for Inactive)
REMARK    1  A    between atoms: C_2  and  C_3 
REMARK    2  A    between atoms: C_3  and  C_4 
REMARK    3  A    between atoms: C_4  and  C_5 
REMARK    4  A    between atoms: C_5  and  C_6 
REMARK    5  A    between atoms: C_6  and  N_7 
REMARK    6  A    between atoms: N_7  and  S_8 
REMARK    7  A    between atoms: S_8  and  C_11 
REMARK    8  A    between atoms: C_14  and  N_15 
REMARK       I    between atoms: N_15  and  C_16 
REMARK    9  A    between atoms: C_16  and  C_18 
REMARK   10  A    between atoms: C_20  and  O_21 
REMARK   11  A    between atoms: O_21  and  C_22 
REMARK   12  A    between atoms: C_24  and  O_25 
REMARK   13  A    between atoms: O_25  and  C_26 
REMARK   14  A    between atoms: C_28  and  O_29 
REMARK   15  A    between atoms: O_29  and  C_30 
ROOT
ATOM      1  N   UNL d   1      25.720 -15.741  -0.422  0.00  0.00    -0.323 N 
ATOM      2  C   UNL d   1      26.944 -16.175   0.104  0.00  0.00     0.256 C 
ATOM      3  O   UNL d   1      27.233 -17.321   0.434  0.00  0.00    -0.267 OA
ATOM      4  H   UNL d   1      25.611 -14.759  -0.650  0.00  0.00     0.169 HD
ENDROOT
BRANCH   1   5
ATOM      5  C   UNL d   1      24.581 -16.578  -0.638  0.00  0.00     0.035 A 
ATOM      6  C   UNL d   1      23.285 -16.032  -0.709  0.00  0.00     0.031 A 
ATOM      7  C   UNL d   1      22.145 -16.867  -0.822  0.00  0.00     0.027 A 
ATOM      8  C   UNL d   1      22.310 -18.247  -0.943  0.00  0.00     0.074 A 
ATOM      9  C   UNL d   1      23.590 -18.790  -0.906  0.00  0.00     0.027 A 
ATOM     10  C   UNL d   1      24.701 -17.964  -0.757  0.00  0.00     0.031 A 
BRANCH   8  11
ATOM     11  S   UNL d   1      20.994 -19.399  -1.225  0.00  0.00     0.241 S 
ATOM     12  O   UNL d   1      21.105 -20.436  -0.231  0.00  0.00    -0.206 OA
ATOM     13  O   UNL d   1      20.987 -19.700  -2.647  0.00  0.00    -0.206 OA
BRANCH  11  14
ATOM     14  N   UNL d   1      19.538 -18.575  -0.896  0.00  0.00    -0.216 NA
ATOM     15  H   UNL d   1      19.741 -17.590  -0.730  0.00  0.00     0.139 HD
BRANCH  14  16
ATOM     16  C   UNL d   1      18.861 -19.166   0.294  0.00  0.00     0.104 C 
BRANCH  16  17
ATOM     17  C   UNL d   1      18.434 -20.599   0.011  0.00  0.00     0.015 C 
BRANCH  17  18
ATOM     18  C   UNL d   1      18.429 -21.402   1.313  0.00  0.00     0.001 C 
BRANCH  18  19
ATOM     19  C   UNL d   1      18.435 -20.482   2.525  0.00  0.00    -0.000 C 
BRANCH  19  20
ATOM     20  C   UNL d   1      19.827 -20.413   3.146  0.00  0.00    -0.005 C 
ATOM     21  C   UNL d   1      20.648 -19.317   2.492  0.00  0.00     0.005 C 
ENDBRANCH  19  20
ENDBRANCH  18  19
ENDBRANCH  17  18
ENDBRANCH  16  17
ENDBRANCH  14  16
ENDBRANCH  11  14
ENDBRANCH   8  11
ENDBRANCH   1   5
BRANCH   2  22
ATOM     22  C   UNL d   1      28.008 -15.171   0.361  0.00  0.00     0.037 C 
ATOM     23  C   UNL d   1      28.342 -14.822   1.684  0.00  0.00     0.057 C 
ATOM     24  C   UNL d   1      29.160 -13.707   1.954  0.00  0.00     0.105 C 
ATOM     25  C   UNL d   1      29.734 -12.999   0.877  0.00  0.00     0.135 C 
ATOM     26  C   UNL d   1      29.348 -13.326  -0.440  0.00  0.00     0.105 C 
ATOM     27  C   UNL d   1      28.491 -14.403  -0.689  0.00  0.00     0.057 C 
BRANCH  24  28
ATOM     28  O   UNL d   1      29.279 -13.396   3.299  0.00  0.00    -0.349 OA
BRANCH  28  29
ATOM     29  C   UNL d   1      28.334 -14.009   4.187  0.00  0.00     0.171 C 
ATOM     30  C   UNL d   1      28.975 -14.417   5.496  0.00  0.00     0.034 C 
ENDBRANCH  28  29
ENDBRANCH  24  28
BRANCH  25  31
ATOM     31  O   UNL d   1      30.656 -12.037   1.202  0.00  0.00    -0.346 OA
BRANCH  31  32
ATOM     32  C   UNL d   1      31.530 -12.195   2.306  0.00  0.00     0.171 C 
ATOM     33  C   UNL d   1      32.140 -13.583   2.268  0.00  0.00     0.034 C 
ENDBRANCH  31  32
ENDBRANCH  25  31
BRANCH  26  34
ATOM     34  O   UNL d   1      29.807 -12.517  -1.438  0.00  0.00    -0.349 OA
BRANCH  34  35
ATOM     35  C   UNL d   1      29.153 -12.530  -2.691  0.00  0.00     0.171 C 
ATOM     36  C   UNL d   1      30.051 -13.273  -3.656  0.00  0.00     0.034 C 
ENDBRANCH  34  35
ENDBRANCH  26  34
ENDBRANCH   2  22
TORSDOF 15
ENDMDL
MODEL 2
REMARK VINA RESULT:   -27.505      1.524      2.580
REMARK INTER + INTRA:         -33.492
REMARK INTER:                 -31.979
REMARK INTRA:                  -1.512
REMARK CONF_INDEPENDENT:        4.474
REMARK UNBOUND:                -1.512
REMARK  15 active torsions:
REMARK  status: ('A' for Active; 'I' for Inactive)
REMARK    1  A    between atoms: C_2  and  C_3 
REMARK    2  A    between atoms: C_3  and  C_4 
REMARK    3  A    between atoms: C_4  and  C_5 
REMARK    4  A    between atoms: C_5  and  C_6 
REMARK    5  A    between atoms: C_6  and  N_7 
REMARK    6  A    between atoms: N_7  and  S_8 
REMARK    7  A    between atoms: S_8  and  C_11 
REMARK    8  A    between atoms: C_14  and  N_15 
REMARK       I    between atoms: N_15  and  C_16 
REMARK    9  A    between atoms: C_16  and  C_18 
REMARK   10  A    between atoms: C_20  and  O_21 
REMARK   11  A    between atoms: O_21  and  C_22 
REMARK   12  A    between atoms: C_24  and  O_25 
REMARK   13  A    between atoms: O_25  and  C_26 
REMARK   14  A    between atoms: C_28  and  O_29 
REMARK   15  A    between atoms: O_29  and  C_30 
ROOT
ATOM      1  N   UNL d   1      25.721 -15.810  -0.171  0.00  0.00    -0.323 N 
ATOM      2  C   UNL d   1      27.049 -16.258  -0.167  0.00  0.00     0.256 C 
ATOM      3  O   UNL d   1      27.439 -17.396  -0.408  0.00  0.00    -0.267 OA
ATOM      4  H   UNL d   1      25.536 -14.839   0.052  0.00  0.00     0.169 HD
ENDROOT
BRANCH   1   5
ATOM      5  C   UNL d   1      24.583 -16.634  -0.437  0.00  0.00     0.035 A 
ATOM      6  C   UNL d   1      23.303 -16.069  -0.600  0.00  0.00     0.031 A 
ATOM      7  C   UNL d   1      22.158 -16.888  -0.764  0.00  0.00     0.027 A 
ATOM      8  C   UNL d   1      22.307 -18.273  -0.844  0.00  0.00     0.074 A 
ATOM      9  C   UNL d   1      23.572 -18.836  -0.716  0.00  0.00     0.027 A 
ATOM     10  C   UNL d   1      24.686 -18.024  -0.518  0.00  0.00     0.031 A 
BRANCH   8  11
ATOM     11  S   UNL d   1      20.990 -19.410  -1.181  0.00  0.00     0.241 S 
ATOM     12  O   UNL d   1      21.057 -20.456  -0.192  0.00  0.00    -0.206 OA
ATOM     13  O   UNL d   1      21.031 -19.700  -2.604  0.00  0.00    -0.206 OA
BRANCH  11  14
ATOM     14  N   UNL d   1      19.531 -18.575  -0.896  0.00  0.00    -0.216 NA
ATOM     15  H   UNL d   1      19.737 -17.591  -0.725  0.00  0.00     0.139 HD
BRANCH  14  16
ATOM     16  C   UNL d   1      18.815 -19.158   0.275  0.00  0.00     0.104 C 
BRANCH  16  17
ATOM     17  C   UNL d   1      18.406 -20.596  -0.010  0.00  0.00     0.015 C 
BRANCH  17  18
ATOM     18  C   UNL d   1      18.253 -21.359   1.306  0.00  0.00     0.001 C 
BRANCH  18  19
ATOM     19  C   UNL d   1      18.403 -20.428   2.501  0.00  0.00    -0.000 C 
BRANCH  19  20
ATOM     20  C   UNL d   1      19.827 -20.470   3.046  0.00  0.00    -0.005 C 
ATOM     21  C   UNL d   1      20.637 -19.305   2.510  0.00  0.00     0.005 C 
ENDBRANCH  19  20
ENDBRANCH  18  19
ENDBRANCH  17  18
ENDBRANCH  16  17
ENDBRANCH  14  16
ENDBRANCH  11  14
ENDBRANCH   8  11
ENDBRANCH   1   5
BRANCH   2  22
ATOM     22  C   UNL d   1      28.123 -15.307   0.222  0.00  0.00     0.037 C 
ATOM     23  C   UNL d   1      29.431 -15.776   0.447  0.00  0.00     0.057 C 
ATOM     24  C   UNL d   1      30.402 -14.953   1.051  0.00  0.00     0.105 C 
ATOM     25  C   UNL d   1      30.081 -13.608   1.335  0.00  0.00     0.135 C 
ATOM     26  C   UNL d   1      28.753 -13.169   1.156  0.00  0.00     0.105 C 
ATOM     27  C   UNL d   1      27.786 -14.016   0.604  0.00  0.00     0.057 C 
BRANCH  24  28
ATOM     28  O   UNL d   1      31.594 -15.593   1.346  0.00  0.00    -0.349 OA
BRANCH  28  29
ATOM     29  C   UNL d   1      32.758 -15.144   0.636  0.00  0.00     0.171 C 
ATOM     30  C   UNL d   1      33.360 -16.245  -0.211  0.00  0.00     0.034 C 
ENDBRANCH  28  29
ENDBRANCH  24  28
BRANCH  25  31
ATOM     31  O   UNL d   1      31.114 -12.811   1.759  0.00  0.00    -0.346 OA
BRANCH  31  32
ATOM     32  C   UNL d   1      31.541 -12.814   3.110  0.00  0.00     0.171 C 
ATOM     33  C   UNL d   1      31.491 -11.400   3.656  0.00  0.00     0.034 C 
ENDBRANCH  31  32
ENDBRANCH  25  31
BRANCH  26  34
ATOM     34  O   UNL d   1      28.454 -11.910   1.588  0.00  0.00    -0.349 OA
BRANCH  34  35
ATOM     35  C   UNL d   1      27.597 -11.749   2.701  0.00  0.00     0.171 C 
ATOM     36  C   UNL d   1      27.524 -13.087   3.404  0.00  0.00     0.034 C 
ENDBRANCH  34  35
ENDBRANCH  26  34
ENDBRANCH   2  22
TORSDOF 15
ENDMDL
MODEL 3
REMARK VINA RESULT:   -27.048      2.384      3.132
REMARK INTER + INTRA:         -32.839
REMARK INTER:                 -31.523
REMARK INTRA:                  -1.316
REMARK CONF_INDEPENDENT:        4.474
REMARK UNBOUND:                -1.316
REMARK  15 active torsions:
REMARK  status: ('A' for Active; 'I' for Inactive)
REMARK    1  A    between atoms: C_2  and  C_3 
REMARK    2  A    between atoms: C_3  and  C_4 
REMARK    3  A    between atoms: C_4  and  C_5 
REMARK    4  A    between atoms: C_5  and  C_6 
REMARK    5  A    between atoms: C_6  and  N_7 
REMARK    6  A    between atoms: N_7  and  S_8 
REMARK    7  A    between atoms: S_8  and  C_11 
REMARK    8  A    between atoms: C_14  and  N_15 
REMARK       I    between atoms: N_15  and  C_16 
REMARK    9  A    between atoms: C_16  and  C_18 
REMARK   10  A    between atoms: C_20  and  O_21 
REMARK   11  A    between atoms: O_21  and  C_22 
REMARK   12  A    between atoms: C_24  and  O_25 
REMARK   13  A    between atoms: O_25  and  C_26 
REMARK   14  A    between atoms: C_28  and  O_29 
REMARK   15  A    between atoms: O_29  and  C_30 
ROOT
ATOM      1  N   UNL d   1      25.944 -15.777  -1.712  0.00  0.00    -0.323 N 
ATOM      2  C   UNL d   1      27.049 -15.498  -0.897  0.00  0.00     0.256 C 
ATOM      3  O   UNL d   1      27.218 -15.871   0.259  0.00  0.00    -0.267 OA
ATOM      4  H   UNL d   1      25.927 -15.401  -2.653  0.00  0.00     0.169 HD
ENDROOT
BRANCH   1   5
ATOM      5  C   UNL d   1      24.801 -16.535  -1.306  0.00  0.00     0.035 A 
ATOM      6  C   UNL d   1      23.519 -15.953  -1.277  0.00  0.00     0.031 A 
ATOM      7  C   UNL d   1      22.402 -16.670  -0.781  0.00  0.00     0.027 A 
ATOM      8  C   UNL d   1      22.555 -18.000  -0.387  0.00  0.00     0.074 A 
ATOM      9  C   UNL d   1      23.812 -18.591  -0.444  0.00  0.00     0.027 A 
ATOM     10  C   UNL d   1      24.911 -17.866  -0.898  0.00  0.00     0.031 A 
BRANCH   8  11
ATOM     11  S   UNL d   1      21.229 -19.058   0.125  0.00  0.00     0.241 S 
ATOM     12  O   UNL d   1      20.835 -18.650   1.449  0.00  0.00    -0.206 OA
ATOM     13  O   UNL d   1      21.637 -20.423  -0.166  0.00  0.00    -0.206 OA
BRANCH  11  14
ATOM     14  N   UNL d   1      19.905 -18.719  -0.895  0.00  0.00    -0.216 NA
ATOM     15  H   UNL d   1      19.590 -17.764  -0.727  0.00  0.00     0.139 HD
BRANCH  14  16
ATOM     16  C   UNL d   1      18.792 -19.678  -0.641  0.00  0.00     0.104 C 
BRANCH  16  17
ATOM     17  C   UNL d   1      19.266 -20.830   0.234  0.00  0.00     0.015 C 
BRANCH  17  18
ATOM     18  C   UNL d   1      18.239 -21.099   1.333  0.00  0.00     0.001 C 
BRANCH  18  19
ATOM     19  C   UNL d   1      18.455 -20.176   2.525  0.00  0.00    -0.000 C 
BRANCH  19  20
ATOM     20  C   UNL d   1      19.772 -20.496   3.227  0.00  0.00    -0.005 C 
ATOM     21  C   UNL d   1      19.530 -20.817   4.689  0.00  0.00     0.005 C 
ENDBRANCH  19  20
ENDBRANCH  18  19
ENDBRANCH  17  18
ENDBRANCH  16  17
ENDBRANCH  14  16
ENDBRANCH  11  14
ENDBRANCH   8  11
ENDBRANCH   1   5
BRANCH   2  22
ATOM     22  C   UNL d   1      28.121 -14.615  -1.425  0.00  0.00     0.037 C 
ATOM     23  C   UNL d   1      28.316 -13.336  -0.870  0.00  0.00     0.057 C 
ATOM     24  C   UNL d   1      29.147 -12.391  -1.503  0.00  0.00     0.105 C 
ATOM     25  C   UNL d   1      29.873 -12.775  -2.651  0.00  0.00     0.135 C 
ATOM     26  C   UNL d   1      29.626 -14.039  -3.226  0.00  0.00     0.105 C 
ATOM     27  C   UNL d   1      28.756 -14.947  -2.613  0.00  0.00     0.057 C 
BRANCH  24  28
ATOM     28  O   UNL d   1      29.125 -11.131  -0.928  0.00  0.00    -0.349 OA
BRANCH  28  29
ATOM     29  C   UNL d   1      28.194 -10.189  -1.480  0.00  0.00     0.171 C 
ATOM     30  C   UNL d   1      27.102 -10.876  -2.272  0.00  0.00     0.034 C 
ENDBRANCH  28  29
ENDBRANCH  24  28
BRANCH  25  31
ATOM     31  O   UNL d   1      30.795 -11.873  -3.120  0.00  0.00    -0.346 OA
BRANCH  31  32
ATOM     32  C   UNL d   1      31.848 -11.400  -2.299  0.00  0.00     0.171 C 
ATOM     33  C   UNL d   1      33.157 -12.009  -2.759  0.00  0.00     0.034 C 
ENDBRANCH  31  32
ENDBRANCH  25  31
BRANCH  26  34
ATOM     34  O   UNL d   1      30.234 -14.306  -4.418  0.00  0.00    -0.349 OA
BRANCH  34  35
ATOM     35  C   UNL d   1      29.558 -13.995  -5.620  0.00  0.00     0.171 C 
ATOM     36  C   UNL d   1      28.708 -15.194  -5.977  0.00  0.00     0.034 C 
ENDBRANCH  34  35
ENDBRANCH  26  34
ENDBRANCH   2  22
TORSDOF 15
ENDMDL
MODEL 4
REMARK VINA RESULT:   -26.623      1.844      3.927
REMARK INTER + INTRA:         -32.580
REMARK INTER:                 -31.098
REMARK INTRA:                  -1.482
REMARK CONF_INDEPENDENT:        4.474
REMARK UNBOUND:                -1.482
REMARK  15 active torsions:
REMARK  status: ('A' for Active; 'I' for Inactive)
REMARK    1  A    between atoms: C_2  and  C_3 
REMARK    2  A    between atoms: C_3  and  C_4 
REMARK    3  A    between atoms: C_4  and  C_5 
REMARK    4  A    between atoms: C_5  and  C_6 
REMARK    5  A    between atoms: C_6  and  N_7 
REMARK    6  A    between atoms: N_7  and  S_8 
REMARK    7  A    between atoms: S_8  and  C_11 
REMARK    8  A    between atoms: C_14  and  N_15 
REMARK       I    between atoms: N_15  and  C_16 
REMARK    9  A    between atoms: C_16  and  C_18 
REMARK   10  A    between atoms: C_20  and  O_21 
REMARK   11  A    between atoms: O_21  and  C_22 
REMARK   12  A    between atoms: C_24  and  O_25 
REMARK   13  A    between atoms: O_25  and  C_26 
REMARK   14  A    between atoms: C_28  and  O_29 
REMARK   15  A    between atoms: O_29  and  C_30 
ROOT
ATOM      1  N   UNL d   1      25.899 -15.715  -1.683  0.00  0.00    -0.323 N 
ATOM      2  C   UNL d   1      26.919 -15.289  -0.822  0.00  0.00     0.256 C 
ATOM      3  O   UNL d   1      27.012 -15.530   0.377  0.00  0.00    -0.267 OA
ATOM      4  H   UNL d   1      25.940 -15.439  -2.658  0.00  0.00     0.169 HD
ENDROOT
BRANCH   1   5
ATOM      5  C   UNL d   1      24.767 -16.494  -1.286  0.00  0.00     0.035 A 
ATOM      6  C   UNL d   1      23.475 -15.935  -1.269  0.00  0.00     0.031 A 
ATOM      7  C   UNL d   1      22.367 -16.672  -0.781  0.00  0.00     0.027 A 
ATOM      8  C   UNL d   1      22.541 -17.998  -0.384  0.00  0.00     0.074 A 
ATOM      9  C   UNL d   1      23.810 -18.567  -0.430  0.00  0.00     0.027 A 
ATOM     10  C   UNL d   1      24.898 -17.822  -0.876  0.00  0.00     0.031 A 
BRANCH   8  11
ATOM     11  S   UNL d   1      21.231 -19.081   0.117  0.00  0.00     0.241 S 
ATOM     12  O   UNL d   1      20.835 -18.695   1.447  0.00  0.00    -0.206 OA
ATOM     13  O   UNL d   1      21.656 -20.437  -0.191  0.00  0.00    -0.206 OA
BRANCH  11  14
ATOM     14  N   UNL d   1      19.900 -18.747  -0.895  0.00  0.00    -0.216 NA
ATOM     15  H   UNL d   1      19.648 -17.763  -0.803  0.00  0.00     0.139 HD
BRANCH  14  16
ATOM     16  C   UNL d   1      18.739 -19.609  -0.531  0.00  0.00     0.104 C 
BRANCH  16  17
ATOM     17  C   UNL d   1      19.208 -20.860   0.198  0.00  0.00     0.015 C 
BRANCH  17  18
ATOM     18  C   UNL d   1      18.248 -21.179   1.344  0.00  0.00     0.001 C 
BRANCH  18  19
ATOM     19  C   UNL d   1      18.423 -20.200   2.496  0.00  0.00    -0.000 C 
BRANCH  19  20
ATOM     20  C   UNL d   1      19.756 -20.427   3.203  0.00  0.00    -0.005 C 
ATOM     21  C   UNL d   1      19.530 -20.875   4.635  0.00  0.00     0.005 C 
ENDBRANCH  19  20
ENDBRANCH  18  19
ENDBRANCH  17  18
ENDBRANCH  16  17
ENDBRANCH  14  16
ENDBRANCH  11  14
ENDBRANCH   8  11
ENDBRANCH   1   5
BRANCH   2  22
ATOM     22  C   UNL d   1      27.984 -14.402  -1.358  0.00  0.00     0.037 C 
ATOM     23  C   UNL d   1      28.523 -14.642  -2.636  0.00  0.00     0.057 C 
ATOM     24  C   UNL d   1      29.691 -13.982  -3.066  0.00  0.00     0.105 C 
ATOM     25  C   UNL d   1      30.263 -12.990  -2.239  0.00  0.00     0.135 C 
ATOM     26  C   UNL d   1      29.744 -12.800  -0.941  0.00  0.00     0.105 C 
ATOM     27  C   UNL d   1      28.615 -13.503  -0.510  0.00  0.00     0.057 C 
BRANCH  24  28
ATOM     28  O   UNL d   1      30.189 -14.427  -4.279  0.00  0.00    -0.349 OA
BRANCH  28  29
ATOM     29  C   UNL d   1      29.348 -15.311  -5.034  0.00  0.00     0.171 C 
ATOM     30  C   UNL d   1      30.127 -16.475  -5.608  0.00  0.00     0.034 C 
ENDBRANCH  28  29
ENDBRANCH  24  28
BRANCH  25  31
ATOM     31  O   UNL d   1      31.291 -12.262  -2.782  0.00  0.00    -0.346 OA
BRANCH  31  32
ATOM     32  C   UNL d   1      31.133 -11.560  -4.003  0.00  0.00     0.171 C 
ATOM     33  C   UNL d   1      29.907 -10.672  -3.916  0.00  0.00     0.034 C 
ENDBRANCH  31  32
ENDBRANCH  25  31
BRANCH  26  34
ATOM     34  O   UNL d   1      30.422 -11.942  -0.125  0.00  0.00    -0.349 OA
BRANCH  34  35
ATOM     35  C   UNL d   1      31.033 -12.446   1.047  0.00  0.00     0.171 C 
ATOM     36  C   UNL d   1      32.529 -12.323   0.859  0.00  0.00     0.034 C 
ENDBRANCH  34  35
ENDBRANCH  26  34
ENDBRANCH   2  22
TORSDOF 15
ENDMDL
MODEL 5
REMARK VINA RESULT:   -26.431      1.767      2.607
REMARK INTER + INTRA:         -32.618
REMARK INTER:                 -30.905
REMARK INTRA:                  -1.712
REMARK CONF_INDEPENDENT:        4.474
REMARK UNBOUND:                -1.712
REMARK  15 active torsions:
REMARK  status: ('A' for Active; 'I' for Inactive)
REMARK    1  A    between atoms: C_2  and  C_3 
REMARK    2  A    between atoms: C_3  and  C_4 
REMARK    3  A    between atoms: C_4  and  C_5 
REMARK    4  A    between atoms: C_5  and  C_6 
REMARK    5  A    between atoms: C_6  and  N_7 
REMARK    6  A    between atoms: N_7  and  S_8 
REMARK    7  A    between atoms: S_8  and  C_11 
REMARK    8  A    between atoms: C_14  and  N_15 
REMARK       I    between atoms: N_15  and  C_16 
REMARK    9  A    between atoms: C_16  and  C_18 
REMARK   10  A    between atoms: C_20  and  O_21 
REMARK   11  A    between atoms: O_21  and  C_22 
REMARK   12  A    between atoms: C_24  and  O_25 
REMARK   13  A    between atoms: O_25  and  C_26 
REMARK   14  A    between atoms: C_28  and  O_29 
REMARK   15  A    between atoms: O_29  and  C_30 
ROOT
ATOM      1  N   UNL d   1      25.321 -15.359  -0.543  0.00  0.00    -0.323 N 
ATOM      2  C   UNL d   1      26.496 -15.525   0.203  0.00  0.00     0.256 C 
ATOM      3  O   UNL d   1      26.844 -16.536   0.805  0.00  0.00    -0.267 OA
ATOM      4  H   UNL d   1      25.152 -14.465  -0.989  0.00  0.00     0.169 HD
ENDROOT
BRANCH   1   5
ATOM      5  C   UNL d   1      24.307 -16.356  -0.702  0.00  0.00     0.035 A 
ATOM      6  C   UNL d   1      24.647 -17.706  -0.912  0.00  0.00     0.031 A 
ATOM      7  C   UNL d   1      23.649 -18.679  -1.170  0.00  0.00     0.027 A 
ATOM      8  C   UNL d   1      22.303 -18.312  -1.138  0.00  0.00     0.074 A 
ATOM      9  C   UNL d   1      21.960 -16.986  -0.898  0.00  0.00     0.027 A 
ATOM     10  C   UNL d   1      22.950 -16.031  -0.683  0.00  0.00     0.031 A 
BRANCH   8  11
ATOM     11  S   UNL d   1      20.947 -19.440  -1.307  0.00  0.00     0.241 S 
ATOM     12  O   UNL d   1      21.102 -20.457  -0.298  0.00  0.00    -0.206 OA
ATOM     13  O   UNL d   1      20.840 -19.771  -2.718  0.00  0.00    -0.206 OA
BRANCH  11  14
ATOM     14  N   UNL d   1      19.534 -18.576  -0.902  0.00  0.00    -0.216 NA
ATOM     15  H   UNL d   1      19.780 -17.607  -0.701  0.00  0.00     0.139 HD
BRANCH  14  16
ATOM     16  C   UNL d   1      18.868 -19.190   0.283  0.00  0.00     0.104 C 
BRANCH  16  17
ATOM     17  C   UNL d   1      18.308 -20.562  -0.069  0.00  0.00     0.015 C 
BRANCH  17  18
ATOM     18  C   UNL d   1      18.120 -21.384   1.206  0.00  0.00     0.001 C 
BRANCH  18  19
ATOM     19  C   UNL d   1      18.238 -20.509   2.446  0.00  0.00    -0.000 C 
BRANCH  19  20
ATOM     20  C   UNL d   1      19.697 -20.358   2.868  0.00  0.00    -0.005 C 
ATOM     21  C   UNL d   1      19.891 -20.837   4.294  0.00  0.00     0.005 C 
ENDBRANCH  19  20
ENDBRANCH  18  19
ENDBRANCH  17  18
ENDBRANCH  16  17
ENDBRANCH  14  16
ENDBRANCH  11  14
ENDBRANCH   8  11
ENDBRANCH   1   5
BRANCH   2  22
ATOM     22  C   UNL d   1      27.414 -14.367   0.358  0.00  0.00     0.037 C 
ATOM     23  C   UNL d   1      28.798 -14.579   0.501  0.00  0.00     0.057 C 
ATOM     24  C   UNL d   1      29.655 -13.533   0.894  0.00  0.00     0.105 C 
ATOM     25  C   UNL d   1      29.127 -12.232   1.043  0.00  0.00     0.135 C 
ATOM     26  C   UNL d   1      27.731 -12.046   0.951  0.00  0.00     0.105 C 
ATOM     27  C   UNL d   1      26.887 -13.108   0.611  0.00  0.00     0.057 C 
BRANCH  24  28
ATOM     28  O   UNL d   1      30.961 -13.922   1.140  0.00  0.00    -0.349 OA
BRANCH  28  29
ATOM     29  C   UNL d   1      31.445 -13.740   2.478  0.00  0.00     0.171 C 
ATOM     30  C   UNL d   1      30.845 -14.748   3.435  0.00  0.00     0.034 C 
ENDBRANCH  28  29
ENDBRANCH  24  28
BRANCH  25  31
ATOM     31  O   UNL d   1      30.034 -11.226   1.256  0.00  0.00    -0.346 OA
BRANCH  31  32
ATOM     32  C   UNL d   1      30.153 -10.137   0.357  0.00  0.00     0.171 C 
ATOM     33  C   UNL d   1      31.617  -9.901   0.043  0.00  0.00     0.034 C 
ENDBRANCH  31  32
ENDBRANCH  25  31
BRANCH  26  34
ATOM     34  O   UNL d   1      27.252 -10.805   1.253  0.00  0.00    -0.349 OA
BRANCH  34  35
ATOM     35  C   UNL d   1      26.551 -10.614   2.467  0.00  0.00     0.171 C 
ATOM     36  C   UNL d   1      26.252  -9.136   2.582  0.00  0.00     0.034 C 
ENDBRANCH  34  35
ENDBRANCH  26  34
ENDBRANCH   2  22
TORSDOF 15
ENDMDL
