MODEL 1
REMARK VINA RESULT:   -10.830      0.000      0.000
REMARK INTER + INTRA:         -15.579
REMARK INTER:                 -14.409
REMARK INTRA:                  -1.170
REMARK CONF_INDEPENDENT:        3.580
REMARK UNBOUND:                -1.170
REMARK  12 active torsions:
REMARK  status: ('A' for Active; 'I' for Inactive)
REMARK    1  A    between atoms: C_2  and  C_3 
REMARK    2  A    between atoms: C_3  and  C_4 
REMARK    3  A    between atoms: C_4  and  C_5 
REMARK    4  A    between atoms: C_5  and  C_6 
REMARK    5  A    between atoms: C_6  and  C_7 
REMARK    6  A    between atoms: C_7  and  C_8 
REMARK    7  A    between atoms: C_8  and  C_9 
REMARK    8  A    between atoms: C_9  and  N_10 
REMARK    9  A    between atoms: C_11  and  N_12 
REMARK   10  A    between atoms: N_12  and  N_13 
REMARK   11  A    between atoms: C_14  and  C_15 
REMARK   12  A    between atoms: C_19  and  N_20 
ROOT
ATOM      1  N   UNL d   1      26.942 -15.549  -0.985  0.00  0.00    -0.171 N 
ATOM      2  C   UNL d   1      28.236 -15.559  -0.485  0.00  0.00     0.725 A 
ATOM      3  N   UNL d   1      29.101 -15.451  -1.497  0.00  0.00    -0.042 NA
ATOM      4  C   UNL d   1      28.344 -15.403  -2.648  0.00  0.00     0.186 A 
ATOM      5  C   UNL d   1      27.014 -15.462  -2.352  0.00  0.00     0.166 A 
ATOM      6  C   UNL d   1      25.993 -15.444  -3.341  0.00  0.00     0.280 A 
ATOM      7  O   UNL d   1      24.782 -15.495  -3.126  0.00  0.00    -0.265 OA
ATOM      8  N   UNL d   1      26.482 -15.356  -4.615  0.00  0.00    -0.273 N 
ATOM      9  C   UNL d   1      27.803 -15.284  -4.990  0.00  0.00     0.330 A 
ATOM     10  O   UNL d   1      28.062 -15.200  -6.191  0.00  0.00    -0.246 OA
ATOM     11  N   UNL d   1      28.764 -15.309  -3.973  0.00  0.00    -0.286 N 
ATOM     12  C   UNL d   1      30.159 -15.229  -4.356  0.00  0.00     0.163 C 
ATOM     13  H   UNL d   1      25.805 -15.336  -5.361  0.00  0.00     0.173 HD
ENDROOT
BRANCH   2  14
ATOM     14  N   UNL d   1      28.515 -15.665   0.858  0.00  0.00    -0.107 N 
ATOM     15  H   UNL d   1      28.780 -16.593   1.186  0.00  0.00     0.208 HD
BRANCH  14  16
ATOM     16  N   UNL d   1      28.411 -14.628   1.755  0.00  0.00    -0.172 NA
ATOM     17  C   UNL d   1      27.914 -13.487   1.396  0.00  0.00     0.150 C 
BRANCH  17  18
ATOM     18  C   UNL d   1      27.711 -12.404   2.409  0.00  0.00    -0.015 A 
ATOM     19  C   UNL d   1      28.241 -12.557   3.698  0.00  0.00     0.013 A 
ATOM     20  C   UNL d   1      28.092 -11.545   4.659  0.00  0.00     0.003 A 
ATOM     21  C   UNL d   1      27.400 -10.376   4.349  0.00  0.00     0.036 A 
ATOM     22  C   UNL d   1      26.859 -10.227   3.068  0.00  0.00     0.103 A 
ATOM     23  C   UNL d   1      27.017 -11.230   2.090  0.00  0.00     0.049 A 
BRANCH  22  24
ATOM     24  N   UNL d   1      26.081  -9.020   2.768  0.00  0.00    -0.116 N 
ATOM     25  O   UNL d   1      25.028  -9.148   2.125  0.00  0.00    -0.532 OA
ATOM     26  O   UNL d   1      26.541  -7.940   3.152  0.00  0.00    -0.532 OA
ENDBRANCH  22  24
ENDBRANCH  17  18
ENDBRANCH  14  16
ENDBRANCH   2  14
BRANCH   1  27
ATOM     27  C   UNL d   1      25.693 -15.661  -0.265  0.00  0.00     0.148 C 
BRANCH  27  28
ATOM     28  C   UNL d   1      25.178 -17.090  -0.283  0.00  0.00     0.021 C 
BRANCH  28  29
ATOM     29  C   UNL d   1      23.671 -17.093  -0.464  0.00  0.00     0.002 C 
BRANCH  29  30
ATOM     30  C   UNL d   1      23.219 -18.437  -1.003  0.00  0.00     0.000 C 
BRANCH  30  31
ATOM     31  C   UNL d   1      21.992 -18.916  -0.252  0.00  0.00     0.000 C 
BRANCH  31  32
ATOM     32  C   UNL d   1      20.879 -19.254  -1.227  0.00  0.00     0.000 C 
BRANCH  32  33
ATOM     33  C   UNL d   1      19.535 -19.179  -0.522  0.00  0.00    -0.000 C 
BRANCH  33  34
ATOM     34  C   UNL d   1      19.532 -20.075   0.707  0.00  0.00    -0.005 C 
ATOM     35  C   UNL d   1      18.416 -21.095   0.615  0.00  0.00     0.005 C 
ENDBRANCH  33  34
ENDBRANCH  32  33
ENDBRANCH  31  32
ENDBRANCH  30  31
ENDBRANCH  29  30
ENDBRANCH  28  29
ENDBRANCH  27  28
ENDBRANCH   1  27
TORSDOF 12
ENDMDL
MODEL 2
REMARK VINA RESULT:    -9.345      1.156      1.273
REMARK INTER + INTRA:         -14.134
REMARK INTER:                 -12.925
REMARK INTRA:                  -1.209
REMARK CONF_INDEPENDENT:        3.580
REMARK UNBOUND:                -1.209
REMARK  12 active torsions:
REMARK  status: ('A' for Active; 'I' for Inactive)
REMARK    1  A    between atoms: C_2  and  C_3 
REMARK    2  A    between atoms: C_3  and  C_4 
REMARK    3  A    between atoms: C_4  and  C_5 
REMARK    4  A    between atoms: C_5  and  C_6 
REMARK    5  A    between atoms: C_6  and  C_7 
REMARK    6  A    between atoms: C_7  and  C_8 
REMARK    7  A    between atoms: C_8  and  C_9 
REMARK    8  A    between atoms: C_9  and  N_10 
REMARK    9  A    between atoms: C_11  and  N_12 
REMARK   10  A    between atoms: N_12  and  N_13 
REMARK   11  A    between atoms: C_14  and  C_15 
REMARK   12  A    between atoms: C_19  and  N_20 
ROOT
ATOM      1  N   UNL d   1      26.184 -15.107  -2.154  0.00  0.00    -0.171 N 
ATOM      2  C   UNL d   1      27.114 -15.350  -1.154  0.00  0.00     0.725 A 
ATOM      3  N   UNL d   1      28.315 -15.542  -1.705  0.00  0.00    -0.042 NA
ATOM      4  C   UNL d   1      28.133 -15.449  -3.069  0.00  0.00     0.186 A 
ATOM      5  C   UNL d   1      26.828 -15.181  -3.363  0.00  0.00     0.166 A 
ATOM      6  C   UNL d   1      26.340 -15.042  -4.691  0.00  0.00     0.280 A 
ATOM      7  O   UNL d   1      25.175 -14.803  -5.007  0.00  0.00    -0.265 OA
ATOM      8  N   UNL d   1      27.313 -15.199  -5.638  0.00  0.00    -0.273 N 
ATOM      9  C   UNL d   1      28.645 -15.459  -5.420  0.00  0.00     0.330 A 
ATOM     10  O   UNL d   1      29.385 -15.561  -6.400  0.00  0.00    -0.246 OA
ATOM     11  N   UNL d   1      29.068 -15.589  -4.092  0.00  0.00    -0.286 N 
ATOM     12  C   UNL d   1      30.470 -15.859  -3.849  0.00  0.00     0.163 C 
ATOM     13  H   UNL d   1      27.029 -15.108  -6.601  0.00  0.00     0.173 HD
ENDROOT
BRANCH   2  14
ATOM     14  N   UNL d   1      26.784 -15.373   0.182  0.00  0.00    -0.107 N 
ATOM     15  H   UNL d   1      26.649 -16.297   0.590  0.00  0.00     0.208 HD
BRANCH  14  16
ATOM     16  N   UNL d   1      26.587 -14.250   0.951  0.00  0.00    -0.172 NA
ATOM     17  C   UNL d   1      27.590 -13.614   1.466  0.00  0.00     0.150 C 
BRANCH  17  18
ATOM     18  C   UNL d   1      27.366 -12.336   2.212  0.00  0.00    -0.015 A 
ATOM     19  C   UNL d   1      28.120 -12.068   3.363  0.00  0.00     0.013 A 
ATOM     20  C   UNL d   1      27.953 -10.864   4.066  0.00  0.00     0.003 A 
ATOM     21  C   UNL d   1      27.021  -9.922   3.635  0.00  0.00     0.036 A 
ATOM     22  C   UNL d   1      26.260 -10.192   2.494  0.00  0.00     0.103 A 
ATOM     23  C   UNL d   1      26.431 -11.390   1.771  0.00  0.00     0.049 A 
BRANCH  22  24
ATOM     24  N   UNL d   1      25.240  -9.221   2.080  0.00  0.00    -0.116 N 
ATOM     25  O   UNL d   1      24.052  -9.575   2.104  0.00  0.00    -0.532 OA
ATOM     26  O   UNL d   1      25.634  -8.113   1.704  0.00  0.00    -0.532 OA
ENDBRANCH  22  24
ENDBRANCH  17  18
ENDBRANCH  14  16
ENDBRANCH   2  14
BRANCH   1  27
ATOM     27  C   UNL d   1      24.764 -14.865  -2.029  0.00  0.00     0.148 C 
BRANCH  27  28
ATOM     28  C   UNL d   1      24.084 -15.982  -1.256  0.00  0.00     0.021 C 
BRANCH  28  29
ATOM     29  C   UNL d   1      24.664 -17.322  -1.669  0.00  0.00     0.002 C 
BRANCH  29  30
ATOM     30  C   UNL d   1      23.997 -18.436  -0.885  0.00  0.00     0.000 C 
BRANCH  30  31
ATOM     31  C   UNL d   1      22.559 -18.068  -0.572  0.00  0.00     0.000 C 
BRANCH  31  32
ATOM     32  C   UNL d   1      21.753 -19.317  -0.267  0.00  0.00     0.000 C 
BRANCH  32  33
ATOM     33  C   UNL d   1      20.376 -19.211  -0.900  0.00  0.00    -0.000 C 
BRANCH  33  34
ATOM     34  C   UNL d   1      19.352 -19.964  -0.064  0.00  0.00    -0.005 C 
ATOM     35  C   UNL d   1      19.617 -19.753   1.412  0.00  0.00     0.005 C 
ENDBRANCH  33  34
ENDBRANCH  32  33
ENDBRANCH  31  32
ENDBRANCH  30  31
ENDBRANCH  29  30
ENDBRANCH  28  29
ENDBRANCH  27  28
ENDBRANCH   1  27
TORSDOF 12
ENDMDL
MODEL 3
REMARK VINA RESULT:    -9.329      2.510      2.989
REMARK INTER + INTRA:         -14.027
REMARK INTER:                 -12.909
REMARK INTRA:                  -1.118
REMARK CONF_INDEPENDENT:        3.580
REMARK UNBOUND:                -1.118
REMARK  12 active torsions:
REMARK  status: ('A' for Active; 'I' for Inactive)
REMARK    1  A    between atoms: C_2  and  C_3 
REMARK    2  A    between atoms: C_3  and  C_4 
REMARK    3  A    between atoms: C_4  and  C_5 
REMARK    4  A    between atoms: C_5  and  C_6 
REMARK    5  A    between atoms: C_6  and  C_7 
REMARK    6  A    between atoms: C_7  and  C_8 
REMARK    7  A    between atoms: C_8  and  C_9 
REMARK    8  A    between atoms: C_9  and  N_10 
REMARK    9  A    between atoms: C_11  and  N_12 
REMARK   10  A    between atoms: N_12  and  N_13 
REMARK   11  A    between atoms: C_14  and  C_15 
REMARK   12  A    between atoms: C_19  and  N_20 
ROOT
ATOM      1  N   UNL d   1      26.141 -15.005  -1.755  0.00  0.00    -0.171 N 
ATOM      2  C   UNL d   1      26.966 -14.708  -0.681  0.00  0.00     0.725 A 
ATOM      3  N   UNL d   1      27.264 -13.407  -0.699  0.00  0.00    -0.042 NA
ATOM      4  C   UNL d   1      26.645 -12.884  -1.815  0.00  0.00     0.186 A 
ATOM      5  C   UNL d   1      25.949 -13.853  -2.477  0.00  0.00     0.166 A 
ATOM      6  C   UNL d   1      25.218 -13.611  -3.672  0.00  0.00     0.280 A 
ATOM      7  O   UNL d   1      24.577 -14.449  -4.305  0.00  0.00    -0.265 OA
ATOM      8  N   UNL d   1      25.282 -12.309  -4.083  0.00  0.00    -0.273 N 
ATOM      9  C   UNL d   1      25.952 -11.279  -3.467  0.00  0.00     0.330 A 
ATOM     10  O   UNL d   1      25.892 -10.159  -3.978  0.00  0.00    -0.246 OA
ATOM     11  N   UNL d   1      26.656 -11.577  -2.295  0.00  0.00    -0.286 N 
ATOM     12  C   UNL d   1      27.363 -10.499  -1.635  0.00  0.00     0.163 C 
ATOM     13  H   UNL d   1      24.780 -12.073  -4.925  0.00  0.00     0.173 HD
ENDROOT
BRANCH   2  14
ATOM     14  N   UNL d   1      27.375 -15.657   0.229  0.00  0.00    -0.107 N 
ATOM     15  H   UNL d   1      27.461 -16.608  -0.129  0.00  0.00     0.208 HD
BRANCH  14  16
ATOM     16  N   UNL d   1      27.618 -15.401   1.558  0.00  0.00    -0.172 NA
ATOM     17  C   UNL d   1      27.847 -14.195   1.970  0.00  0.00     0.150 C 
BRANCH  17  18
ATOM     18  C   UNL d   1      28.005 -13.920   3.434  0.00  0.00    -0.015 A 
ATOM     19  C   UNL d   1      28.156 -14.992   4.325  0.00  0.00     0.013 A 
ATOM     20  C   UNL d   1      28.336 -14.762   5.698  0.00  0.00     0.003 A 
ATOM     21  C   UNL d   1      28.353 -13.461   6.198  0.00  0.00     0.036 A 
ATOM     22  C   UNL d   1      28.190 -12.391   5.313  0.00  0.00     0.103 A 
ATOM     23  C   UNL d   1      28.025 -12.610   3.930  0.00  0.00     0.049 A 
BRANCH  22  24
ATOM     24  N   UNL d   1      28.149 -11.028   5.853  0.00  0.00    -0.116 N 
ATOM     25  O   UNL d   1      27.779 -10.113   5.104  0.00  0.00    -0.532 OA
ATOM     26  O   UNL d   1      28.517 -10.872   7.023  0.00  0.00    -0.532 OA
ENDBRANCH  22  24
ENDBRANCH  17  18
ENDBRANCH  14  16
ENDBRANCH   2  14
BRANCH   1  27
ATOM     27  C   UNL d   1      25.586 -16.282  -2.145  0.00  0.00     0.148 C 
BRANCH  27  28
ATOM     28  C   UNL d   1      24.208 -16.488  -1.538  0.00  0.00     0.021 C 
BRANCH  28  29
ATOM     29  C   UNL d   1      24.340 -17.077  -0.147  0.00  0.00     0.002 C 
BRANCH  29  30
ATOM     30  C   UNL d   1      24.095 -18.573  -0.195  0.00  0.00     0.000 C 
BRANCH  30  31
ATOM     31  C   UNL d   1      22.893 -18.879  -1.068  0.00  0.00     0.000 C 
BRANCH  31  32
ATOM     32  C   UNL d   1      21.722 -19.323  -0.210  0.00  0.00     0.000 C 
BRANCH  32  33
ATOM     33  C   UNL d   1      20.414 -18.966  -0.897  0.00  0.00    -0.000 C 
BRANCH  33  34
ATOM     34  C   UNL d   1      19.239 -19.558  -0.134  0.00  0.00    -0.005 C 
ATOM     35  C   UNL d   1      19.733 -20.414   1.015  0.00  0.00     0.005 C 
ENDBRANCH  33  34
ENDBRANCH  32  33
ENDBRANCH  31  32
ENDBRANCH  30  31
ENDBRANCH  29  30
ENDBRANCH  28  29
ENDBRANCH  27  28
ENDBRANCH   1  27
TORSDOF 12
ENDMDL
MODEL 4
REMARK VINA RESULT:    -9.220      1.892      2.230
REMARK INTER + INTRA:         -13.752
REMARK INTER:                 -12.800
REMARK INTRA:                  -0.952
REMARK CONF_INDEPENDENT:        3.580
REMARK UNBOUND:                -0.952
REMARK  12 active torsions:
REMARK  status: ('A' for Active; 'I' for Inactive)
REMARK    1  A    between atoms: C_2  and  C_3 
REMARK    2  A    between atoms: C_3  and  C_4 
REMARK    3  A    between atoms: C_4  and  C_5 
REMARK    4  A    between atoms: C_5  and  C_6 
REMARK    5  A    between atoms: C_6  and  C_7 
REMARK    6  A    between atoms: C_7  and  C_8 
REMARK    7  A    between atoms: C_8  and  C_9 
REMARK    8  A    between atoms: C_9  and  N_10 
REMARK    9  A    between atoms: C_11  and  N_12 
REMARK   10  A    between atoms: N_12  and  N_13 
REMARK   11  A    between atoms: C_14  and  C_15 
REMARK   12  A    between atoms: C_19  and  N_20 
ROOT
ATOM      1  N   UNL d   1      26.396 -15.045  -1.455  0.00  0.00    -0.171 N 
ATOM      2  C   UNL d   1      26.826 -14.125  -0.512  0.00  0.00     0.725 A 
ATOM      3  N   UNL d   1      26.802 -12.901  -1.045  0.00  0.00    -0.042 NA
ATOM      4  C   UNL d   1      26.382 -13.057  -2.349  0.00  0.00     0.186 A 
ATOM      5  C   UNL d   1      26.127 -14.370  -2.619  0.00  0.00     0.166 A 
ATOM      6  C   UNL d   1      25.689 -14.835  -3.888  0.00  0.00     0.280 A 
ATOM      7  O   UNL d   1      25.448 -16.006  -4.181  0.00  0.00    -0.265 OA
ATOM      8  N   UNL d   1      25.546 -13.832  -4.806  0.00  0.00    -0.273 N 
ATOM      9  C   UNL d   1      25.773 -12.490  -4.607  0.00  0.00     0.330 A 
ATOM     10  O   UNL d   1      25.582 -11.723  -5.552  0.00  0.00    -0.246 OA
ATOM     11  N   UNL d   1      26.206 -12.091  -3.338  0.00  0.00    -0.286 N 
ATOM     12  C   UNL d   1      26.445 -10.680  -3.115  0.00  0.00     0.163 C 
ATOM     13  H   UNL d   1      25.234 -14.099  -5.727  0.00  0.00     0.173 HD
ENDROOT
BRANCH   2  14
ATOM     14  N   UNL d   1      27.202 -14.483   0.763  0.00  0.00    -0.107 N 
ATOM     15  H   UNL d   1      27.489 -15.454   0.885  0.00  0.00     0.208 HD
BRANCH  14  16
ATOM     16  N   UNL d   1      27.165 -13.640   1.848  0.00  0.00    -0.172 NA
ATOM     17  C   UNL d   1      28.258 -13.191   2.377  0.00  0.00     0.150 C 
BRANCH  17  18
ATOM     18  C   UNL d   1      28.199 -12.192   3.491  0.00  0.00    -0.015 A 
ATOM     19  C   UNL d   1      28.687 -12.541   4.757  0.00  0.00     0.013 A 
ATOM     20  C   UNL d   1      28.671 -11.614   5.812  0.00  0.00     0.003 A 
ATOM     21  C   UNL d   1      28.155 -10.335   5.617  0.00  0.00     0.036 A 
ATOM     22  C   UNL d   1      27.656  -9.988   4.358  0.00  0.00     0.103 A 
ATOM     23  C   UNL d   1      27.682 -10.906   3.287  0.00  0.00     0.049 A 
BRANCH  22  24
ATOM     24  N   UNL d   1      27.060  -8.660   4.176  0.00  0.00    -0.116 N 
ATOM     25  O   UNL d   1      27.348  -7.773   4.993  0.00  0.00    -0.532 OA
ATOM     26  O   UNL d   1      26.281  -8.515   3.228  0.00  0.00    -0.532 OA
ENDBRANCH  22  24
ENDBRANCH  17  18
ENDBRANCH  14  16
ENDBRANCH   2  14
BRANCH   1  27
ATOM     27  C   UNL d   1      26.277 -16.481  -1.330  0.00  0.00     0.148 C 
BRANCH  27  28
ATOM     28  C   UNL d   1      25.356 -16.856  -0.182  0.00  0.00     0.021 C 
BRANCH  28  29
ATOM     29  C   UNL d   1      24.582 -18.113  -0.530  0.00  0.00     0.002 C 
BRANCH  29  30
ATOM     30  C   UNL d   1      23.095 -17.868  -0.360  0.00  0.00     0.000 C 
BRANCH  30  31
ATOM     31  C   UNL d   1      22.302 -18.860  -1.188  0.00  0.00     0.000 C 
BRANCH  31  32
ATOM     32  C   UNL d   1      20.819 -18.719  -0.896  0.00  0.00     0.000 C 
BRANCH  32  33
ATOM     33  C   UNL d   1      20.411 -19.702   0.189  0.00  0.00    -0.000 C 
BRANCH  33  34
ATOM     34  C   UNL d   1      19.003 -20.216  -0.067  0.00  0.00    -0.005 C 
ATOM     35  C   UNL d   1      18.425 -20.823   1.195  0.00  0.00     0.005 C 
ENDBRANCH  33  34
ENDBRANCH  32  33
ENDBRANCH  31  32
ENDBRANCH  30  31
ENDBRANCH  29  30
ENDBRANCH  28  29
ENDBRANCH  27  28
ENDBRANCH   1  27
TORSDOF 12
ENDMDL
MODEL 5
REMARK VINA RESULT:    -8.787      3.540      4.769
REMARK INTER + INTRA:         -13.375
REMARK INTER:                 -12.366
REMARK INTRA:                  -1.008
REMARK CONF_INDEPENDENT:        3.580
REMARK UNBOUND:                -1.008
REMARK  12 active torsions:
REMARK  status: ('A' for Active; 'I' for Inactive)
REMARK    1  A    between atoms: C_2  and  C_3 
REMARK    2  A    between atoms: C_3  and  C_4 
REMARK    3  A    between atoms: C_4  and  C_5 
REMARK    4  A    between atoms: C_5  and  C_6 
REMARK    5  A    between atoms: C_6  and  C_7 
REMARK    6  A    between atoms: C_7  and  C_8 
REMARK    7  A    between atoms: C_8  and  C_9 
REMARK    8  A    between atoms: C_9  and  N_10 
REMARK    9  A    between atoms: C_11  and  N_12 
REMARK   10  A    between atoms: N_12  and  N_13 
REMARK   11  A    between atoms: C_14  and  C_15 
REMARK   12  A    between atoms: C_19  and  N_20 
ROOT
ATOM      1  N   UNL d   1      26.160 -12.748  -4.744  0.00  0.00    -0.171 N 
ATOM      2  C   UNL d   1      26.264 -11.367  -4.680  0.00  0.00     0.725 A 
ATOM      3  N   UNL d   1      27.348 -10.973  -5.351  0.00  0.00    -0.042 NA
ATOM      4  C   UNL d   1      27.952 -12.121  -5.818  0.00  0.00     0.186 A 
ATOM      5  C   UNL d   1      27.235 -13.223  -5.453  0.00  0.00     0.166 A 
ATOM      6  C   UNL d   1      27.621 -14.551  -5.784  0.00  0.00     0.280 A 
ATOM      7  O   UNL d   1      27.011 -15.575  -5.479  0.00  0.00    -0.265 OA
ATOM      8  N   UNL d   1      28.781 -14.606  -6.507  0.00  0.00    -0.273 N 
ATOM      9  C   UNL d   1      29.550 -13.544  -6.918  0.00  0.00     0.330 A 
ATOM     10  O   UNL d   1      30.566 -13.781  -7.574  0.00  0.00    -0.246 OA
ATOM     11  N   UNL d   1      29.122 -12.260  -6.561  0.00  0.00    -0.286 N 
ATOM     12  C   UNL d   1      29.923 -11.133  -6.991  0.00  0.00     0.163 C 
ATOM     13  H   UNL d   1      29.106 -15.522  -6.775  0.00  0.00     0.173 HD
ENDROOT
BRANCH   2  14
ATOM     14  N   UNL d   1      25.352 -10.582  -4.011  0.00  0.00    -0.107 N 
ATOM     15  H   UNL d   1      24.408 -10.571  -4.397  0.00  0.00     0.208 HD
BRANCH  14  16
ATOM     16  N   UNL d   1      25.654  -9.802  -2.919  0.00  0.00    -0.172 NA
ATOM     17  C   UNL d   1      25.759  -8.517  -3.031  0.00  0.00     0.150 C 
BRANCH  17  18
ATOM     18  C   UNL d   1      25.984  -7.673  -1.814  0.00  0.00    -0.015 A 
ATOM     19  C   UNL d   1      26.372  -6.335  -1.965  0.00  0.00     0.013 A 
ATOM     20  C   UNL d   1      26.561  -5.513  -0.843  0.00  0.00     0.003 A 
ATOM     21  C   UNL d   1      26.379  -6.021   0.441  0.00  0.00     0.036 A 
ATOM     22  C   UNL d   1      26.004  -7.360   0.595  0.00  0.00     0.103 A 
ATOM     23  C   UNL d   1      25.796  -8.190  -0.526  0.00  0.00     0.049 A 
BRANCH  22  24
ATOM     24  N   UNL d   1      25.872  -7.905   1.950  0.00  0.00    -0.116 N 
ATOM     25  O   UNL d   1      25.152  -8.901   2.112  0.00  0.00    -0.532 OA
ATOM     26  O   UNL d   1      26.468  -7.315   2.858  0.00  0.00    -0.532 OA
ENDBRANCH  22  24
ENDBRANCH  17  18
ENDBRANCH  14  16
ENDBRANCH   2  14
BRANCH   1  27
ATOM     27  C   UNL d   1      25.162 -13.610  -4.150  0.00  0.00     0.148 C 
BRANCH  27  28
ATOM     28  C   UNL d   1      25.494 -13.912  -2.699  0.00  0.00     0.021 C 
BRANCH  28  29
ATOM     29  C   UNL d   1      25.723 -15.401  -2.521  0.00  0.00     0.002 C 
BRANCH  29  30
ATOM     30  C   UNL d   1      24.956 -15.899  -1.311  0.00  0.00     0.000 C 
BRANCH  30  31
ATOM     31  C   UNL d   1      24.242 -17.196  -1.641  0.00  0.00     0.000 C 
BRANCH  31  32
ATOM     32  C   UNL d   1      23.886 -17.937  -0.365  0.00  0.00     0.000 C 
BRANCH  32  33
ATOM     33  C   UNL d   1      23.084 -19.185  -0.699  0.00  0.00    -0.000 C 
BRANCH  33  34
ATOM     34  C   UNL d   1      21.618 -18.832  -0.900  0.00  0.00    -0.005 C 
ATOM     35  C   UNL d   1      20.791 -19.326   0.269  0.00  0.00     0.005 C 
ENDBRANCH  33  34
ENDBRANCH  32  33
ENDBRANCH  31  32
ENDBRANCH  30  31
ENDBRANCH  29  30
ENDBRANCH  28  29
ENDBRANCH  27  28
ENDBRANCH   1  27
TORSDOF 12
ENDMDL
MODEL 6
REMARK VINA RESULT:    -8.283      1.456      2.364
REMARK INTER + INTRA:         -13.299
REMARK INTER:                 -11.863
REMARK INTRA:                  -1.436
REMARK CONF_INDEPENDENT:        3.580
REMARK UNBOUND:                -1.436
REMARK  12 active torsions:
REMARK  status: ('A' for Active; 'I' for Inactive)
REMARK    1  A    between atoms: C_2  and  C_3 
REMARK    2  A    between atoms: C_3  and  C_4 
REMARK    3  A    between atoms: C_4  and  C_5 
REMARK    4  A    between atoms: C_5  and  C_6 
REMARK    5  A    between atoms: C_6  and  C_7 
REMARK    6  A    between atoms: C_7  and  C_8 
REMARK    7  A    between atoms: C_8  and  C_9 
REMARK    8  A    between atoms: C_9  and  N_10 
REMARK    9  A    between atoms: C_11  and  N_12 
REMARK   10  A    between atoms: N_12  and  N_13 
REMARK   11  A    between atoms: C_14  and  C_15 
REMARK   12  A    between atoms: C_19  and  N_20 
ROOT
ATOM      1  N   UNL d   1      27.872 -15.919  -1.164  0.00  0.00    -0.171 N 
ATOM      2  C   UNL d   1      26.885 -15.042  -0.742  0.00  0.00     0.725 A 
ATOM      3  N   UNL d   1      26.424 -14.357  -1.792  0.00  0.00    -0.042 NA
ATOM      4  C   UNL d   1      27.151 -14.787  -2.882  0.00  0.00     0.186 A 
ATOM      5  C   UNL d   1      28.047 -15.748  -2.514  0.00  0.00     0.166 A 
ATOM      6  C   UNL d   1      28.943 -16.370  -3.425  0.00  0.00     0.280 A 
ATOM      7  O   UNL d   1      29.768 -17.239  -3.144  0.00  0.00    -0.265 OA
ATOM      8  N   UNL d   1      28.809 -15.909  -4.706  0.00  0.00    -0.273 N 
ATOM      9  C   UNL d   1      27.927 -14.954  -5.153  0.00  0.00     0.330 A 
ATOM     10  O   UNL d   1      27.941 -14.667  -6.351  0.00  0.00    -0.246 OA
ATOM     11  N   UNL d   1      27.071 -14.374  -4.211  0.00  0.00    -0.286 N 
ATOM     12  C   UNL d   1      26.135 -13.370  -4.671  0.00  0.00     0.163 C 
ATOM     13  H   UNL d   1      29.417 -16.315  -5.401  0.00  0.00     0.173 HD
ENDROOT
BRANCH   2  14
ATOM     14  N   UNL d   1      26.486 -14.943   0.571  0.00  0.00    -0.107 N 
ATOM     15  H   UNL d   1      25.899 -15.702   0.916  0.00  0.00     0.208 HD
BRANCH  14  16
ATOM     16  N   UNL d   1      26.789 -13.885   1.396  0.00  0.00    -0.172 NA
ATOM     17  C   UNL d   1      26.520 -12.669   1.041  0.00  0.00     0.150 C 
BRANCH  17  18
ATOM     18  C   UNL d   1      26.760 -11.538   1.992  0.00  0.00    -0.015 A 
ATOM     19  C   UNL d   1      27.495 -11.767   3.164  0.00  0.00     0.013 A 
ATOM     20  C   UNL d   1      27.761 -10.719   4.060  0.00  0.00     0.003 A 
ATOM     21  C   UNL d   1      27.284  -9.436   3.803  0.00  0.00     0.036 A 
ATOM     22  C   UNL d   1      26.539  -9.207   2.641  0.00  0.00     0.103 A 
ATOM     23  C   UNL d   1      26.280 -10.249   1.727  0.00  0.00     0.049 A 
BRANCH  22  24
ATOM     24  N   UNL d   1      25.990  -7.868   2.407  0.00  0.00    -0.116 N 
ATOM     25  O   UNL d   1      26.335  -6.953   3.168  0.00  0.00    -0.532 OA
ATOM     26  O   UNL d   1      25.189  -7.740   1.475  0.00  0.00    -0.532 OA
ENDBRANCH  22  24
ENDBRANCH  17  18
ENDBRANCH  14  16
ENDBRANCH   2  14
BRANCH   1  27
ATOM     27  C   UNL d   1      28.661 -16.840  -0.376  0.00  0.00     0.148 C 
BRANCH  27  28
ATOM     28  C   UNL d   1      27.773 -17.712   0.496  0.00  0.00     0.021 C 
BRANCH  28  29
ATOM     29  C   UNL d   1      26.676 -18.337  -0.346  0.00  0.00     0.002 C 
BRANCH  29  30
ATOM     30  C   UNL d   1      25.320 -17.997   0.242  0.00  0.00     0.000 C 
BRANCH  30  31
ATOM     31  C   UNL d   1      24.239 -18.154  -0.810  0.00  0.00     0.000 C 
BRANCH  31  32
ATOM     32  C   UNL d   1      23.022 -17.328  -0.438  0.00  0.00     0.000 C 
BRANCH  32  33
ATOM     33  C   UNL d   1      21.946 -18.228   0.148  0.00  0.00    -0.000 C 
BRANCH  33  34
ATOM     34  C   UNL d   1      21.334 -19.097  -0.940  0.00  0.00    -0.005 C 
ATOM     35  C   UNL d   1      20.012 -19.672  -0.474  0.00  0.00     0.005 C 
ENDBRANCH  33  34
ENDBRANCH  32  33
ENDBRANCH  31  32
ENDBRANCH  30  31
ENDBRANCH  29  30
ENDBRANCH  28  29
ENDBRANCH  27  28
ENDBRANCH   1  27
TORSDOF 12
ENDMDL
MODEL 7
REMARK VINA RESULT:    -8.264      1.911      2.204
REMARK INTER + INTRA:         -13.187
REMARK INTER:                 -11.844
REMARK INTRA:                  -1.343
REMARK CONF_INDEPENDENT:        3.580
REMARK UNBOUND:                -1.343
REMARK  12 active torsions:
REMARK  status: ('A' for Active; 'I' for Inactive)
REMARK    1  A    between atoms: C_2  and  C_3 
REMARK    2  A    between atoms: C_3  and  C_4 
REMARK    3  A    between atoms: C_4  and  C_5 
REMARK    4  A    between atoms: C_5  and  C_6 
REMARK    5  A    between atoms: C_6  and  C_7 
REMARK    6  A    between atoms: C_7  and  C_8 
REMARK    7  A    between atoms: C_8  and  C_9 
REMARK    8  A    between atoms: C_9  and  N_10 
REMARK    9  A    between atoms: C_11  and  N_12 
REMARK   10  A    between atoms: N_12  and  N_13 
REMARK   11  A    between atoms: C_14  and  C_15 
REMARK   12  A    between atoms: C_19  and  N_20 
ROOT
ATOM      1  N   UNL d   1      27.131 -15.721  -1.011  0.00  0.00    -0.171 N 
ATOM      2  C   UNL d   1      28.460 -15.670  -0.621  0.00  0.00     0.725 A 
ATOM      3  N   UNL d   1      29.227 -15.456  -1.692  0.00  0.00    -0.042 NA
ATOM      4  C   UNL d   1      28.374 -15.401  -2.774  0.00  0.00     0.186 A 
ATOM      5  C   UNL d   1      27.080 -15.562  -2.373  0.00  0.00     0.166 A 
ATOM      6  C   UNL d   1      25.979 -15.563  -3.272  0.00  0.00     0.280 A 
ATOM      7  O   UNL d   1      24.796 -15.705  -2.962  0.00  0.00    -0.265 OA
ATOM      8  N   UNL d   1      26.351 -15.381  -4.575  0.00  0.00    -0.273 N 
ATOM      9  C   UNL d   1      27.628 -15.202  -5.053  0.00  0.00     0.330 A 
ATOM     10  O   UNL d   1      27.778 -15.042  -6.265  0.00  0.00    -0.246 OA
ATOM     11  N   UNL d   1      28.673 -15.214  -4.122  0.00  0.00    -0.286 N 
ATOM     12  C   UNL d   1      30.022 -15.023  -4.612  0.00  0.00     0.163 C 
ATOM     13  H   UNL d   1      25.613 -15.368  -5.262  0.00  0.00     0.173 HD
ENDROOT
BRANCH   2  14
ATOM     14  N   UNL d   1      28.860 -15.823   0.687  0.00  0.00    -0.107 N 
ATOM     15  H   UNL d   1      29.165 -16.759   0.952  0.00  0.00     0.208 HD
BRANCH  14  16
ATOM     16  N   UNL d   1      28.822 -14.824   1.631  0.00  0.00    -0.172 NA
ATOM     17  C   UNL d   1      28.005 -13.826   1.508  0.00  0.00     0.150 C 
BRANCH  17  18
ATOM     18  C   UNL d   1      27.902 -12.802   2.595  0.00  0.00    -0.015 A 
ATOM     19  C   UNL d   1      27.379 -11.535   2.302  0.00  0.00     0.013 A 
ATOM     20  C   UNL d   1      27.243 -10.565   3.308  0.00  0.00     0.003 A 
ATOM     21  C   UNL d   1      27.640 -10.845   4.614  0.00  0.00     0.036 A 
ATOM     22  C   UNL d   1      28.173 -12.104   4.906  0.00  0.00     0.103 A 
ATOM     23  C   UNL d   1      28.299 -13.091   3.907  0.00  0.00     0.049 A 
BRANCH  22  24
ATOM     24  N   UNL d   1      28.644 -12.371   6.270  0.00  0.00    -0.116 N 
ATOM     25  O   UNL d   1      29.856 -12.566   6.442  0.00  0.00    -0.532 OA
ATOM     26  O   UNL d   1      27.792 -12.415   7.164  0.00  0.00    -0.532 OA
ENDBRANCH  22  24
ENDBRANCH  17  18
ENDBRANCH  14  16
ENDBRANCH   2  14
BRANCH   1  27
ATOM     27  C   UNL d   1      25.957 -15.951  -0.198  0.00  0.00     0.148 C 
BRANCH  27  28
ATOM     28  C   UNL d   1      25.875 -17.402   0.245  0.00  0.00     0.021 C 
BRANCH  28  29
ATOM     29  C   UNL d   1      24.544 -17.996  -0.176  0.00  0.00     0.002 C 
BRANCH  29  30
ATOM     30  C   UNL d   1      23.579 -16.886  -0.546  0.00  0.00     0.000 C 
BRANCH  30  31
ATOM     31  C   UNL d   1      22.153 -17.402  -0.523  0.00  0.00     0.000 C 
BRANCH  31  32
ATOM     32  C   UNL d   1      22.134 -18.900  -0.764  0.00  0.00     0.000 C 
BRANCH  32  33
ATOM     33  C   UNL d   1      20.699 -19.402  -0.782  0.00  0.00    -0.000 C 
BRANCH  33  34
ATOM     34  C   UNL d   1      20.350 -20.049   0.549  0.00  0.00    -0.005 C 
ATOM     35  C   UNL d   1      18.848 -20.191   0.688  0.00  0.00     0.005 C 
ENDBRANCH  33  34
ENDBRANCH  32  33
ENDBRANCH  31  32
ENDBRANCH  30  31
ENDBRANCH  29  30
ENDBRANCH  28  29
ENDBRANCH  27  28
ENDBRANCH   1  27
TORSDOF 12
ENDMDL
MODEL 8
REMARK VINA RESULT:    -8.094      2.956      9.486
REMARK INTER + INTRA:         -12.947
REMARK INTER:                 -11.674
REMARK INTRA:                  -1.274
REMARK CONF_INDEPENDENT:        3.580
REMARK UNBOUND:                -1.274
REMARK  12 active torsions:
REMARK  status: ('A' for Active; 'I' for Inactive)
REMARK    1  A    between atoms: C_2  and  C_3 
REMARK    2  A    between atoms: C_3  and  C_4 
REMARK    3  A    between atoms: C_4  and  C_5 
REMARK    4  A    between atoms: C_5  and  C_6 
REMARK    5  A    between atoms: C_6  and  C_7 
REMARK    6  A    between atoms: C_7  and  C_8 
REMARK    7  A    between atoms: C_8  and  C_9 
REMARK    8  A    between atoms: C_9  and  N_10 
REMARK    9  A    between atoms: C_11  and  N_12 
REMARK   10  A    between atoms: N_12  and  N_13 
REMARK   11  A    between atoms: C_14  and  C_15 
REMARK   12  A    between atoms: C_19  and  N_20 
ROOT
ATOM      1  N   UNL d   1      28.204 -13.135   3.986  0.00  0.00    -0.171 N 
ATOM      2  C   UNL d   1      28.256 -13.530   2.658  0.00  0.00     0.725 A 
ATOM      3  N   UNL d   1      28.018 -12.476   1.874  0.00  0.00    -0.042 NA
ATOM      4  C   UNL d   1      27.783 -11.411   2.719  0.00  0.00     0.186 A 
ATOM      5  C   UNL d   1      27.894 -11.799   4.022  0.00  0.00     0.166 A 
ATOM      6  C   UNL d   1      27.694 -10.917   5.118  0.00  0.00     0.280 A 
ATOM      7  O   UNL d   1      27.782 -11.217   6.309  0.00  0.00    -0.265 OA
ATOM      8  N   UNL d   1      27.385  -9.643   4.730  0.00  0.00    -0.273 N 
ATOM      9  C   UNL d   1      27.266  -9.176   3.443  0.00  0.00     0.330 A 
ATOM     10  O   UNL d   1      26.988  -7.987   3.279  0.00  0.00    -0.246 OA
ATOM     11  N   UNL d   1      27.471 -10.091   2.404  0.00  0.00    -0.286 N 
ATOM     12  C   UNL d   1      27.351  -9.611   1.043  0.00  0.00     0.163 C 
ATOM     13  H   UNL d   1      27.234  -8.968   5.464  0.00  0.00     0.173 HD
ENDROOT
BRANCH   2  14
ATOM     14  N   UNL d   1      28.520 -14.825   2.274  0.00  0.00    -0.107 N 
ATOM     15  H   UNL d   1      29.325 -15.265   2.719  0.00  0.00     0.208 HD
BRANCH  14  16
ATOM     16  N   UNL d   1      27.805 -15.512   1.321  0.00  0.00    -0.172 NA
ATOM     17  C   UNL d   1      26.875 -14.925   0.638  0.00  0.00     0.150 C 
BRANCH  17  18
ATOM     18  C   UNL d   1      26.179 -15.656  -0.467  0.00  0.00    -0.015 A 
ATOM     19  C   UNL d   1      25.505 -16.852  -0.185  0.00  0.00     0.013 A 
ATOM     20  C   UNL d   1      24.819 -17.544  -1.197  0.00  0.00     0.003 A 
ATOM     21  C   UNL d   1      24.811 -17.056  -2.502  0.00  0.00     0.036 A 
ATOM     22  C   UNL d   1      25.493 -15.870  -2.788  0.00  0.00     0.103 A 
ATOM     23  C   UNL d   1      26.172 -15.159  -1.777  0.00  0.00     0.049 A 
BRANCH  22  24
ATOM     24  N   UNL d   1      25.530 -15.394  -4.175  0.00  0.00    -0.116 N 
ATOM     25  O   UNL d   1      26.309 -15.950  -4.964  0.00  0.00    -0.532 OA
ATOM     26  O   UNL d   1      24.798 -14.442  -4.466  0.00  0.00    -0.532 OA
ENDBRANCH  22  24
ENDBRANCH  17  18
ENDBRANCH  14  16
ENDBRANCH   2  14
BRANCH   1  27
ATOM     27  C   UNL d   1      28.380 -13.938   5.176  0.00  0.00     0.148 C 
BRANCH  27  28
ATOM     28  C   UNL d   1      29.846 -14.029   5.563  0.00  0.00     0.021 C 
BRANCH  28  29
ATOM     29  C   UNL d   1      30.318 -12.697   6.115  0.00  0.00     0.002 C 
BRANCH  29  30
ATOM     30  C   UNL d   1      30.810 -12.875   7.538  0.00  0.00     0.000 C 
BRANCH  30  31
ATOM     31  C   UNL d   1      30.278 -14.171   8.119  0.00  0.00     0.000 C 
BRANCH  31  32
ATOM     32  C   UNL d   1      28.901 -13.950   8.718  0.00  0.00     0.000 C 
BRANCH  32  33
ATOM     33  C   UNL d   1      28.744 -14.790   9.975  0.00  0.00    -0.000 C 
BRANCH  33  34
ATOM     34  C   UNL d   1      28.754 -13.901  11.209  0.00  0.00    -0.005 C 
ATOM     35  C   UNL d   1      27.851 -12.702  11.002  0.00  0.00     0.005 C 
ENDBRANCH  33  34
ENDBRANCH  32  33
ENDBRANCH  31  32
ENDBRANCH  30  31
ENDBRANCH  29  30
ENDBRANCH  28  29
ENDBRANCH  27  28
ENDBRANCH   1  27
TORSDOF 12
ENDMDL
MODEL 9
REMARK VINA RESULT:    -8.082      1.975      7.491
REMARK INTER + INTRA:         -13.450
REMARK INTER:                 -11.661
REMARK INTRA:                  -1.789
REMARK CONF_INDEPENDENT:        3.580
REMARK UNBOUND:                -1.789
REMARK  12 active torsions:
REMARK  status: ('A' for Active; 'I' for Inactive)
REMARK    1  A    between atoms: C_2  and  C_3 
REMARK    2  A    between atoms: C_3  and  C_4 
REMARK    3  A    between atoms: C_4  and  C_5 
REMARK    4  A    between atoms: C_5  and  C_6 
REMARK    5  A    between atoms: C_6  and  C_7 
REMARK    6  A    between atoms: C_7  and  C_8 
REMARK    7  A    between atoms: C_8  and  C_9 
REMARK    8  A    between atoms: C_9  and  N_10 
REMARK    9  A    between atoms: C_11  and  N_12 
REMARK   10  A    between atoms: N_12  and  N_13 
REMARK   11  A    between atoms: C_14  and  C_15 
REMARK   12  A    between atoms: C_19  and  N_20 
ROOT
ATOM      1  N   UNL d   1      28.528 -13.343   2.260  0.00  0.00    -0.171 N 
ATOM      2  C   UNL d   1      29.398 -14.405   2.456  0.00  0.00     0.725 A 
ATOM      3  N   UNL d   1      29.693 -14.501   3.754  0.00  0.00    -0.042 NA
ATOM      4  C   UNL d   1      29.027 -13.468   4.379  0.00  0.00     0.186 A 
ATOM      5  C   UNL d   1      28.304 -12.745   3.475  0.00  0.00     0.166 A 
ATOM      6  C   UNL d   1      27.523 -11.611   3.827  0.00  0.00     0.280 A 
ATOM      7  O   UNL d   1      26.857 -10.927   3.051  0.00  0.00    -0.265 OA
ATOM      8  N   UNL d   1      27.568 -11.325   5.164  0.00  0.00    -0.273 N 
ATOM      9  C   UNL d   1      28.262 -12.010   6.133  0.00  0.00     0.330 A 
ATOM     10  O   UNL d   1      28.179 -11.612   7.296  0.00  0.00    -0.246 OA
ATOM     11  N   UNL d   1      29.016 -13.116   5.727  0.00  0.00    -0.286 N 
ATOM     12  C   UNL d   1      29.748 -13.848   6.740  0.00  0.00     0.163 C 
ATOM     13  H   UNL d   1      27.030 -10.532   5.477  0.00  0.00     0.173 HD
ENDROOT
BRANCH   2  14
ATOM     14  N   UNL d   1      29.846 -15.201   1.426  0.00  0.00    -0.107 N 
ATOM     15  H   UNL d   1      30.305 -16.069   1.702  0.00  0.00     0.208 HD
BRANCH  14  16
ATOM     16  N   UNL d   1      29.753 -14.871   0.094  0.00  0.00    -0.172 NA
ATOM     17  C   UNL d   1      29.415 -15.757  -0.787  0.00  0.00     0.150 C 
BRANCH  17  18
ATOM     18  C   UNL d   1      29.216 -15.357  -2.216  0.00  0.00    -0.015 A 
ATOM     19  C   UNL d   1      30.266 -14.741  -2.912  0.00  0.00     0.013 A 
ATOM     20  C   UNL d   1      30.118 -14.382  -4.261  0.00  0.00     0.003 A 
ATOM     21  C   UNL d   1      28.917 -14.622  -4.926  0.00  0.00     0.036 A 
ATOM     22  C   UNL d   1      27.864 -15.226  -4.230  0.00  0.00     0.103 A 
ATOM     23  C   UNL d   1      28.008 -15.605  -2.880  0.00  0.00     0.049 A 
BRANCH  22  24
ATOM     24  N   UNL d   1      26.584 -15.421  -4.919  0.00  0.00    -0.116 N 
ATOM     25  O   UNL d   1      25.551 -15.450  -4.234  0.00  0.00    -0.532 OA
ATOM     26  O   UNL d   1      26.618 -15.575  -6.144  0.00  0.00    -0.532 OA
ENDBRANCH  22  24
ENDBRANCH  17  18
ENDBRANCH  14  16
ENDBRANCH   2  14
BRANCH   1  27
ATOM     27  C   UNL d   1      27.959 -12.855   1.023  0.00  0.00     0.148 C 
BRANCH  27  28
ATOM     28  C   UNL d   1      26.534 -13.350   0.845  0.00  0.00     0.021 C 
BRANCH  28  29
ATOM     29  C   UNL d   1      26.431 -14.182  -0.420  0.00  0.00     0.002 C 
BRANCH  29  30
ATOM     30  C   UNL d   1      25.931 -15.573  -0.082  0.00  0.00     0.000 C 
BRANCH  30  31
ATOM     31  C   UNL d   1      25.140 -16.142  -1.244  0.00  0.00     0.000 C 
BRANCH  31  32
ATOM     32  C   UNL d   1      24.824 -17.606  -0.996  0.00  0.00     0.000 C 
BRANCH  32  33
ATOM     33  C   UNL d   1      23.414 -17.744  -0.445  0.00  0.00    -0.000 C 
BRANCH  33  34
ATOM     34  C   UNL d   1      22.692 -18.896  -1.127  0.00  0.00    -0.005 C 
ATOM     35  C   UNL d   1      21.247 -18.954  -0.676  0.00  0.00     0.005 C 
ENDBRANCH  33  34
ENDBRANCH  32  33
ENDBRANCH  31  32
ENDBRANCH  30  31
ENDBRANCH  29  30
ENDBRANCH  28  29
ENDBRANCH  27  28
ENDBRANCH   1  27
TORSDOF 12
ENDMDL
