MODEL 1
REMARK VINA RESULT:    -9.553      0.000      0.000
REMARK INTER + INTRA:         -12.949
REMARK INTER:                 -11.641
REMARK INTRA:                  -1.308
REMARK CONF_INDEPENDENT:        2.088
REMARK UNBOUND:                -1.308
REMARK  7 active torsions:
REMARK  status: ('A' for Active; 'I' for Inactive)
REMARK       I    between atoms: N_1  and  C_2 
REMARK       I    between atoms: C_2  and  N_4 
REMARK    1  A    between atoms: N_4  and  C_5 
REMARK    2  A    between atoms: C_9  and  N_10 
REMARK       I    between atoms: N_10  and  C_11 
REMARK    3  A    between atoms: C_11  and  C_13 
REMARK    4  A    between atoms: C_18  and  C_19 
REMARK    5  A    between atoms: C_19  and  O_20 
REMARK    6  A    between atoms: O_20  and  C_21 
REMARK    7  A    between atoms: C_25  and  C_26 
ROOT
ATOM      1  N   UNL d   1      28.454 -14.581   2.319  0.00  0.00    -0.323 N 
ATOM      2  C   UNL d   1      27.507 -14.411   1.319  0.00  0.00     0.256 C 
ATOM      3  O   UNL d   1      26.486 -13.716   1.360  0.00  0.00    -0.267 OA
ATOM      4  H   UNL d   1      29.197 -15.247   2.148  0.00  0.00     0.169 HD
ENDROOT
BRANCH   2   5
ATOM      5  C   UNL d   1      27.723 -15.077   0.019  0.00  0.00     0.040 A 
ATOM      6  C   UNL d   1      28.293 -14.241  -0.961  0.00  0.00     0.017 A 
ATOM      7  C   UNL d   1      28.423 -14.666  -2.276  0.00  0.00     0.001 A 
ATOM      8  C   UNL d   1      28.046 -15.959  -2.614  0.00  0.00     0.001 A 
ATOM      9  C   UNL d   1      27.464 -16.792  -1.653  0.00  0.00     0.010 A 
ATOM     10  C   UNL d   1      27.257 -16.358  -0.327  0.00  0.00    -0.018 A 
BRANCH  10  11
ATOM     11  C   UNL d   1      26.544 -17.316   0.601  0.00  0.00     0.215 C 
BRANCH  11  12
ATOM     12  O   UNL d   1      25.774 -18.259  -0.117  0.00  0.00    -0.347 OA
BRANCH  12  13
ATOM     13  C   UNL d   1      24.461 -18.027  -0.373  0.00  0.00     0.070 A 
ATOM     14  C   UNL d   1      24.165 -16.688  -0.650  0.00  0.00     0.037 A 
ATOM     15  C   UNL d   1      22.853 -16.280  -0.878  0.00  0.00     0.004 A 
ATOM     16  C   UNL d   1      21.835 -17.229  -0.895  0.00  0.00     0.014 A 
ATOM     17  C   UNL d   1      22.129 -18.557  -0.572  0.00  0.00     0.004 A 
ATOM     18  C   UNL d   1      23.436 -18.955  -0.281  0.00  0.00     0.051 A 
BRANCH  17  19
ATOM     19  C   UNL d   1      21.053 -19.562  -0.507  0.00  0.00     0.270 C 
ATOM     20  O   UNL d   1      20.278 -19.732  -1.442  0.00  0.00    -0.301 OA
ENDBRANCH  17  19
ENDBRANCH  12  13
ENDBRANCH  11  12
ENDBRANCH  10  11
ENDBRANCH   2   5
BRANCH   1  21
ATOM     21  C   UNL d   1      28.314 -14.120   3.653  0.00  0.00     0.037 A 
ATOM     22  C   UNL d   1      28.589 -14.958   4.737  0.00  0.00     0.029 A 
ATOM     23  C   UNL d   1      28.531 -14.448   6.044  0.00  0.00     0.004 A 
ATOM     24  C   UNL d   1      28.164 -13.113   6.272  0.00  0.00     0.029 A 
ATOM     25  C   UNL d   1      27.815 -12.302   5.198  0.00  0.00     0.038 A 
ATOM     26  C   UNL d   1      27.878 -12.827   3.915  0.00  0.00     0.059 A 
BRANCH  25  27
ATOM     27  N   UNL d   1      27.492 -10.937   5.350  0.00  0.00    -0.309 N 
ATOM     28  C   UNL d   1      28.141  -9.932   4.675  0.00  0.00     0.318 C 
ATOM     29  N   UNL d   1      27.781  -8.680   5.038  0.00  0.00    -0.352 N 
ATOM     30  O   UNL d   1      28.945 -10.063   3.753  0.00  0.00    -0.247 OA
ATOM     31  H   UNL d   1      28.248  -7.936   4.533  0.00  0.00     0.160 HD
ATOM     32  H   UNL d   1      27.179  -8.445   5.808  0.00  0.00     0.160 HD
ATOM     33  H   UNL d   1      26.746 -10.700   5.984  0.00  0.00     0.170 HD
ENDBRANCH  25  27
ENDBRANCH   1  21
TORSDOF 7
ENDMDL
MODEL 2
REMARK VINA RESULT:    -8.576      2.288      3.558
REMARK INTER + INTRA:         -12.748
REMARK INTER:                 -10.664
REMARK INTRA:                  -2.083
REMARK CONF_INDEPENDENT:        2.088
REMARK UNBOUND:                -2.083
REMARK  7 active torsions:
REMARK  status: ('A' for Active; 'I' for Inactive)
REMARK       I    between atoms: N_1  and  C_2 
REMARK       I    between atoms: C_2  and  N_4 
REMARK    1  A    between atoms: N_4  and  C_5 
REMARK    2  A    between atoms: C_9  and  N_10 
REMARK       I    between atoms: N_10  and  C_11 
REMARK    3  A    between atoms: C_11  and  C_13 
REMARK    4  A    between atoms: C_18  and  C_19 
REMARK    5  A    between atoms: C_19  and  O_20 
REMARK    6  A    between atoms: O_20  and  C_21 
REMARK    7  A    between atoms: C_25  and  C_26 
ROOT
ATOM      1  N   UNL d   1      27.552 -14.049  -0.719  0.00  0.00    -0.323 N 
ATOM      2  C   UNL d   1      27.726 -13.316  -1.887  0.00  0.00     0.256 C 
ATOM      3  O   UNL d   1      28.037 -12.125  -1.988  0.00  0.00    -0.267 OA
ATOM      4  H   UNL d   1      27.222 -15.001  -0.813  0.00  0.00     0.169 HD
ENDROOT
BRANCH   2   5
ATOM      5  C   UNL d   1      27.580 -14.007  -3.183  0.00  0.00     0.040 A 
ATOM      6  C   UNL d   1      28.726 -13.933  -3.999  0.00  0.00     0.017 A 
ATOM      7  C   UNL d   1      28.704 -14.399  -5.307  0.00  0.00     0.001 A 
ATOM      8  C   UNL d   1      27.555 -15.007  -5.793  0.00  0.00     0.001 A 
ATOM      9  C   UNL d   1      26.407 -15.072  -4.998  0.00  0.00     0.010 A 
ATOM     10  C   UNL d   1      26.383 -14.542  -3.691  0.00  0.00    -0.018 A 
BRANCH  10  11
ATOM     11  C   UNL d   1      25.061 -14.595  -2.957  0.00  0.00     0.215 C 
BRANCH  11  12
ATOM     12  O   UNL d   1      25.233 -14.954  -1.601  0.00  0.00    -0.347 OA
BRANCH  12  13
ATOM     13  C   UNL d   1      24.766 -16.142  -1.137  0.00  0.00     0.070 A 
ATOM     14  C   UNL d   1      25.755 -16.962  -0.582  0.00  0.00     0.037 A 
ATOM     15  C   UNL d   1      25.445 -18.235  -0.113  0.00  0.00     0.004 A 
ATOM     16  C   UNL d   1      24.123 -18.671  -0.137  0.00  0.00     0.014 A 
ATOM     17  C   UNL d   1      23.147 -17.866  -0.735  0.00  0.00     0.004 A 
ATOM     18  C   UNL d   1      23.470 -16.614  -1.263  0.00  0.00     0.051 A 
BRANCH  17  19
ATOM     19  C   UNL d   1      21.756 -18.342  -0.841  0.00  0.00     0.270 C 
ATOM     20  O   UNL d   1      21.434 -19.206  -1.649  0.00  0.00    -0.301 OA
ENDBRANCH  17  19
ENDBRANCH  12  13
ENDBRANCH  11  12
ENDBRANCH  10  11
ENDBRANCH   2   5
BRANCH   1  21
ATOM     21  C   UNL d   1      27.525 -13.496   0.586  0.00  0.00     0.037 A 
ATOM     22  C   UNL d   1      27.018 -12.213   0.814  0.00  0.00     0.029 A 
ATOM     23  C   UNL d   1      26.918 -11.727   2.127  0.00  0.00     0.004 A 
ATOM     24  C   UNL d   1      27.356 -12.505   3.210  0.00  0.00     0.029 A 
ATOM     25  C   UNL d   1      27.933 -13.748   2.976  0.00  0.00     0.038 A 
ATOM     26  C   UNL d   1      28.023 -14.208   1.670  0.00  0.00     0.059 A 
BRANCH  25  27
ATOM     27  N   UNL d   1      28.341 -14.605   4.019  0.00  0.00    -0.309 N 
ATOM     28  C   UNL d   1      28.132 -14.325   5.348  0.00  0.00     0.318 C 
ATOM     29  N   UNL d   1      28.700 -15.200   6.209  0.00  0.00    -0.352 N 
ATOM     30  O   UNL d   1      27.441 -13.417   5.809  0.00  0.00    -0.247 OA
ATOM     31  H   UNL d   1      28.537 -15.003   7.189  0.00  0.00     0.160 HD
ATOM     32  H   UNL d   1      29.326 -15.945   5.957  0.00  0.00     0.160 HD
ATOM     33  H   UNL d   1      28.806 -15.463   3.767  0.00  0.00     0.170 HD
ENDBRANCH  25  27
ENDBRANCH   1  21
TORSDOF 7
ENDMDL
MODEL 3
REMARK VINA RESULT:    -8.475      3.476      8.148
REMARK INTER + INTRA:         -12.656
REMARK INTER:                 -10.563
REMARK INTRA:                  -2.092
REMARK CONF_INDEPENDENT:        2.088
REMARK UNBOUND:                -2.092
REMARK  7 active torsions:
REMARK  status: ('A' for Active; 'I' for Inactive)
REMARK       I    between atoms: N_1  and  C_2 
REMARK       I    between atoms: C_2  and  N_4 
REMARK    1  A    between atoms: N_4  and  C_5 
REMARK    2  A    between atoms: C_9  and  N_10 
REMARK       I    between atoms: N_10  and  C_11 
REMARK    3  A    between atoms: C_11  and  C_13 
REMARK    4  A    between atoms: C_18  and  C_19 
REMARK    5  A    between atoms: C_19  and  O_20 
REMARK    6  A    between atoms: O_20  and  C_21 
REMARK    7  A    between atoms: C_25  and  C_26 
ROOT
ATOM      1  N   UNL d   1      25.381 -14.858  -1.621  0.00  0.00    -0.323 N 
ATOM      2  C   UNL d   1      25.533 -14.607  -2.978  0.00  0.00     0.256 C 
ATOM      3  O   UNL d   1      25.309 -15.379  -3.916  0.00  0.00    -0.267 OA
ATOM      4  H   UNL d   1      25.680 -14.136  -0.978  0.00  0.00     0.169 HD
ENDROOT
BRANCH   2   5
ATOM      5  C   UNL d   1      25.963 -13.260  -3.405  0.00  0.00     0.040 A 
ATOM      6  C   UNL d   1      25.490 -12.889  -4.679  0.00  0.00     0.017 A 
ATOM      7  C   UNL d   1      25.924 -11.721  -5.290  0.00  0.00     0.001 A 
ATOM      8  C   UNL d   1      26.785 -10.874  -4.605  0.00  0.00     0.001 A 
ATOM      9  C   UNL d   1      27.272 -11.239  -3.346  0.00  0.00     0.010 A 
ATOM     10  C   UNL d   1      26.901 -12.455  -2.735  0.00  0.00    -0.018 A 
BRANCH  10  11
ATOM     11  C   UNL d   1      27.556 -12.781  -1.412  0.00  0.00     0.215 C 
BRANCH  11  12
ATOM     12  O   UNL d   1      26.606 -12.876  -0.370  0.00  0.00    -0.347 OA
BRANCH  12  13
ATOM     13  C   UNL d   1      26.961 -12.613   0.914  0.00  0.00     0.070 A 
ATOM     14  C   UNL d   1      27.342 -13.745   1.642  0.00  0.00     0.037 A 
ATOM     15  C   UNL d   1      27.681 -13.647   2.989  0.00  0.00     0.004 A 
ATOM     16  C   UNL d   1      27.703 -12.397   3.600  0.00  0.00     0.014 A 
ATOM     17  C   UNL d   1      27.277 -11.275   2.881  0.00  0.00     0.004 A 
ATOM     18  C   UNL d   1      26.877 -11.384   1.547  0.00  0.00     0.051 A 
BRANCH  17  19
ATOM     19  C   UNL d   1      27.219  -9.955   3.533  0.00  0.00     0.270 C 
ATOM     20  O   UNL d   1      26.281  -9.187   3.343  0.00  0.00    -0.301 OA
ENDBRANCH  17  19
ENDBRANCH  12  13
ENDBRANCH  11  12
ENDBRANCH  10  11
ENDBRANCH   2   5
BRANCH   1  21
ATOM     21  C   UNL d   1      25.110 -16.131  -1.060  0.00  0.00     0.037 A 
ATOM     22  C   UNL d   1      26.149 -16.991  -0.690  0.00  0.00     0.029 A 
ATOM     23  C   UNL d   1      25.854 -18.206  -0.052  0.00  0.00     0.004 A 
ATOM     24  C   UNL d   1      24.523 -18.582   0.185  0.00  0.00     0.029 A 
ATOM     25  C   UNL d   1      23.488 -17.763  -0.254  0.00  0.00     0.038 A 
ATOM     26  C   UNL d   1      23.803 -16.567  -0.883  0.00  0.00     0.059 A 
BRANCH  25  27
ATOM     27  N   UNL d   1      22.131 -18.051   0.002  0.00  0.00    -0.309 N 
ATOM     28  C   UNL d   1      21.329 -18.735  -0.879  0.00  0.00     0.318 C 
ATOM     29  N   UNL d   1      20.027 -18.810  -0.520  0.00  0.00    -0.352 N 
ATOM     30  O   UNL d   1      21.689 -19.325  -1.897  0.00  0.00    -0.247 OA
ATOM     31  H   UNL d   1      19.435 -19.326  -1.161  0.00  0.00     0.160 HD
ATOM     32  H   UNL d   1      19.605 -18.330   0.255  0.00  0.00     0.160 HD
ATOM     33  H   UNL d   1      21.742 -17.737   0.877  0.00  0.00     0.170 HD
ENDBRANCH  25  27
ENDBRANCH   1  21
TORSDOF 7
ENDMDL
MODEL 4
REMARK VINA RESULT:    -8.211      3.668      7.369
REMARK INTER + INTRA:         -12.643
REMARK INTER:                 -10.299
REMARK INTRA:                  -2.344
REMARK CONF_INDEPENDENT:        2.088
REMARK UNBOUND:                -2.344
REMARK  7 active torsions:
REMARK  status: ('A' for Active; 'I' for Inactive)
REMARK       I    between atoms: N_1  and  C_2 
REMARK       I    between atoms: C_2  and  N_4 
REMARK    1  A    between atoms: N_4  and  C_5 
REMARK    2  A    between atoms: C_9  and  N_10 
REMARK       I    between atoms: N_10  and  C_11 
REMARK    3  A    between atoms: C_11  and  C_13 
REMARK    4  A    between atoms: C_18  and  C_19 
REMARK    5  A    between atoms: C_19  and  O_20 
REMARK    6  A    between atoms: O_20  and  C_21 
REMARK    7  A    between atoms: C_25  and  C_26 
ROOT
ATOM      1  N   UNL d   1      26.296 -15.312  -3.129  0.00  0.00    -0.323 N 
ATOM      2  C   UNL d   1      25.075 -15.475  -2.486  0.00  0.00     0.256 C 
ATOM      3  O   UNL d   1      24.040 -14.825  -2.662  0.00  0.00    -0.267 OA
ATOM      4  H   UNL d   1      27.069 -15.883  -2.811  0.00  0.00     0.169 HD
ENDROOT
BRANCH   2   5
ATOM      5  C   UNL d   1      24.933 -16.569  -1.505  0.00  0.00     0.040 A 
ATOM      6  C   UNL d   1      23.598 -16.952  -1.269  0.00  0.00     0.017 A 
ATOM      7  C   UNL d   1      23.281 -17.859  -0.267  0.00  0.00     0.001 A 
ATOM      8  C   UNL d   1      24.302 -18.448   0.466  0.00  0.00     0.001 A 
ATOM      9  C   UNL d   1      25.630 -18.065   0.251  0.00  0.00     0.010 A 
ATOM     10  C   UNL d   1      25.970 -17.092  -0.713  0.00  0.00    -0.018 A 
BRANCH  10  11
ATOM     11  C   UNL d   1      27.428 -16.698  -0.798  0.00  0.00     0.215 C 
BRANCH  11  12
ATOM     12  O   UNL d   1      27.590 -15.294  -0.789  0.00  0.00    -0.347 OA
BRANCH  12  13
ATOM     13  C   UNL d   1      27.438 -14.589   0.361  0.00  0.00     0.070 A 
ATOM     14  C   UNL d   1      26.830 -13.342   0.186  0.00  0.00     0.037 A 
ATOM     15  C   UNL d   1      26.655 -12.476   1.263  0.00  0.00     0.004 A 
ATOM     16  C   UNL d   1      27.030 -12.886   2.539  0.00  0.00     0.014 A 
ATOM     17  C   UNL d   1      27.680 -14.114   2.701  0.00  0.00     0.004 A 
ATOM     18  C   UNL d   1      27.912 -14.955   1.610  0.00  0.00     0.051 A 
BRANCH  17  19
ATOM     19  C   UNL d   1      28.155 -14.532   4.032  0.00  0.00     0.270 C 
ATOM     20  O   UNL d   1      27.470 -14.374   5.036  0.00  0.00    -0.301 OA
ENDBRANCH  17  19
ENDBRANCH  12  13
ENDBRANCH  11  12
ENDBRANCH  10  11
ENDBRANCH   2   5
BRANCH   1  21
ATOM     21  C   UNL d   1      26.620 -14.230  -3.985  0.00  0.00     0.037 A 
ATOM     22  C   UNL d   1      27.539 -14.386  -5.027  0.00  0.00     0.029 A 
ATOM     23  C   UNL d   1      27.771 -13.325  -5.916  0.00  0.00     0.004 A 
ATOM     24  C   UNL d   1      27.116 -12.095  -5.745  0.00  0.00     0.029 A 
ATOM     25  C   UNL d   1      26.264 -11.915  -4.662  0.00  0.00     0.038 A 
ATOM     26  C   UNL d   1      26.049 -12.977  -3.795  0.00  0.00     0.059 A 
BRANCH  25  27
ATOM     27  N   UNL d   1      25.530 -10.727  -4.462  0.00  0.00    -0.309 N 
ATOM     28  C   UNL d   1      25.650  -9.950  -3.336  0.00  0.00     0.318 C 
ATOM     29  N   UNL d   1      24.780  -8.916  -3.263  0.00  0.00    -0.352 N 
ATOM     30  O   UNL d   1      26.494 -10.065  -2.448  0.00  0.00    -0.247 OA
ATOM     31  H   UNL d   1      24.875  -8.334  -2.440  0.00  0.00     0.160 HD
ATOM     32  H   UNL d   1      24.016  -8.750  -3.895  0.00  0.00     0.160 HD
ATOM     33  H   UNL d   1      24.892 -10.442  -5.188  0.00  0.00     0.170 HD
ENDBRANCH  25  27
ENDBRANCH   1  21
TORSDOF 7
ENDMDL
MODEL 5
REMARK VINA RESULT:    -8.090      4.548      7.949
REMARK INTER + INTRA:         -12.417
REMARK INTER:                 -10.178
REMARK INTRA:                  -2.239
REMARK CONF_INDEPENDENT:        2.088
REMARK UNBOUND:                -2.239
REMARK  7 active torsions:
REMARK  status: ('A' for Active; 'I' for Inactive)
REMARK       I    between atoms: N_1  and  C_2 
REMARK       I    between atoms: C_2  and  N_4 
REMARK    1  A    between atoms: N_4  and  C_5 
REMARK    2  A    between atoms: C_9  and  N_10 
REMARK       I    between atoms: N_10  and  C_11 
REMARK    3  A    between atoms: C_11  and  C_13 
REMARK    4  A    between atoms: C_18  and  C_19 
REMARK    5  A    between atoms: C_19  and  O_20 
REMARK    6  A    between atoms: O_20  and  C_21 
REMARK    7  A    between atoms: C_25  and  C_26 
ROOT
ATOM      1  N   UNL d   1      24.958 -15.137  -1.646  0.00  0.00    -0.323 N 
ATOM      2  C   UNL d   1      25.251 -14.860  -2.976  0.00  0.00     0.256 C 
ATOM      3  O   UNL d   1      25.155 -15.623  -3.942  0.00  0.00    -0.267 OA
ATOM      4  H   UNL d   1      25.164 -14.418  -0.965  0.00  0.00     0.169 HD
ENDROOT
BRANCH   2   5
ATOM      5  C   UNL d   1      25.684 -13.495  -3.335  0.00  0.00     0.040 A 
ATOM      6  C   UNL d   1      25.214 -13.061  -4.590  0.00  0.00     0.017 A 
ATOM      7  C   UNL d   1      25.652 -11.865  -5.142  0.00  0.00     0.001 A 
ATOM      8  C   UNL d   1      26.513 -11.054  -4.415  0.00  0.00     0.001 A 
ATOM      9  C   UNL d   1      26.998 -11.482  -3.175  0.00  0.00     0.010 A 
ATOM     10  C   UNL d   1      26.623 -12.726  -2.625  0.00  0.00    -0.018 A 
BRANCH  10  11
ATOM     11  C   UNL d   1      27.276 -13.118  -1.319  0.00  0.00     0.215 C 
BRANCH  11  12
ATOM     12  O   UNL d   1      27.349 -14.522  -1.174  0.00  0.00    -0.347 OA
BRANCH  12  13
ATOM     13  C   UNL d   1      28.160 -15.258  -1.975  0.00  0.00     0.070 A 
ATOM     14  C   UNL d   1      28.879 -16.250  -1.298  0.00  0.00     0.037 A 
ATOM     15  C   UNL d   1      29.796 -17.052  -1.972  0.00  0.00     0.004 A 
ATOM     16  C   UNL d   1      29.951 -16.908  -3.348  0.00  0.00     0.014 A 
ATOM     17  C   UNL d   1      29.265 -15.885  -4.011  0.00  0.00     0.004 A 
ATOM     18  C   UNL d   1      28.392 -15.039  -3.323  0.00  0.00     0.051 A 
BRANCH  17  19
ATOM     19  C   UNL d   1      29.474 -15.665  -5.454  0.00  0.00     0.270 C 
ATOM     20  O   UNL d   1      28.530 -15.575  -6.232  0.00  0.00    -0.301 OA
ENDBRANCH  17  19
ENDBRANCH  12  13
ENDBRANCH  11  12
ENDBRANCH  10  11
ENDBRANCH   2   5
BRANCH   1  21
ATOM     21  C   UNL d   1      24.666 -16.427  -1.135  0.00  0.00     0.037 A 
ATOM     22  C   UNL d   1      25.688 -17.340  -0.857  0.00  0.00     0.029 A 
ATOM     23  C   UNL d   1      25.377 -18.574  -0.265  0.00  0.00     0.004 A 
ATOM     24  C   UNL d   1      24.044 -18.914   0.018  0.00  0.00     0.029 A 
ATOM     25  C   UNL d   1      23.023 -18.038  -0.332  0.00  0.00     0.038 A 
ATOM     26  C   UNL d   1      23.353 -16.824  -0.917  0.00  0.00     0.059 A 
BRANCH  25  27
ATOM     27  N   UNL d   1      21.669 -18.290  -0.026  0.00  0.00    -0.309 N 
ATOM     28  C   UNL d   1      20.784 -18.836  -0.924  0.00  0.00     0.318 C 
ATOM     29  N   UNL d   1      19.502 -18.890  -0.496  0.00  0.00    -0.352 N 
ATOM     30  O   UNL d   1      21.055 -19.325  -2.020  0.00  0.00    -0.247 OA
ATOM     31  H   UNL d   1      18.850 -19.304  -1.151  0.00  0.00     0.160 HD
ATOM     32  H   UNL d   1      19.150 -18.479   0.351  0.00  0.00     0.160 HD
ATOM     33  H   UNL d   1      21.346 -18.057   0.900  0.00  0.00     0.170 HD
ENDBRANCH  25  27
ENDBRANCH   1  21
TORSDOF 7
ENDMDL
MODEL 6
REMARK VINA RESULT:    -7.969      4.811      7.967
REMARK INTER + INTRA:         -12.565
REMARK INTER:                 -10.057
REMARK INTRA:                  -2.508
REMARK CONF_INDEPENDENT:        2.088
REMARK UNBOUND:                -2.508
REMARK  7 active torsions:
REMARK  status: ('A' for Active; 'I' for Inactive)
REMARK       I    between atoms: N_1  and  C_2 
REMARK       I    between atoms: C_2  and  N_4 
REMARK    1  A    between atoms: N_4  and  C_5 
REMARK    2  A    between atoms: C_9  and  N_10 
REMARK       I    between atoms: N_10  and  C_11 
REMARK    3  A    between atoms: C_11  and  C_13 
REMARK    4  A    between atoms: C_18  and  C_19 
REMARK    5  A    between atoms: C_19  and  O_20 
REMARK    6  A    between atoms: O_20  and  C_21 
REMARK    7  A    between atoms: C_25  and  C_26 
ROOT
ATOM      1  N   UNL d   1      25.814 -15.117  -1.992  0.00  0.00    -0.323 N 
ATOM      2  C   UNL d   1      25.216 -14.385  -3.010  0.00  0.00     0.256 C 
ATOM      3  O   UNL d   1      24.044 -14.450  -3.394  0.00  0.00    -0.267 OA
ATOM      4  H   UNL d   1      26.809 -14.994  -1.853  0.00  0.00     0.169 HD
ENDROOT
BRANCH   2   5
ATOM      5  C   UNL d   1      26.019 -13.364  -3.713  0.00  0.00     0.040 A 
ATOM      6  C   UNL d   1      25.911 -12.074  -3.158  0.00  0.00     0.017 A 
ATOM      7  C   UNL d   1      26.481 -10.975  -3.786  0.00  0.00     0.001 A 
ATOM      8  C   UNL d   1      27.225 -11.163  -4.943  0.00  0.00     0.001 A 
ATOM      9  C   UNL d   1      27.326 -12.437  -5.511  0.00  0.00     0.010 A 
ATOM     10  C   UNL d   1      26.696 -13.557  -4.929  0.00  0.00    -0.018 A 
BRANCH  10  11
ATOM     11  C   UNL d   1      26.807 -14.866  -5.678  0.00  0.00     0.215 C 
BRANCH  11  12
ATOM     12  O   UNL d   1      28.155 -15.229  -5.897  0.00  0.00    -0.347 OA
BRANCH  12  13
ATOM     13  C   UNL d   1      28.882 -15.812  -4.911  0.00  0.00     0.070 A 
ATOM     14  C   UNL d   1      29.850 -16.710  -5.374  0.00  0.00     0.037 A 
ATOM     15  C   UNL d   1      30.640 -17.431  -4.482  0.00  0.00     0.004 A 
ATOM     16  C   UNL d   1      30.509 -17.205  -3.115  0.00  0.00     0.014 A 
ATOM     17  C   UNL d   1      29.509 -16.341  -2.655  0.00  0.00     0.004 A 
ATOM     18  C   UNL d   1      28.674 -15.666  -3.549  0.00  0.00     0.051 A 
BRANCH  17  19
ATOM     19  C   UNL d   1      29.301 -16.149  -1.209  0.00  0.00     0.270 C 
ATOM     20  O   UNL d   1      28.388 -15.453  -0.779  0.00  0.00    -0.301 OA
ENDBRANCH  17  19
ENDBRANCH  12  13
ENDBRANCH  11  12
ENDBRANCH  10  11
ENDBRANCH   2   5
BRANCH   1  21
ATOM     21  C   UNL d   1      25.215 -16.216  -1.327  0.00  0.00     0.037 A 
ATOM     22  C   UNL d   1      25.993 -17.160  -0.651  0.00  0.00     0.029 A 
ATOM     23  C   UNL d   1      25.368 -18.185   0.076  0.00  0.00     0.004 A 
ATOM     24  C   UNL d   1      23.969 -18.292   0.100  0.00  0.00     0.029 A 
ATOM     25  C   UNL d   1      23.199 -17.400  -0.637  0.00  0.00     0.038 A 
ATOM     26  C   UNL d   1      23.837 -16.395  -1.349  0.00  0.00     0.059 A 
BRANCH  25  27
ATOM     27  N   UNL d   1      21.788 -17.414  -0.613  0.00  0.00    -0.309 N 
ATOM     28  C   UNL d   1      21.044 -18.546  -0.837  0.00  0.00     0.318 C 
ATOM     29  N   UNL d   1      19.707 -18.345  -0.897  0.00  0.00    -0.352 N 
ATOM     30  O   UNL d   1      21.464 -19.700  -0.919  0.00  0.00    -0.247 OA
ATOM     31  H   UNL d   1      19.155 -19.180  -1.049  0.00  0.00     0.160 HD
ATOM     32  H   UNL d   1      19.251 -17.450  -0.896  0.00  0.00     0.160 HD
ATOM     33  H   UNL d   1      21.314 -16.546  -0.418  0.00  0.00     0.170 HD
ENDBRANCH  25  27
ENDBRANCH   1  21
TORSDOF 7
ENDMDL
MODEL 7
REMARK VINA RESULT:    -7.552      4.035      7.647
REMARK INTER + INTRA:         -12.605
REMARK INTER:                  -9.640
REMARK INTRA:                  -2.965
REMARK CONF_INDEPENDENT:        2.088
REMARK UNBOUND:                -2.965
REMARK  7 active torsions:
REMARK  status: ('A' for Active; 'I' for Inactive)
REMARK       I    between atoms: N_1  and  C_2 
REMARK       I    between atoms: C_2  and  N_4 
REMARK    1  A    between atoms: N_4  and  C_5 
REMARK    2  A    between atoms: C_9  and  N_10 
REMARK       I    between atoms: N_10  and  C_11 
REMARK    3  A    between atoms: C_11  and  C_13 
REMARK    4  A    between atoms: C_18  and  C_19 
REMARK    5  A    between atoms: C_19  and  O_20 
REMARK    6  A    between atoms: O_20  and  C_21 
REMARK    7  A    between atoms: C_25  and  C_26 
ROOT
ATOM      1  N   UNL d   1      26.103 -15.952  -2.427  0.00  0.00    -0.323 N 
ATOM      2  C   UNL d   1      25.517 -15.001  -3.252  0.00  0.00     0.256 C 
ATOM      3  O   UNL d   1      24.348 -14.602  -3.229  0.00  0.00    -0.267 OA
ATOM      4  H   UNL d   1      27.058 -16.218  -2.629  0.00  0.00     0.169 HD
ENDROOT
BRANCH   2   5
ATOM      5  C   UNL d   1      26.358 -14.323  -4.259  0.00  0.00     0.040 A 
ATOM      6  C   UNL d   1      26.908 -15.193  -5.220  0.00  0.00     0.017 A 
ATOM      7  C   UNL d   1      27.840 -14.741  -6.144  0.00  0.00     0.001 A 
ATOM      8  C   UNL d   1      28.183 -13.396  -6.162  0.00  0.00     0.001 A 
ATOM      9  C   UNL d   1      27.654 -12.526  -5.204  0.00  0.00     0.010 A 
ATOM     10  C   UNL d   1      26.760 -12.977  -4.210  0.00  0.00    -0.018 A 
BRANCH  10  11
ATOM     11  C   UNL d   1      26.321 -11.963  -3.178  0.00  0.00     0.215 C 
BRANCH  11  12
ATOM     12  O   UNL d   1      27.249 -11.865  -2.116  0.00  0.00    -0.347 OA
BRANCH  12  13
ATOM     13  C   UNL d   1      27.471 -12.922  -1.294  0.00  0.00     0.070 A 
ATOM     14  C   UNL d   1      26.888 -12.789  -0.029  0.00  0.00     0.037 A 
ATOM     15  C   UNL d   1      27.071 -13.765   0.948  0.00  0.00     0.004 A 
ATOM     16  C   UNL d   1      27.790 -14.916   0.638  0.00  0.00     0.014 A 
ATOM     17  C   UNL d   1      28.410 -15.022  -0.612  0.00  0.00     0.004 A 
ATOM     18  C   UNL d   1      28.277 -14.014  -1.569  0.00  0.00     0.051 A 
BRANCH  17  19
ATOM     19  C   UNL d   1      29.240 -16.197  -0.930  0.00  0.00     0.270 C 
ATOM     20  O   UNL d   1      28.886 -17.026  -1.761  0.00  0.00    -0.301 OA
ENDBRANCH  17  19
ENDBRANCH  12  13
ENDBRANCH  11  12
ENDBRANCH  10  11
ENDBRANCH   2   5
BRANCH   1  21
ATOM     21  C   UNL d   1      25.396 -16.777  -1.516  0.00  0.00     0.037 A 
ATOM     22  C   UNL d   1      26.066 -17.467  -0.501  0.00  0.00     0.029 A 
ATOM     23  C   UNL d   1      25.332 -18.202   0.443  0.00  0.00     0.004 A 
ATOM     24  C   UNL d   1      23.933 -18.281   0.354  0.00  0.00     0.029 A 
ATOM     25  C   UNL d   1      23.275 -17.660  -0.701  0.00  0.00     0.038 A 
ATOM     26  C   UNL d   1      24.021 -16.939  -1.623  0.00  0.00     0.059 A 
BRANCH  25  27
ATOM     27  N   UNL d   1      21.869 -17.650  -0.820  0.00  0.00    -0.309 N 
ATOM     28  C   UNL d   1      21.090 -18.763  -0.618  0.00  0.00     0.318 C 
ATOM     29  N   UNL d   1      19.777 -18.594  -0.895  0.00  0.00    -0.352 N 
ATOM     30  O   UNL d   1      21.456 -19.844  -0.159  0.00  0.00    -0.247 OA
ATOM     31  H   UNL d   1      19.198 -19.410  -0.735  0.00  0.00     0.160 HD
ATOM     32  H   UNL d   1      19.369 -17.781  -1.322  0.00  0.00     0.160 HD
ATOM     33  H   UNL d   1      21.425 -16.778  -1.061  0.00  0.00     0.170 HD
ENDBRANCH  25  27
ENDBRANCH   1  21
TORSDOF 7
ENDMDL
MODEL 8
REMARK VINA RESULT:    -6.734      5.257      8.131
REMARK INTER + INTRA:         -12.196
REMARK INTER:                  -8.822
REMARK INTRA:                  -3.374
REMARK CONF_INDEPENDENT:        2.088
REMARK UNBOUND:                -3.374
REMARK  7 active torsions:
REMARK  status: ('A' for Active; 'I' for Inactive)
REMARK       I    between atoms: N_1  and  C_2 
REMARK       I    between atoms: C_2  and  N_4 
REMARK    1  A    between atoms: N_4  and  C_5 
REMARK    2  A    between atoms: C_9  and  N_10 
REMARK       I    between atoms: N_10  and  C_11 
REMARK    3  A    between atoms: C_11  and  C_13 
REMARK    4  A    between atoms: C_18  and  C_19 
REMARK    5  A    between atoms: C_19  and  O_20 
REMARK    6  A    between atoms: O_20  and  C_21 
REMARK    7  A    between atoms: C_25  and  C_26 
ROOT
ATOM      1  N   UNL d   1      27.213 -16.620  -1.611  0.00  0.00    -0.323 N 
ATOM      2  C   UNL d   1      26.581 -17.454  -0.698  0.00  0.00     0.256 C 
ATOM      3  O   UNL d   1      27.106 -18.277   0.058  0.00  0.00    -0.267 OA
ATOM      4  H   UNL d   1      26.625 -16.054  -2.208  0.00  0.00     0.169 HD
ENDROOT
BRANCH   2   5
ATOM      5  C   UNL d   1      25.117 -17.348  -0.540  0.00  0.00     0.040 A 
ATOM      6  C   UNL d   1      24.537 -18.443   0.132  0.00  0.00     0.017 A 
ATOM      7  C   UNL d   1      23.158 -18.572   0.230  0.00  0.00     0.001 A 
ATOM      8  C   UNL d   1      22.343 -17.572  -0.282  0.00  0.00     0.001 A 
ATOM      9  C   UNL d   1      22.906 -16.489  -0.964  0.00  0.00     0.010 A 
ATOM     10  C   UNL d   1      24.301 -16.372  -1.138  0.00  0.00    -0.018 A 
BRANCH  10  11
ATOM     11  C   UNL d   1      24.789 -15.203  -1.964  0.00  0.00     0.215 C 
BRANCH  11  12
ATOM     12  O   UNL d   1      25.154 -15.603  -3.269  0.00  0.00    -0.347 OA
BRANCH  12  13
ATOM     13  C   UNL d   1      25.906 -14.791  -4.056  0.00  0.00     0.070 A 
ATOM     14  C   UNL d   1      25.639 -13.428  -3.883  0.00  0.00     0.037 A 
ATOM     15  C   UNL d   1      26.289 -12.470  -4.657  0.00  0.00     0.004 A 
ATOM     16  C   UNL d   1      27.262 -12.871  -5.567  0.00  0.00     0.014 A 
ATOM     17  C   UNL d   1      27.491 -14.237  -5.769  0.00  0.00     0.004 A 
ATOM     18  C   UNL d   1      26.794 -15.200  -5.037  0.00  0.00     0.051 A 
BRANCH  17  19
ATOM     19  C   UNL d   1      28.462 -14.684  -6.784  0.00  0.00     0.270 C 
ATOM     20  O   UNL d   1      29.639 -14.346  -6.738  0.00  0.00    -0.301 OA
ENDBRANCH  17  19
ENDBRANCH  12  13
ENDBRANCH  11  12
ENDBRANCH  10  11
ENDBRANCH   2   5
BRANCH   1  21
ATOM     21  C   UNL d   1      28.583 -16.703  -1.968  0.00  0.00     0.037 A 
ATOM     22  C   UNL d   1      29.531 -17.207  -1.073  0.00  0.00     0.029 A 
ATOM     23  C   UNL d   1      30.863 -17.364  -1.485  0.00  0.00     0.004 A 
ATOM     24  C   UNL d   1      31.260 -16.985  -2.777  0.00  0.00     0.029 A 
ATOM     25  C   UNL d   1      30.333 -16.410  -3.639  0.00  0.00     0.038 A 
ATOM     26  C   UNL d   1      29.021 -16.263  -3.211  0.00  0.00     0.059 A 
BRANCH  25  27
ATOM     27  N   UNL d   1      30.648 -16.059  -4.969  0.00  0.00    -0.309 N 
ATOM     28  C   UNL d   1      30.791 -16.982  -5.976  0.00  0.00     0.318 C 
ATOM     29  N   UNL d   1      31.214 -16.474  -7.156  0.00  0.00    -0.352 N 
ATOM     30  O   UNL d   1      30.513 -18.180  -5.923  0.00  0.00    -0.247 OA
ATOM     31  H   UNL d   1      31.308 -17.150  -7.905  0.00  0.00     0.160 HD
ATOM     32  H   UNL d   1      31.521 -15.529  -7.310  0.00  0.00     0.160 HD
ATOM     33  H   UNL d   1      30.769 -15.081  -5.180  0.00  0.00     0.170 HD
ENDBRANCH  25  27
ENDBRANCH   1  21
TORSDOF 7
ENDMDL
MODEL 9
REMARK VINA RESULT:    -6.721      5.419      8.958
REMARK INTER + INTRA:         -12.597
REMARK INTER:                  -8.809
REMARK INTRA:                  -3.788
REMARK CONF_INDEPENDENT:        2.088
REMARK UNBOUND:                -3.788
REMARK  7 active torsions:
REMARK  status: ('A' for Active; 'I' for Inactive)
REMARK       I    between atoms: N_1  and  C_2 
REMARK       I    between atoms: C_2  and  N_4 
REMARK    1  A    between atoms: N_4  and  C_5 
REMARK    2  A    between atoms: C_9  and  N_10 
REMARK       I    between atoms: N_10  and  C_11 
REMARK    3  A    between atoms: C_11  and  C_13 
REMARK    4  A    between atoms: C_18  and  C_19 
REMARK    5  A    between atoms: C_19  and  O_20 
REMARK    6  A    between atoms: O_20  and  C_21 
REMARK    7  A    between atoms: C_25  and  C_26 
ROOT
ATOM      1  N   UNL d   1      26.491 -15.239  -3.804  0.00  0.00    -0.323 N 
ATOM      2  C   UNL d   1      25.423 -15.266  -2.917  0.00  0.00     0.256 C 
ATOM      3  O   UNL d   1      24.454 -14.501  -2.883  0.00  0.00    -0.267 OA
ATOM      4  H   UNL d   1      27.244 -15.897  -3.647  0.00  0.00     0.169 HD
ENDROOT
BRANCH   2   5
ATOM      5  C   UNL d   1      25.369 -16.342  -1.908  0.00  0.00     0.040 A 
ATOM      6  C   UNL d   1      24.062 -16.770  -1.602  0.00  0.00     0.017 A 
ATOM      7  C   UNL d   1      23.826 -17.667  -0.569  0.00  0.00     0.001 A 
ATOM      8  C   UNL d   1      24.902 -18.200   0.128  0.00  0.00     0.001 A 
ATOM      9  C   UNL d   1      26.202 -17.771  -0.156  0.00  0.00     0.010 A 
ATOM     10  C   UNL d   1      26.461 -16.808  -1.154  0.00  0.00    -0.018 A 
BRANCH  10  11
ATOM     11  C   UNL d   1      27.896 -16.360  -1.315  0.00  0.00     0.215 C 
BRANCH  11  12
ATOM     12  O   UNL d   1      28.530 -17.021  -2.391  0.00  0.00    -0.347 OA
BRANCH  12  13
ATOM     13  C   UNL d   1      29.319 -16.333  -3.256  0.00  0.00     0.070 A 
ATOM     14  C   UNL d   1      29.712 -15.075  -2.787  0.00  0.00     0.037 A 
ATOM     15  C   UNL d   1      30.477 -14.224  -3.582  0.00  0.00     0.004 A 
ATOM     16  C   UNL d   1      30.910 -14.660  -4.830  0.00  0.00     0.014 A 
ATOM     17  C   UNL d   1      30.476 -15.899  -5.313  0.00  0.00     0.004 A 
ATOM     18  C   UNL d   1      29.656 -16.726  -4.541  0.00  0.00     0.051 A 
BRANCH  17  19
ATOM     19  C   UNL d   1      30.859 -16.345  -6.664  0.00  0.00     0.270 C 
ATOM     20  O   UNL d   1      30.903 -15.564  -7.609  0.00  0.00    -0.301 OA
ENDBRANCH  17  19
ENDBRANCH  12  13
ENDBRANCH  11  12
ENDBRANCH  10  11
ENDBRANCH   2   5
BRANCH   1  21
ATOM     21  C   UNL d   1      26.748 -14.196  -4.729  0.00  0.00     0.037 A 
ATOM     22  C   UNL d   1      26.059 -12.982  -4.654  0.00  0.00     0.029 A 
ATOM     23  C   UNL d   1      26.399 -11.934  -5.524  0.00  0.00     0.004 A 
ATOM     24  C   UNL d   1      27.399 -12.107  -6.494  0.00  0.00     0.029 A 
ATOM     25  C   UNL d   1      28.027 -13.341  -6.620  0.00  0.00     0.038 A 
ATOM     26  C   UNL d   1      27.676 -14.363  -5.750  0.00  0.00     0.059 A 
BRANCH  25  27
ATOM     27  N   UNL d   1      29.079 -13.568  -7.533  0.00  0.00    -0.309 N 
ATOM     28  C   UNL d   1      30.072 -12.651  -7.778  0.00  0.00     0.318 C 
ATOM     29  N   UNL d   1      30.925 -12.990  -8.772  0.00  0.00    -0.352 N 
ATOM     30  O   UNL d   1      30.290 -11.615  -7.151  0.00  0.00    -0.247 OA
ATOM     31  H   UNL d   1      31.666 -12.323  -8.947  0.00  0.00     0.160 HD
ATOM     32  H   UNL d   1      30.822 -13.779  -9.387  0.00  0.00     0.160 HD
ATOM     33  H   UNL d   1      29.094 -14.450  -8.020  0.00  0.00     0.170 HD
ENDBRANCH  25  27
ENDBRANCH   1  21
TORSDOF 7
ENDMDL
