MODEL 1
REMARK VINA RESULT:   -11.091      0.000      0.000
REMARK INTER + INTRA:         -17.337
REMARK INTER:                 -14.372
REMARK INTRA:                  -2.964
REMARK CONF_INDEPENDENT:        3.281
REMARK UNBOUND:                -2.964
REMARK  11 active torsions:
REMARK  status: ('A' for Active; 'I' for Inactive)
REMARK    1  A    between atoms: C_6  and  O_7 
REMARK    2  A    between atoms: O_7  and  C_8 
REMARK    3  A    between atoms: C_10  and  C_8 
REMARK    4  A    between atoms: C_10  and  N_21 
REMARK    5  A    between atoms: C_10  and  C_11 
REMARK    6  A    between atoms: C_11  and  C_12 
REMARK       I    between atoms: N_21  and  C_22 
REMARK    7  A    between atoms: C_22  and  O_24 
REMARK    8  A    between atoms: O_24  and  C_25 
REMARK    9  A    between atoms: C_25  and  C_26 
REMARK   10  A    between atoms: C_37  and  O_38 
REMARK   11  A    between atoms: O_38  and  C_39 
ROOT
ATOM      1  C   UNL d   1      25.316 -17.056  -0.678  0.00  0.00     0.191 C 
ENDROOT
BRANCH   1   2
ATOM      2  N   UNL d   1      24.061 -17.501  -0.075  0.00  0.00    -0.323 N 
ATOM      3  C   UNL d   1      23.153 -18.211  -0.817  0.00  0.00     0.361 C 
ATOM      4  O   UNL d   1      23.277 -18.451  -2.017  0.00  0.00    -0.238 OA
ATOM      5  H   UNL d   1      23.845 -17.305   0.893  0.00  0.00     0.165 HD
BRANCH   3   6
ATOM      6  O   UNL d   1      22.138 -18.659  -0.052  0.00  0.00    -0.299 OA
BRANCH   6   7
ATOM      7  C   UNL d   1      20.917 -18.936  -0.775  0.00  0.00     0.219 C 
BRANCH   7   8
ATOM      8  C   UNL d   1      19.913 -19.631   0.123  0.00  0.00    -0.034 A 
ATOM      9  C   UNL d   1      20.091 -19.686   1.516  0.00  0.00     0.009 A 
ATOM     10  C   UNL d   1      19.240 -20.467   2.309  0.00  0.00     0.001 A 
ATOM     11  C   UNL d   1      18.158 -21.131   1.734  0.00  0.00     0.000 A 
ATOM     12  C   UNL d   1      17.953 -21.057   0.360  0.00  0.00     0.001 A 
ATOM     13  C   UNL d   1      18.831 -20.326  -0.436  0.00  0.00     0.009 A 
ENDBRANCH   7   8
ENDBRANCH   6   7
ENDBRANCH   3   6
ENDBRANCH   1   2
BRANCH   1  14
ATOM     14  C   UNL d   1      25.418 -15.519  -0.928  0.00  0.00     0.076 C 
BRANCH  14  15
ATOM     15  C   UNL d   1      25.591 -15.116  -2.394  0.00  0.00    -0.028 A 
ATOM     16  C   UNL d   1      25.530 -15.937  -3.512  0.00  0.00     0.096 A 
ATOM     17  N   UNL d   1      25.922 -15.232  -4.614  0.00  0.00    -0.365 N 
ATOM     18  C   UNL d   1      26.156 -13.927  -4.270  0.00  0.00     0.042 A 
ATOM     19  H   UNL d   1      26.045 -15.626  -5.537  0.00  0.00     0.165 HD
ATOM     20  C   UNL d   1      26.537 -12.848  -5.074  0.00  0.00     0.030 A 
ATOM     21  C   UNL d   1      25.964 -13.823  -2.889  0.00  0.00    -0.002 A 
ATOM     22  C   UNL d   1      26.730 -11.617  -4.444  0.00  0.00     0.002 A 
ATOM     23  C   UNL d   1      26.554 -11.479  -3.068  0.00  0.00     0.001 A 
ATOM     24  C   UNL d   1      26.180 -12.573  -2.280  0.00  0.00     0.014 A 
ENDBRANCH  14  15
ENDBRANCH   1  14
BRANCH   1  25
ATOM     25  C   UNL d   1      26.529 -17.426   0.188  0.00  0.00     0.287 C 
ATOM     26  O   UNL d   1      26.485 -18.406   0.920  0.00  0.00    -0.262 OA
BRANCH  25  27
ATOM     27  O   UNL d   1      27.625 -16.566   0.114  0.00  0.00    -0.277 OA
BRANCH  27  28
ATOM     28  C   UNL d   1      28.567 -16.734  -0.925  0.00  0.00     0.082 A 
ATOM     29  C   UNL d   1      28.467 -16.070  -2.131  0.00  0.00     0.075 A 
ATOM     30  C   UNL d   1      29.379 -16.254  -3.135  0.00  0.00     0.092 A 
ATOM     31  O   UNL d   1      29.107 -15.498  -4.216  0.00  0.00    -0.311 OA
ATOM     32  C   UNL d   1      30.432 -17.116  -3.002  0.00  0.00     0.051 A 
ATOM     33  C   UNL d   1      29.768 -15.741  -5.380  0.00  0.00     0.087 C 
ATOM     34  C   UNL d   1      29.089 -14.930  -6.443  0.00  0.00     0.080 C 
ATOM     35  C   UNL d   1      30.839 -16.568  -5.473  0.00  0.00     0.156 C 
ATOM     36  C   UNL d   1      31.284 -17.277  -4.197  0.00  0.00     0.221 C 
ATOM     37  O   UNL d   1      32.284 -17.983  -4.140  0.00  0.00    -0.284 OA
ATOM     38  C   UNL d   1      30.589 -17.783  -1.776  0.00  0.00     0.021 A 
ATOM     39  C   UNL d   1      29.642 -17.602  -0.738  0.00  0.00     0.038 A 
BRANCH  35  40
ATOM     40  O   UNL d   1      31.577 -16.880  -6.617  0.00  0.00    -0.304 OA
BRANCH  40  41
ATOM     41  C   UNL d   1      31.356 -18.059  -7.291  0.00  0.00     0.076 C 
ATOM     42  C   UNL d   1      31.722 -18.136  -8.634  0.00  0.00     0.037 C 
ATOM     43  C   UNL d   1      31.549 -19.339  -9.326  0.00  0.00     0.003 C 
ATOM     44  C   UNL d   1      31.151 -20.491  -8.647  0.00  0.00     0.000 C 
ATOM     45  C   UNL d   1      30.794 -20.412  -7.305  0.00  0.00     0.003 C 
ATOM     46  C   UNL d   1      30.800 -19.173  -6.657  0.00  0.00     0.037 C 
ENDBRANCH  40  41
ENDBRANCH  35  40
ENDBRANCH  27  28
ENDBRANCH  25  27
ENDBRANCH   1  25
TORSDOF 11
ENDMDL
MODEL 2
REMARK VINA RESULT:   -10.777      5.160     10.458
REMARK INTER + INTRA:         -16.927
REMARK INTER:                 -14.059
REMARK INTRA:                  -2.868
REMARK CONF_INDEPENDENT:        3.281
REMARK UNBOUND:                -2.868
REMARK  11 active torsions:
REMARK  status: ('A' for Active; 'I' for Inactive)
REMARK    1  A    between atoms: C_6  and  O_7 
REMARK    2  A    between atoms: O_7  and  C_8 
REMARK    3  A    between atoms: C_10  and  C_8 
REMARK    4  A    between atoms: C_10  and  N_21 
REMARK    5  A    between atoms: C_10  and  C_11 
REMARK    6  A    between atoms: C_11  and  C_12 
REMARK       I    between atoms: N_21  and  C_22 
REMARK    7  A    between atoms: C_22  and  O_24 
REMARK    8  A    between atoms: O_24  and  C_25 
REMARK    9  A    between atoms: C_25  and  C_26 
REMARK   10  A    between atoms: C_37  and  O_38 
REMARK   11  A    between atoms: O_38  and  C_39 
ROOT
ATOM      1  C   UNL d   1      26.384 -13.668  -2.814  0.00  0.00     0.191 C 
ENDROOT
BRANCH   1   2
ATOM      2  N   UNL d   1      27.200 -14.419  -3.766  0.00  0.00    -0.323 N 
ATOM      3  C   UNL d   1      26.611 -15.053  -4.829  0.00  0.00     0.361 C 
ATOM      4  O   UNL d   1      25.396 -15.106  -5.016  0.00  0.00    -0.238 OA
ATOM      5  H   UNL d   1      28.204 -14.478  -3.665  0.00  0.00     0.165 HD
BRANCH   3   6
ATOM      6  O   UNL d   1      27.534 -15.560  -5.670  0.00  0.00    -0.299 OA
BRANCH   6   7
ATOM      7  C   UNL d   1      28.899 -15.215  -5.343  0.00  0.00     0.219 C 
BRANCH   7   8
ATOM      8  C   UNL d   1      29.590 -16.373  -4.651  0.00  0.00    -0.034 A 
ATOM      9  C   UNL d   1      29.753 -16.399  -3.255  0.00  0.00     0.009 A 
ATOM     10  C   UNL d   1      30.532 -17.395  -2.651  0.00  0.00     0.001 A 
ATOM     11  C   UNL d   1      31.083 -18.418  -3.421  0.00  0.00     0.000 A 
ATOM     12  C   UNL d   1      30.900 -18.420  -4.799  0.00  0.00     0.001 A 
ATOM     13  C   UNL d   1      30.173 -17.400  -5.406  0.00  0.00     0.009 A 
ENDBRANCH   7   8
ENDBRANCH   6   7
ENDBRANCH   3   6
ENDBRANCH   1   2
BRANCH   1  14
ATOM     14  C   UNL d   1      25.074 -14.384  -2.359  0.00  0.00     0.076 C 
BRANCH  14  15
ATOM     15  C   UNL d   1      25.286 -15.732  -1.665  0.00  0.00    -0.028 A 
ATOM     16  C   UNL d   1      26.472 -16.441  -1.534  0.00  0.00     0.096 A 
ATOM     17  N   UNL d   1      26.206 -17.678  -1.019  0.00  0.00    -0.365 N 
ATOM     18  C   UNL d   1      24.874 -17.778  -0.717  0.00  0.00     0.042 A 
ATOM     19  H   UNL d   1      26.890 -18.414  -0.905  0.00  0.00     0.165 HD
ATOM     20  C   UNL d   1      24.167 -18.839  -0.142  0.00  0.00     0.030 A 
ATOM     21  C   UNL d   1      24.270 -16.581  -1.115  0.00  0.00    -0.002 A 
ATOM     22  C   UNL d   1      22.793 -18.671   0.032  0.00  0.00     0.002 A 
ATOM     23  C   UNL d   1      22.156 -17.495  -0.359  0.00  0.00     0.001 A 
ATOM     24  C   UNL d   1      22.880 -16.448  -0.939  0.00  0.00     0.014 A 
ENDBRANCH  14  15
ENDBRANCH   1  14
BRANCH   1  25
ATOM     25  C   UNL d   1      27.159 -13.345  -1.528  0.00  0.00     0.287 C 
ATOM     26  O   UNL d   1      28.382 -13.347  -1.531  0.00  0.00    -0.262 OA
BRANCH  25  27
ATOM     27  O   UNL d   1      26.390 -13.106  -0.389  0.00  0.00    -0.277 OA
BRANCH  27  28
ATOM     28  C   UNL d   1      26.958 -13.321   0.887  0.00  0.00     0.082 A 
ATOM     29  C   UNL d   1      27.100 -12.310   1.816  0.00  0.00     0.075 A 
ATOM     30  C   UNL d   1      27.667 -12.530   3.042  0.00  0.00     0.092 A 
ATOM     31  O   UNL d   1      27.691 -11.417   3.800  0.00  0.00    -0.311 OA
ATOM     32  C   UNL d   1      28.134 -13.761   3.409  0.00  0.00     0.051 A 
ATOM     33  C   UNL d   1      28.433 -11.405   4.940  0.00  0.00     0.087 C 
ATOM     34  C   UNL d   1      28.465  -9.986   5.423  0.00  0.00     0.080 C 
ATOM     35  C   UNL d   1      28.995 -12.516   5.478  0.00  0.00     0.156 C 
ATOM     36  C   UNL d   1      28.797 -13.830   4.727  0.00  0.00     0.221 C 
ATOM     37  O   UNL d   1      29.187 -14.909   5.156  0.00  0.00    -0.284 OA
ATOM     38  C   UNL d   1      27.975 -14.825   2.505  0.00  0.00     0.021 A 
ATOM     39  C   UNL d   1      27.397 -14.599   1.232  0.00  0.00     0.038 A 
BRANCH  35  40
ATOM     40  O   UNL d   1      29.771 -12.602   6.636  0.00  0.00    -0.304 OA
BRANCH  40  41
ATOM     41  C   UNL d   1      29.189 -12.898   7.846  0.00  0.00     0.076 C 
ATOM     42  C   UNL d   1      29.283 -14.202   8.330  0.00  0.00     0.037 C 
ATOM     43  C   UNL d   1      28.739 -14.514   9.580  0.00  0.00     0.003 C 
ATOM     44  C   UNL d   1      28.235 -13.503  10.400  0.00  0.00     0.000 C 
ATOM     45  C   UNL d   1      28.151 -12.201   9.917  0.00  0.00     0.003 C 
ATOM     46  C   UNL d   1      28.534 -11.922   8.603  0.00  0.00     0.037 C 
ENDBRANCH  40  41
ENDBRANCH  35  40
ENDBRANCH  27  28
ENDBRANCH  25  27
ENDBRANCH   1  25
TORSDOF 11
ENDMDL
MODEL 3
REMARK VINA RESULT:   -10.504      4.322      9.977
REMARK INTER + INTRA:         -16.930
REMARK INTER:                 -13.785
REMARK INTRA:                  -3.145
REMARK CONF_INDEPENDENT:        3.281
REMARK UNBOUND:                -3.145
REMARK  11 active torsions:
REMARK  status: ('A' for Active; 'I' for Inactive)
REMARK    1  A    between atoms: C_6  and  O_7 
REMARK    2  A    between atoms: O_7  and  C_8 
REMARK    3  A    between atoms: C_10  and  C_8 
REMARK    4  A    between atoms: C_10  and  N_21 
REMARK    5  A    between atoms: C_10  and  C_11 
REMARK    6  A    between atoms: C_11  and  C_12 
REMARK       I    between atoms: N_21  and  C_22 
REMARK    7  A    between atoms: C_22  and  O_24 
REMARK    8  A    between atoms: O_24  and  C_25 
REMARK    9  A    between atoms: C_25  and  C_26 
REMARK   10  A    between atoms: C_37  and  O_38 
REMARK   11  A    between atoms: O_38  and  C_39 
ROOT
ATOM      1  C   UNL d   1      26.120 -13.396  -4.023  0.00  0.00     0.191 C 
ENDROOT
BRANCH   1   2
ATOM      2  N   UNL d   1      27.252 -14.085  -4.640  0.00  0.00    -0.323 N 
ATOM      3  C   UNL d   1      27.038 -15.122  -5.510  0.00  0.00     0.361 C 
ATOM      4  O   UNL d   1      25.930 -15.589  -5.770  0.00  0.00    -0.238 OA
ATOM      5  H   UNL d   1      28.205 -13.806  -4.445  0.00  0.00     0.165 HD
BRANCH   3   6
ATOM      6  O   UNL d   1      28.189 -15.525  -6.086  0.00  0.00    -0.299 OA
BRANCH   6   7
ATOM      7  C   UNL d   1      29.298 -15.672  -5.171  0.00  0.00     0.219 C 
BRANCH   7   8
ATOM      8  C   UNL d   1      30.031 -16.974  -5.429  0.00  0.00    -0.034 A 
ATOM      9  C   UNL d   1      30.477 -17.321  -6.717  0.00  0.00     0.009 A 
ATOM     10  C   UNL d   1      31.007 -18.594  -6.963  0.00  0.00     0.001 A 
ATOM     11  C   UNL d   1      31.175 -19.499  -5.917  0.00  0.00     0.000 A 
ATOM     12  C   UNL d   1      30.767 -19.155  -4.634  0.00  0.00     0.001 A 
ATOM     13  C   UNL d   1      30.189 -17.910  -4.398  0.00  0.00     0.009 A 
ENDBRANCH   7   8
ENDBRANCH   6   7
ENDBRANCH   3   6
ENDBRANCH   1   2
BRANCH   1  14
ATOM     14  C   UNL d   1      25.086 -14.329  -3.318  0.00  0.00     0.076 C 
BRANCH  14  15
ATOM     15  C   UNL d   1      25.698 -15.375  -2.382  0.00  0.00    -0.028 A 
ATOM     16  C   UNL d   1      27.037 -15.719  -2.255  0.00  0.00     0.096 A 
ATOM     17  N   UNL d   1      27.148 -16.820  -1.455  0.00  0.00    -0.365 N 
ATOM     18  C   UNL d   1      25.915 -17.167  -0.969  0.00  0.00     0.042 A 
ATOM     19  H   UNL d   1      28.010 -17.317  -1.274  0.00  0.00     0.165 HD
ATOM     20  C   UNL d   1      25.559 -18.196  -0.092  0.00  0.00     0.030 A 
ATOM     21  C   UNL d   1      24.987 -16.287  -1.535  0.00  0.00    -0.002 A 
ATOM     22  C   UNL d   1      24.205 -18.333   0.218  0.00  0.00     0.002 A 
ATOM     23  C   UNL d   1      23.252 -17.478  -0.333  0.00  0.00     0.001 A 
ATOM     24  C   UNL d   1      23.627 -16.459  -1.214  0.00  0.00     0.014 A 
ENDBRANCH  14  15
ENDBRANCH   1  14
BRANCH   1  25
ATOM     25  C   UNL d   1      26.575 -12.387  -2.960  0.00  0.00     0.287 C 
ATOM     26  O   UNL d   1      25.937 -11.359  -2.777  0.00  0.00    -0.262 OA
BRANCH  25  27
ATOM     27  O   UNL d   1      27.751 -12.697  -2.278  0.00  0.00    -0.277 OA
BRANCH  27  28
ATOM     28  C   UNL d   1      27.705 -12.925  -0.885  0.00  0.00     0.082 A 
ATOM     29  C   UNL d   1      28.842 -13.127  -0.128  0.00  0.00     0.075 A 
ATOM     30  C   UNL d   1      28.780 -13.363   1.219  0.00  0.00     0.092 A 
ATOM     31  O   UNL d   1      30.001 -13.514   1.767  0.00  0.00    -0.311 OA
ATOM     32  C   UNL d   1      27.588 -13.422   1.885  0.00  0.00     0.051 A 
ATOM     33  C   UNL d   1      30.106 -13.991   3.036  0.00  0.00     0.087 C 
ATOM     34  C   UNL d   1      31.558 -14.282   3.273  0.00  0.00     0.080 C 
ATOM     35  C   UNL d   1      29.046 -14.136   3.870  0.00  0.00     0.156 C 
ATOM     36  C   UNL d   1      27.671 -13.768   3.319  0.00  0.00     0.221 C 
ATOM     37  O   UNL d   1      26.654 -13.780   4.002  0.00  0.00    -0.284 OA
ATOM     38  C   UNL d   1      26.411 -13.185   1.158  0.00  0.00     0.021 A 
ATOM     39  C   UNL d   1      26.469 -12.950  -0.238  0.00  0.00     0.038 A 
BRANCH  35  40
ATOM     40  O   UNL d   1      29.054 -14.617   5.181  0.00  0.00    -0.304 OA
BRANCH  40  41
ATOM     41  C   UNL d   1      28.970 -13.748   6.244  0.00  0.00     0.076 C 
ATOM     42  C   UNL d   1      28.555 -12.439   6.004  0.00  0.00     0.037 C 
ATOM     43  C   UNL d   1      28.418 -11.552   7.076  0.00  0.00     0.003 C 
ATOM     44  C   UNL d   1      28.554 -12.008   8.388  0.00  0.00     0.000 C 
ATOM     45  C   UNL d   1      28.960 -13.318   8.625  0.00  0.00     0.003 C 
ATOM     46  C   UNL d   1      29.266 -14.155   7.548  0.00  0.00     0.037 C 
ENDBRANCH  40  41
ENDBRANCH  35  40
ENDBRANCH  27  28
ENDBRANCH  25  27
ENDBRANCH   1  25
TORSDOF 11
ENDMDL
MODEL 4
REMARK VINA RESULT:    -9.980      2.477      4.622
REMARK INTER + INTRA:         -16.983
REMARK INTER:                 -13.261
REMARK INTRA:                  -3.722
REMARK CONF_INDEPENDENT:        3.281
REMARK UNBOUND:                -3.722
REMARK  11 active torsions:
REMARK  status: ('A' for Active; 'I' for Inactive)
REMARK    1  A    between atoms: C_6  and  O_7 
REMARK    2  A    between atoms: O_7  and  C_8 
REMARK    3  A    between atoms: C_10  and  C_8 
REMARK    4  A    between atoms: C_10  and  N_21 
REMARK    5  A    between atoms: C_10  and  C_11 
REMARK    6  A    between atoms: C_11  and  C_12 
REMARK       I    between atoms: N_21  and  C_22 
REMARK    7  A    between atoms: C_22  and  O_24 
REMARK    8  A    between atoms: O_24  and  C_25 
REMARK    9  A    between atoms: C_25  and  C_26 
REMARK   10  A    between atoms: C_37  and  O_38 
REMARK   11  A    between atoms: O_38  and  C_39 
ROOT
ATOM      1  C   UNL d   1      25.031 -16.646  -0.697  0.00  0.00     0.191 C 
ENDROOT
BRANCH   1   2
ATOM      2  N   UNL d   1      23.988 -17.463  -1.316  0.00  0.00    -0.323 N 
ATOM      3  C   UNL d   1      23.389 -18.471  -0.606  0.00  0.00     0.361 C 
ATOM      4  O   UNL d   1      23.720 -18.807   0.531  0.00  0.00    -0.238 OA
ATOM      5  H   UNL d   1      23.686 -17.296  -2.267  0.00  0.00     0.165 HD
BRANCH   3   6
ATOM      6  O   UNL d   1      22.358 -19.006  -1.289  0.00  0.00    -0.299 OA
BRANCH   6   7
ATOM      7  C   UNL d   1      21.071 -18.421  -0.989  0.00  0.00     0.219 C 
BRANCH   7   8
ATOM      8  C   UNL d   1      20.281 -19.319  -0.057  0.00  0.00    -0.034 A 
ATOM      9  C   UNL d   1      19.193 -20.078  -0.520  0.00  0.00     0.009 A 
ATOM     10  C   UNL d   1      18.380 -20.775   0.383  0.00  0.00     0.001 A 
ATOM     11  C   UNL d   1      18.692 -20.790   1.741  0.00  0.00     0.000 A 
ATOM     12  C   UNL d   1      19.786 -20.068   2.206  0.00  0.00     0.001 A 
ATOM     13  C   UNL d   1      20.562 -19.330   1.316  0.00  0.00     0.009 A 
ENDBRANCH   7   8
ENDBRANCH   6   7
ENDBRANCH   3   6
ENDBRANCH   1   2
BRANCH   1  14
ATOM     14  C   UNL d   1      26.396 -17.370  -0.485  0.00  0.00     0.076 C 
BRANCH  14  15
ATOM     15  C   UNL d   1      27.602 -16.438  -0.335  0.00  0.00    -0.028 A 
ATOM     16  C   UNL d   1      27.893 -15.591   0.724  0.00  0.00     0.096 A 
ATOM     17  N   UNL d   1      28.951 -14.795   0.392  0.00  0.00    -0.365 N 
ATOM     18  C   UNL d   1      29.434 -15.157  -0.838  0.00  0.00     0.042 A 
ATOM     19  H   UNL d   1      29.304 -14.037   0.960  0.00  0.00     0.165 HD
ATOM     20  C   UNL d   1      30.521 -14.646  -1.555  0.00  0.00     0.030 A 
ATOM     21  C   UNL d   1      28.609 -16.177  -1.322  0.00  0.00    -0.002 A 
ATOM     22  C   UNL d   1      30.774 -15.196  -2.812  0.00  0.00     0.002 A 
ATOM     23  C   UNL d   1      29.968 -16.209  -3.329  0.00  0.00     0.001 A 
ATOM     24  C   UNL d   1      28.881 -16.702  -2.599  0.00  0.00     0.014 A 
ENDBRANCH  14  15
ENDBRANCH   1  14
BRANCH   1  25
ATOM     25  C   UNL d   1      25.341 -15.391  -1.527  0.00  0.00     0.287 C 
ATOM     26  O   UNL d   1      25.864 -14.420  -0.998  0.00  0.00    -0.262 OA
BRANCH  25  27
ATOM     27  O   UNL d   1      24.953 -15.426  -2.866  0.00  0.00    -0.277 OA
BRANCH  27  28
ATOM     28  C   UNL d   1      25.744 -14.766  -3.833  0.00  0.00     0.082 A 
ATOM     29  C   UNL d   1      26.737 -15.410  -4.545  0.00  0.00     0.075 A 
ATOM     30  C   UNL d   1      27.506 -14.753  -5.467  0.00  0.00     0.092 A 
ATOM     31  O   UNL d   1      28.400 -15.569  -6.059  0.00  0.00    -0.311 OA
ATOM     32  C   UNL d   1      27.341 -13.421  -5.724  0.00  0.00     0.051 A 
ATOM     33  C   UNL d   1      29.394 -15.030  -6.814  0.00  0.00     0.087 C 
ATOM     34  C   UNL d   1      30.354 -16.138  -7.125  0.00  0.00     0.080 C 
ATOM     35  C   UNL d   1      29.429 -13.724  -7.182  0.00  0.00     0.156 C 
ATOM     36  C   UNL d   1      28.298 -12.829  -6.681  0.00  0.00     0.221 C 
ATOM     37  O   UNL d   1      28.179 -11.656  -7.013  0.00  0.00    -0.284 OA
ATOM     38  C   UNL d   1      26.317 -12.738  -5.047  0.00  0.00     0.021 A 
ATOM     39  C   UNL d   1      25.525 -13.412  -4.085  0.00  0.00     0.038 A 
BRANCH  35  40
ATOM     40  O   UNL d   1      30.402 -13.082  -7.949  0.00  0.00    -0.304 OA
BRANCH  40  41
ATOM     41  C   UNL d   1      31.670 -12.891  -7.452  0.00  0.00     0.076 C 
ATOM     42  C   UNL d   1      31.811 -12.312  -6.191  0.00  0.00     0.037 C 
ATOM     43  C   UNL d   1      33.089 -12.151  -5.646  0.00  0.00     0.003 C 
ATOM     44  C   UNL d   1      34.202 -12.694  -6.290  0.00  0.00     0.000 C 
ATOM     45  C   UNL d   1      34.056 -13.279  -7.543  0.00  0.00     0.003 C 
ATOM     46  C   UNL d   1      32.805 -13.284  -8.166  0.00  0.00     0.037 C 
ENDBRANCH  40  41
ENDBRANCH  35  40
ENDBRANCH  27  28
ENDBRANCH  25  27
ENDBRANCH   1  25
TORSDOF 11
ENDMDL
MODEL 5
REMARK VINA RESULT:    -9.881      3.637      7.574
REMARK INTER + INTRA:         -17.239
REMARK INTER:                 -13.162
REMARK INTRA:                  -4.076
REMARK CONF_INDEPENDENT:        3.281
REMARK UNBOUND:                -4.076
REMARK  11 active torsions:
REMARK  status: ('A' for Active; 'I' for Inactive)
REMARK    1  A    between atoms: C_6  and  O_7 
REMARK    2  A    between atoms: O_7  and  C_8 
REMARK    3  A    between atoms: C_10  and  C_8 
REMARK    4  A    between atoms: C_10  and  N_21 
REMARK    5  A    between atoms: C_10  and  C_11 
REMARK    6  A    between atoms: C_11  and  C_12 
REMARK       I    between atoms: N_21  and  C_22 
REMARK    7  A    between atoms: C_22  and  O_24 
REMARK    8  A    between atoms: O_24  and  C_25 
REMARK    9  A    between atoms: C_25  and  C_26 
REMARK   10  A    between atoms: C_37  and  O_38 
REMARK   11  A    between atoms: O_38  and  C_39 
ROOT
ATOM      1  C   UNL d   1      27.383 -13.868  -5.787  0.00  0.00     0.191 C 
ENDROOT
BRANCH   1   2
ATOM      2  N   UNL d   1      26.369 -13.902  -4.734  0.00  0.00    -0.323 N 
ATOM      3  C   UNL d   1      25.538 -14.986  -4.610  0.00  0.00     0.361 C 
ATOM      4  O   UNL d   1      25.525 -15.939  -5.388  0.00  0.00    -0.238 OA
ATOM      5  H   UNL d   1      26.268 -13.139  -4.079  0.00  0.00     0.165 HD
BRANCH   3   6
ATOM      6  O   UNL d   1      24.781 -14.899  -3.499  0.00  0.00    -0.299 OA
BRANCH   6   7
ATOM      7  C   UNL d   1      25.483 -15.188  -2.269  0.00  0.00     0.219 C 
BRANCH   7   8
ATOM      8  C   UNL d   1      24.780 -16.289  -1.501  0.00  0.00    -0.034 A 
ATOM      9  C   UNL d   1      23.394 -16.251  -1.270  0.00  0.00     0.009 A 
ATOM     10  C   UNL d   1      22.790 -17.191  -0.425  0.00  0.00     0.001 A 
ATOM     11  C   UNL d   1      23.545 -18.224   0.129  0.00  0.00     0.000 A 
ATOM     12  C   UNL d   1      24.912 -18.290  -0.119  0.00  0.00     0.001 A 
ATOM     13  C   UNL d   1      25.522 -17.324  -0.915  0.00  0.00     0.009 A 
ENDBRANCH   7   8
ENDBRANCH   6   7
ENDBRANCH   3   6
ENDBRANCH   1   2
BRANCH   1  14
ATOM     14  C   UNL d   1      27.914 -12.445  -6.145  0.00  0.00     0.076 C 
BRANCH  14  15
ATOM     15  C   UNL d   1      26.887 -11.320  -5.994  0.00  0.00    -0.028 A 
ATOM     16  C   UNL d   1      26.179 -10.677  -6.999  0.00  0.00     0.096 A 
ATOM     17  N   UNL d   1      25.510  -9.610  -6.472  0.00  0.00    -0.365 N 
ATOM     18  C   UNL d   1      25.684  -9.579  -5.114  0.00  0.00     0.042 A 
ATOM     19  H   UNL d   1      24.988  -8.932  -7.012  0.00  0.00     0.165 HD
ATOM     20  C   UNL d   1      25.159  -8.692  -4.168  0.00  0.00     0.030 A 
ATOM     21  C   UNL d   1      26.544 -10.630  -4.784  0.00  0.00    -0.002 A 
ATOM     22  C   UNL d   1      25.527  -8.887  -2.836  0.00  0.00     0.002 A 
ATOM     23  C   UNL d   1      26.389  -9.921  -2.472  0.00  0.00     0.001 A 
ATOM     24  C   UNL d   1      26.909 -10.792  -3.434  0.00  0.00     0.014 A 
ENDBRANCH  14  15
ENDBRANCH   1  14
BRANCH   1  25
ATOM     25  C   UNL d   1      28.619 -14.701  -5.417  0.00  0.00     0.287 C 
ATOM     26  O   UNL d   1      28.877 -15.724  -6.036  0.00  0.00    -0.262 OA
BRANCH  25  27
ATOM     27  O   UNL d   1      29.368 -14.244  -4.333  0.00  0.00    -0.277 OA
BRANCH  27  28
ATOM     28  C   UNL d   1      28.880 -14.445  -3.021  0.00  0.00     0.082 A 
ATOM     29  C   UNL d   1      28.398 -13.411  -2.243  0.00  0.00     0.075 A 
ATOM     30  C   UNL d   1      27.945 -13.617  -0.968  0.00  0.00     0.092 A 
ATOM     31  O   UNL d   1      27.502 -12.482  -0.394  0.00  0.00    -0.311 OA
ATOM     32  C   UNL d   1      27.955 -14.857  -0.393  0.00  0.00     0.051 A 
ATOM     33  C   UNL d   1      27.248 -12.468   0.941  0.00  0.00     0.087 C 
ATOM     34  C   UNL d   1      27.020 -11.037   1.326  0.00  0.00     0.080 C 
ATOM     35  C   UNL d   1      27.215 -13.587   1.708  0.00  0.00     0.156 C 
ATOM     36  C   UNL d   1      27.515 -14.914   1.016  0.00  0.00     0.221 C 
ATOM     37  O   UNL d   1      27.436 -15.996   1.585  0.00  0.00    -0.284 OA
ATOM     38  C   UNL d   1      28.404 -15.941  -1.165  0.00  0.00     0.021 A 
ATOM     39  C   UNL d   1      28.883 -15.730  -2.481  0.00  0.00     0.038 A 
BRANCH  35  40
ATOM     40  O   UNL d   1      26.966 -13.672   3.079  0.00  0.00    -0.304 OA
BRANCH  40  41
ATOM     41  C   UNL d   1      27.973 -14.013   3.952  0.00  0.00     0.076 C 
ATOM     42  C   UNL d   1      29.284 -13.671   3.623  0.00  0.00     0.037 C 
ATOM     43  C   UNL d   1      30.318 -13.966   4.517  0.00  0.00     0.003 C 
ATOM     44  C   UNL d   1      30.028 -14.466   5.788  0.00  0.00     0.000 C 
ATOM     45  C   UNL d   1      28.717 -14.798   6.116  0.00  0.00     0.003 C 
ATOM     46  C   UNL d   1      27.708 -14.666   5.159  0.00  0.00     0.037 C 
ENDBRANCH  40  41
ENDBRANCH  35  40
ENDBRANCH  27  28
ENDBRANCH  25  27
ENDBRANCH   1  25
TORSDOF 11
ENDMDL
MODEL 6
REMARK VINA RESULT:    -9.773      3.894      7.744
REMARK INTER + INTRA:         -17.263
REMARK INTER:                 -13.054
REMARK INTRA:                  -4.209
REMARK CONF_INDEPENDENT:        3.281
REMARK UNBOUND:                -4.209
REMARK  11 active torsions:
REMARK  status: ('A' for Active; 'I' for Inactive)
REMARK    1  A    between atoms: C_6  and  O_7 
REMARK    2  A    between atoms: O_7  and  C_8 
REMARK    3  A    between atoms: C_10  and  C_8 
REMARK    4  A    between atoms: C_10  and  N_21 
REMARK    5  A    between atoms: C_10  and  C_11 
REMARK    6  A    between atoms: C_11  and  C_12 
REMARK       I    between atoms: N_21  and  C_22 
REMARK    7  A    between atoms: C_22  and  O_24 
REMARK    8  A    between atoms: O_24  and  C_25 
REMARK    9  A    between atoms: C_25  and  C_26 
REMARK   10  A    between atoms: C_37  and  O_38 
REMARK   11  A    between atoms: O_38  and  C_39 
ROOT
ATOM      1  C   UNL d   1      26.723 -12.930  -5.356  0.00  0.00     0.191 C 
ENDROOT
BRANCH   1   2
ATOM      2  N   UNL d   1      25.704 -13.262  -4.362  0.00  0.00    -0.323 N 
ATOM      3  C   UNL d   1      25.216 -14.540  -4.274  0.00  0.00     0.361 C 
ATOM      4  O   UNL d   1      25.524 -15.452  -5.041  0.00  0.00    -0.238 OA
ATOM      5  H   UNL d   1      25.348 -12.564  -3.722  0.00  0.00     0.165 HD
BRANCH   3   6
ATOM      6  O   UNL d   1      24.404 -14.682  -3.208  0.00  0.00    -0.299 OA
BRANCH   6   7
ATOM      7  C   UNL d   1      25.078 -15.046  -1.983  0.00  0.00     0.219 C 
BRANCH   7   8
ATOM      8  C   UNL d   1      24.442 -16.278  -1.370  0.00  0.00    -0.034 A 
ATOM      9  C   UNL d   1      23.065 -16.329  -1.090  0.00  0.00     0.009 A 
ATOM     10  C   UNL d   1      22.527 -17.409  -0.380  0.00  0.00     0.001 A 
ATOM     11  C   UNL d   1      23.336 -18.484  -0.016  0.00  0.00     0.000 A 
ATOM     12  C   UNL d   1      24.694 -18.459  -0.316  0.00  0.00     0.001 A 
ATOM     13  C   UNL d   1      25.241 -17.359  -0.973  0.00  0.00     0.009 A 
ENDBRANCH   7   8
ENDBRANCH   6   7
ENDBRANCH   3   6
ENDBRANCH   1   2
BRANCH   1  14
ATOM     14  C   UNL d   1      27.397 -11.535  -5.168  0.00  0.00     0.076 C 
BRANCH  14  15
ATOM     15  C   UNL d   1      26.637 -10.572  -4.253  0.00  0.00    -0.028 A 
ATOM     16  C   UNL d   1      25.425  -9.943  -4.503  0.00  0.00     0.096 A 
ATOM     17  N   UNL d   1      25.181  -9.023  -3.524  0.00  0.00    -0.365 N 
ATOM     18  C   UNL d   1      26.163  -9.087  -2.572  0.00  0.00     0.042 A 
ATOM     19  H   UNL d   1      24.404  -8.375  -3.522  0.00  0.00     0.165 HD
ATOM     20  C   UNL d   1      26.302  -8.364  -1.383  0.00  0.00     0.030 A 
ATOM     21  C   UNL d   1      27.092 -10.041  -3.000  0.00  0.00    -0.002 A 
ATOM     22  C   UNL d   1      27.430  -8.624  -0.604  0.00  0.00     0.002 A 
ATOM     23  C   UNL d   1      28.380  -9.562  -1.004  0.00  0.00     0.001 A 
ATOM     24  C   UNL d   1      28.227 -10.271  -2.201  0.00  0.00     0.014 A 
ENDBRANCH  14  15
ENDBRANCH   1  14
BRANCH   1  25
ATOM     25  C   UNL d   1      27.866 -13.955  -5.367  0.00  0.00     0.287 C 
ATOM     26  O   UNL d   1      27.898 -14.829  -6.223  0.00  0.00    -0.262 OA
BRANCH  25  27
ATOM     27  O   UNL d   1      28.800 -13.848  -4.338  0.00  0.00    -0.277 OA
BRANCH  27  28
ATOM     28  C   UNL d   1      28.422 -14.192  -3.020  0.00  0.00     0.082 A 
ATOM     29  C   UNL d   1      27.943 -13.261  -2.119  0.00  0.00     0.075 A 
ATOM     30  C   UNL d   1      27.596 -13.606  -0.841  0.00  0.00     0.092 A 
ATOM     31  O   UNL d   1      27.137 -12.554  -0.136  0.00  0.00    -0.311 OA
ATOM     32  C   UNL d   1      27.716 -14.888  -0.384  0.00  0.00     0.051 A 
ATOM     33  C   UNL d   1      26.980 -12.673   1.210  0.00  0.00     0.087 C 
ATOM     34  C   UNL d   1      26.704 -11.298   1.739  0.00  0.00     0.080 C 
ATOM     35  C   UNL d   1      27.064 -13.855   1.870  0.00  0.00     0.156 C 
ATOM     36  C   UNL d   1      27.384 -15.095   1.041  0.00  0.00     0.221 C 
ATOM     37  O   UNL d   1      27.405 -16.226   1.512  0.00  0.00    -0.284 OA
ATOM     38  C   UNL d   1      28.164 -15.872  -1.281  0.00  0.00     0.021 A 
ATOM     39  C   UNL d   1      28.534 -15.517  -2.602  0.00  0.00     0.038 A 
BRANCH  35  40
ATOM     40  O   UNL d   1      26.922 -14.075   3.242  0.00  0.00    -0.304 OA
BRANCH  40  41
ATOM     41  C   UNL d   1      27.988 -13.900   4.092  0.00  0.00     0.076 C 
ATOM     42  C   UNL d   1      27.778 -13.224   5.293  0.00  0.00     0.037 C 
ATOM     43  C   UNL d   1      28.837 -13.075   6.194  0.00  0.00     0.003 C 
ATOM     44  C   UNL d   1      30.054 -13.719   5.963  0.00  0.00     0.000 C 
ATOM     45  C   UNL d   1      30.257 -14.400   4.767  0.00  0.00     0.003 C 
ATOM     46  C   UNL d   1      29.258 -14.401   3.790  0.00  0.00     0.037 C 
ENDBRANCH  40  41
ENDBRANCH  35  40
ENDBRANCH  27  28
ENDBRANCH  25  27
ENDBRANCH   1  25
TORSDOF 11
ENDMDL
MODEL 7
REMARK VINA RESULT:    -8.903      4.285      9.771
REMARK INTER + INTRA:         -16.909
REMARK INTER:                 -12.184
REMARK INTRA:                  -4.725
REMARK CONF_INDEPENDENT:        3.281
REMARK UNBOUND:                -4.725
REMARK  11 active torsions:
REMARK  status: ('A' for Active; 'I' for Inactive)
REMARK    1  A    between atoms: C_6  and  O_7 
REMARK    2  A    between atoms: O_7  and  C_8 
REMARK    3  A    between atoms: C_10  and  C_8 
REMARK    4  A    between atoms: C_10  and  N_21 
REMARK    5  A    between atoms: C_10  and  C_11 
REMARK    6  A    between atoms: C_11  and  C_12 
REMARK       I    between atoms: N_21  and  C_22 
REMARK    7  A    between atoms: C_22  and  O_24 
REMARK    8  A    between atoms: O_24  and  C_25 
REMARK    9  A    between atoms: C_25  and  C_26 
REMARK   10  A    between atoms: C_37  and  O_38 
REMARK   11  A    between atoms: O_38  and  C_39 
ROOT
ATOM      1  C   UNL d   1      26.530 -13.474  -3.972  0.00  0.00     0.191 C 
ENDROOT
BRANCH   1   2
ATOM      2  N   UNL d   1      27.802 -14.056  -4.397  0.00  0.00    -0.323 N 
ATOM      3  C   UNL d   1      27.825 -15.054  -5.336  0.00  0.00     0.361 C 
ATOM      4  O   UNL d   1      26.819 -15.575  -5.816  0.00  0.00    -0.238 OA
ATOM      5  H   UNL d   1      28.681 -13.730  -4.017  0.00  0.00     0.165 HD
BRANCH   3   6
ATOM      6  O   UNL d   1      29.087 -15.352  -5.704  0.00  0.00    -0.299 OA
BRANCH   6   7
ATOM      7  C   UNL d   1      29.578 -16.614  -5.202  0.00  0.00     0.219 C 
BRANCH   7   8
ATOM      8  C   UNL d   1      30.113 -16.455  -3.792  0.00  0.00    -0.034 A 
ATOM      9  C   UNL d   1      30.198 -17.550  -2.914  0.00  0.00     0.009 A 
ATOM     10  C   UNL d   1      30.543 -17.354  -1.571  0.00  0.00     0.001 A 
ATOM     11  C   UNL d   1      30.886 -16.083  -1.111  0.00  0.00     0.000 A 
ATOM     12  C   UNL d   1      30.836 -14.999  -1.980  0.00  0.00     0.001 A 
ATOM     13  C   UNL d   1      30.440 -15.184  -3.302  0.00  0.00     0.009 A 
ENDBRANCH   7   8
ENDBRANCH   6   7
ENDBRANCH   3   6
ENDBRANCH   1   2
BRANCH   1  14
ATOM     14  C   UNL d   1      25.494 -14.497  -3.409  0.00  0.00     0.076 C 
BRANCH  14  15
ATOM     15  C   UNL d   1      26.034 -15.427  -2.320  0.00  0.00    -0.028 A 
ATOM     16  C   UNL d   1      27.361 -15.702  -2.022  0.00  0.00     0.096 A 
ATOM     17  N   UNL d   1      27.420 -16.720  -1.114  0.00  0.00    -0.365 N 
ATOM     18  C   UNL d   1      26.154 -17.072  -0.728  0.00  0.00     0.042 A 
ATOM     19  H   UNL d   1      28.273 -17.163  -0.798  0.00  0.00     0.165 HD
ATOM     20  C   UNL d   1      25.738 -18.031   0.201  0.00  0.00     0.030 A 
ATOM     21  C   UNL d   1      25.265 -16.286  -1.468  0.00  0.00    -0.002 A 
ATOM     22  C   UNL d   1      24.364 -18.194   0.381  0.00  0.00     0.002 A 
ATOM     23  C   UNL d   1      23.449 -17.433  -0.345  0.00  0.00     0.001 A 
ATOM     24  C   UNL d   1      23.885 -16.484  -1.276  0.00  0.00     0.014 A 
ENDBRANCH  14  15
ENDBRANCH   1  14
BRANCH   1  25
ATOM     25  C   UNL d   1      26.723 -12.419  -2.873  0.00  0.00     0.287 C 
ATOM     26  O   UNL d   1      25.871 -11.559  -2.693  0.00  0.00    -0.262 OA
BRANCH  25  27
ATOM     27  O   UNL d   1      27.917 -12.485  -2.158  0.00  0.00    -0.277 OA
BRANCH  27  28
ATOM     28  C   UNL d   1      27.885 -12.825  -0.787  0.00  0.00     0.082 A 
ATOM     29  C   UNL d   1      29.028 -13.111  -0.066  0.00  0.00     0.075 A 
ATOM     30  C   UNL d   1      28.980 -13.456   1.258  0.00  0.00     0.092 A 
ATOM     31  O   UNL d   1      30.205 -13.674   1.772  0.00  0.00    -0.311 OA
ATOM     32  C   UNL d   1      27.796 -13.548   1.935  0.00  0.00     0.051 A 
ATOM     33  C   UNL d   1      30.318 -14.256   2.997  0.00  0.00     0.087 C 
ATOM     34  C   UNL d   1      31.766 -14.593   3.187  0.00  0.00     0.080 C 
ATOM     35  C   UNL d   1      29.266 -14.450   3.832  0.00  0.00     0.156 C 
ATOM     36  C   UNL d   1      27.892 -14.012   3.333  0.00  0.00     0.221 C 
ATOM     37  O   UNL d   1      26.884 -14.062   4.028  0.00  0.00    -0.284 OA
ATOM     38  C   UNL d   1      26.614 -13.229   1.247  0.00  0.00     0.021 A 
ATOM     39  C   UNL d   1      26.658 -12.881  -0.126  0.00  0.00     0.038 A 
BRANCH  35  40
ATOM     40  O   UNL d   1      29.282 -15.037   5.098  0.00  0.00    -0.304 OA
BRANCH  40  41
ATOM     41  C   UNL d   1      29.359 -14.258   6.229  0.00  0.00     0.076 C 
ATOM     42  C   UNL d   1      28.348 -13.327   6.466  0.00  0.00     0.037 C 
ATOM     43  C   UNL d   1      28.381 -12.557   7.632  0.00  0.00     0.003 C 
ATOM     44  C   UNL d   1      29.333 -12.815   8.620  0.00  0.00     0.000 C 
ATOM     45  C   UNL d   1      30.335 -13.750   8.383  0.00  0.00     0.003 C 
ATOM     46  C   UNL d   1      30.405 -14.396   7.146  0.00  0.00     0.037 C 
ENDBRANCH  40  41
ENDBRANCH  35  40
ENDBRANCH  27  28
ENDBRANCH  25  27
ENDBRANCH   1  25
TORSDOF 11
ENDMDL
