MODEL 1
REMARK VINA RESULT:   -30.974      0.000      0.000
REMARK INTER + INTRA:         -32.519
REMARK INTER:                 -31.869
REMARK INTRA:                  -0.650
REMARK CONF_INDEPENDENT:        0.895
REMARK UNBOUND:                -0.650
REMARK  3 active torsions:
REMARK  status: ('A' for Active; 'I' for Inactive)
REMARK       I    between atoms: C_2  and  N_4 
REMARK    1  A    between atoms: N_4  and  C_5 
REMARK    2  A    between atoms: C_8  and  N_9 
REMARK       I    between atoms: N_9  and  C_10 
REMARK    3  A    between atoms: C_10  and  C_12 
ROOT
ATOM      1  C   UNL d   1      26.314 -15.702  -1.904  0.00  0.00     0.036 A 
ATOM      2  C   UNL d   1      24.979 -15.570  -2.270  0.00  0.00     0.032 A 
ATOM      3  C   UNL d   1      24.000 -16.456  -1.765  0.00  0.00     0.033 A 
ATOM      4  C   UNL d   1      24.324 -17.477  -0.835  0.00  0.00     0.057 A 
ATOM      5  C   UNL d   1      25.690 -17.561  -0.462  0.00  0.00     0.062 A 
ATOM      6 CL   UNL d   1      26.453 -18.570   0.714  0.00  0.00    -0.082 Cl
ATOM      7  C   UNL d   1      26.658 -16.714  -1.030  0.00  0.00     0.055 A 
ENDROOT
BRANCH   4   8
ATOM      8  N   UNL d   1      23.226 -18.296  -0.382  0.00  0.00    -0.320 N 
ATOM      9  C   UNL d   1      21.866 -18.029  -0.519  0.00  0.00     0.274 C 
ATOM     10  O   UNL d   1      21.341 -17.022  -0.983  0.00  0.00    -0.266 OA
ATOM     11  H   UNL d   1      23.476 -19.179   0.054  0.00  0.00     0.169 HD
BRANCH   9  12
ATOM     12  C   UNL d   1      20.859 -19.001  -0.040  0.00  0.00     0.124 A 
ATOM     13  C   UNL d   1      20.766 -19.325   1.302  0.00  0.00     0.037 A 
ATOM     14  C   UNL d   1      19.654 -20.062   1.706  0.00  0.00     0.004 A 
ATOM     15  C   UNL d   1      18.670 -20.405   0.777  0.00  0.00     0.019 A 
ATOM     16  C   UNL d   1      18.825 -19.995  -0.532  0.00  0.00     0.117 A 
ATOM     17  N   UNL d   1      19.905 -19.324  -0.960  0.00  0.00    -0.256 NA
ENDBRANCH   9  12
ENDBRANCH   4   8
BRANCH   1  18
ATOM     18  N   UNL d   1      27.336 -14.845  -2.367  0.00  0.00    -0.327 N 
ATOM     19  C   UNL d   1      27.718 -14.825  -3.698  0.00  0.00     0.218 C 
ATOM     20  C   UNL d   1      28.771 -13.800  -4.032  0.00  0.00     0.117 C 
ATOM     21  O   UNL d   1      27.242 -15.540  -4.575  0.00  0.00    -0.274 OA
ATOM     22  H   UNL d   1      27.538 -14.022  -1.809  0.00  0.00     0.169 HD
ENDBRANCH   1  18
TORSDOF 3
ENDMDL
MODEL 2
REMARK VINA RESULT:   -30.206      2.425      2.758
REMARK INTER + INTRA:         -31.484
REMARK INTER:                 -31.101
REMARK INTRA:                  -0.383
REMARK CONF_INDEPENDENT:        0.895
REMARK UNBOUND:                -0.383
REMARK  3 active torsions:
REMARK  status: ('A' for Active; 'I' for Inactive)
REMARK       I    between atoms: C_2  and  N_4 
REMARK    1  A    between atoms: N_4  and  C_5 
REMARK    2  A    between atoms: C_8  and  N_9 
REMARK       I    between atoms: N_9  and  C_10 
REMARK    3  A    between atoms: C_10  and  C_12 
ROOT
ATOM      1  C   UNL d   1      27.046 -16.721   0.095  0.00  0.00     0.036 A 
ATOM      2  C   UNL d   1      26.875 -17.932   0.758  0.00  0.00     0.032 A 
ATOM      3  C   UNL d   1      25.616 -18.575   0.774  0.00  0.00     0.033 A 
ATOM      4  C   UNL d   1      24.496 -18.045   0.083  0.00  0.00     0.057 A 
ATOM      5  C   UNL d   1      24.718 -16.825  -0.606  0.00  0.00     0.062 A 
ATOM      6 CL   UNL d   1      23.662 -15.937  -1.645  0.00  0.00    -0.082 Cl
ATOM      7  C   UNL d   1      25.959 -16.167  -0.551  0.00  0.00     0.055 A 
ENDROOT
BRANCH   4   8
ATOM      8  N   UNL d   1      23.278 -18.814   0.163  0.00  0.00    -0.320 N 
ATOM      9  C   UNL d   1      21.995 -18.392  -0.178  0.00  0.00     0.274 C 
ATOM     10  O   UNL d   1      21.643 -17.274  -0.540  0.00  0.00    -0.266 OA
ATOM     11  H   UNL d   1      23.375 -19.778   0.469  0.00  0.00     0.169 HD
BRANCH   9  12
ATOM     12  C   UNL d   1      20.850 -19.325  -0.083  0.00  0.00     0.124 A 
ATOM     13  C   UNL d   1      20.655 -20.099   1.046  0.00  0.00     0.037 A 
ATOM     14  C   UNL d   1      19.440 -20.772   1.157  0.00  0.00     0.004 A 
ATOM     15  C   UNL d   1      18.463 -20.616   0.173  0.00  0.00     0.019 A 
ATOM     16  C   UNL d   1      18.729 -19.782  -0.895  0.00  0.00     0.117 A 
ATOM     17  N   UNL d   1      19.905 -19.156  -1.052  0.00  0.00    -0.256 NA
ENDBRANCH   9  12
ENDBRANCH   4   8
BRANCH   1  18
ATOM     18  N   UNL d   1      28.279 -16.035   0.036  0.00  0.00    -0.327 N 
ATOM     19  C   UNL d   1      28.468 -14.826   0.683  0.00  0.00     0.218 C 
ATOM     20  C   UNL d   1      29.864 -14.269   0.575  0.00  0.00     0.117 C 
ATOM     21  O   UNL d   1      27.608 -14.236   1.332  0.00  0.00    -0.274 OA
ATOM     22  H   UNL d   1      29.104 -16.584  -0.181  0.00  0.00     0.169 HD
ENDBRANCH   1  18
TORSDOF 3
ENDMDL
