MODEL 1
REMARK VINA RESULT:    -9.655      0.000      0.000
REMARK INTER + INTRA:         -13.960
REMARK INTER:                 -11.445
REMARK INTRA:                  -2.516
REMARK CONF_INDEPENDENT:        1.790
REMARK UNBOUND:                -2.516
REMARK  6 active torsions:
REMARK  status: ('A' for Active; 'I' for Inactive)
REMARK    1  A    between atoms: C_7  and  N_8 
REMARK       I    between atoms: N_8  and  C_9 
REMARK    2  A    between atoms: C_9  and  C_11 
REMARK       I    between atoms: C_11  and  N_13 
REMARK    3  A    between atoms: N_13  and  C_14 
REMARK    4  A    between atoms: C_14  and  C_15 
REMARK    5  A    between atoms: C_19  and  N_20 
REMARK       I    between atoms: N_20  and  C_21 
REMARK    6  A    between atoms: C_21  and  C_23 
ROOT
ATOM      1  C   UNL d   1      25.032 -15.383  -2.717  0.00  0.00     0.161 C 
ENDROOT
BRANCH   1   2
ATOM      2  N   UNL d   1      26.068 -15.537  -3.707  0.00  0.00    -0.349 N 
ATOM      3  C   UNL d   1      27.392 -15.158  -3.577  0.00  0.00     0.309 C 
ATOM      4  O   UNL d   1      27.923 -14.609  -2.624  0.00  0.00    -0.262 OA
ATOM      5  H   UNL d   1      25.889 -16.006  -4.599  0.00  0.00     0.163 HD
BRANCH   3   6
ATOM      6  C   UNL d   1      28.161 -15.538  -4.846  0.00  0.00     0.314 C 
ATOM      7  N   UNL d   1      29.465 -16.028  -4.762  0.00  0.00    -0.319 N 
ATOM      8  H   UNL d   1      29.826 -16.114  -3.816  0.00  0.00     0.169 HD
ATOM      9  O   UNL d   1      27.454 -15.336  -5.828  0.00  0.00    -0.262 OA
BRANCH   7  10
ATOM     10  C   UNL d   1      30.348 -16.426  -5.838  0.00  0.00     0.041 A 
ATOM     11  C   UNL d   1      30.831 -15.427  -6.714  0.00  0.00     0.030 A 
ATOM     12  C   UNL d   1      31.703 -15.735  -7.785  0.00  0.00     0.002 A 
ATOM     13  C   UNL d   1      32.108 -17.041  -8.017  0.00  0.00     0.001 A 
ATOM     14  C   UNL d   1      31.647 -18.035  -7.178  0.00  0.00     0.009 A 
ATOM     15  C   UNL d   1      30.785 -17.745  -6.101  0.00  0.00    -0.035 A 
ATOM     16  C   UNL d   1      30.404 -18.941  -5.299  0.00  0.00     0.050 C 
ENDBRANCH   7  10
ENDBRANCH   3   6
ENDBRANCH   1   2
BRANCH   1  17
ATOM     17  C   UNL d   1      25.058 -16.357  -1.551  0.00  0.00    -0.038 A 
ATOM     18  C   UNL d   1      26.260 -16.672  -0.911  0.00  0.00     0.009 A 
ATOM     19  C   UNL d   1      26.280 -17.585   0.154  0.00  0.00     0.003 A 
ATOM     20  C   UNL d   1      25.095 -18.201   0.602  0.00  0.00     0.029 A 
ATOM     21  C   UNL d   1      23.878 -17.897  -0.014  0.00  0.00     0.035 A 
ATOM     22  C   UNL d   1      23.903 -16.984  -1.072  0.00  0.00     0.038 A 
BRANCH  21  23
ATOM     23  N   UNL d   1      22.652 -18.485   0.419  0.00  0.00    -0.321 N 
ATOM     24  C   UNL d   1      21.636 -18.963  -0.427  0.00  0.00     0.279 C 
ATOM     25  O   UNL d   1      21.679 -18.964  -1.653  0.00  0.00    -0.265 OA
ATOM     26  H   UNL d   1      22.526 -18.609   1.415  0.00  0.00     0.169 HD
BRANCH  24  27
ATOM     27  C   UNL d   1      20.456 -19.481   0.229  0.00  0.00     0.142 A 
ATOM     28  C   UNL d   1      19.308 -20.078  -0.247  0.00  0.00     0.045 A 
ATOM     29  C   UNL d   1      18.568 -20.499   0.887  0.00  0.00     0.027 A 
ATOM     30  C   UNL d   1      19.308 -20.138   1.988  0.00  0.00     0.143 A 
ATOM     31  O   UNL d   1      20.458 -19.534   1.601  0.00  0.00    -0.317 OA
ENDBRANCH  24  27
ENDBRANCH  21  23
ENDBRANCH   1  17
TORSDOF 6
ENDMDL
MODEL 2
REMARK VINA RESULT:    -9.606      0.330      1.316
REMARK INTER + INTRA:         -13.883
REMARK INTER:                 -11.396
REMARK INTRA:                  -2.487
REMARK CONF_INDEPENDENT:        1.790
REMARK UNBOUND:                -2.487
REMARK  6 active torsions:
REMARK  status: ('A' for Active; 'I' for Inactive)
REMARK    1  A    between atoms: C_7  and  N_8 
REMARK       I    between atoms: N_8  and  C_9 
REMARK    2  A    between atoms: C_9  and  C_11 
REMARK       I    between atoms: C_11  and  N_13 
REMARK    3  A    between atoms: N_13  and  C_14 
REMARK    4  A    between atoms: C_14  and  C_15 
REMARK    5  A    between atoms: C_19  and  N_20 
REMARK       I    between atoms: N_20  and  C_21 
REMARK    6  A    between atoms: C_21  and  C_23 
ROOT
ATOM      1  C   UNL d   1      24.980 -15.356  -2.691  0.00  0.00     0.161 C 
ENDROOT
BRANCH   1   2
ATOM      2  N   UNL d   1      25.998 -15.518  -3.697  0.00  0.00    -0.349 N 
ATOM      3  C   UNL d   1      27.331 -15.162  -3.583  0.00  0.00     0.309 C 
ATOM      4  O   UNL d   1      27.885 -14.630  -2.633  0.00  0.00    -0.262 OA
ATOM      5  H   UNL d   1      25.799 -15.975  -4.590  0.00  0.00     0.163 HD
BRANCH   3   6
ATOM      6  C   UNL d   1      28.075 -15.542  -4.867  0.00  0.00     0.314 C 
ATOM      7  N   UNL d   1      29.321 -16.165  -4.802  0.00  0.00    -0.319 N 
ATOM      8  H   UNL d   1      29.660 -16.342  -3.861  0.00  0.00     0.169 HD
ATOM      9  O   UNL d   1      27.404 -15.214  -5.840  0.00  0.00    -0.262 OA
BRANCH   7  10
ATOM     10  C   UNL d   1      30.174 -16.587  -5.894  0.00  0.00     0.041 A 
ATOM     11  C   UNL d   1      30.406 -17.970  -6.068  0.00  0.00     0.030 A 
ATOM     12  C   UNL d   1      31.222 -18.463  -7.115  0.00  0.00     0.002 A 
ATOM     13  C   UNL d   1      31.833 -17.593  -8.006  0.00  0.00     0.001 A 
ATOM     14  C   UNL d   1      31.625 -16.237  -7.854  0.00  0.00     0.009 A 
ATOM     15  C   UNL d   1      30.809 -15.730  -6.823  0.00  0.00    -0.035 A 
ATOM     16  C   UNL d   1      30.692 -14.245  -6.825  0.00  0.00     0.050 C 
ENDBRANCH   7  10
ENDBRANCH   3   6
ENDBRANCH   1   2
BRANCH   1  17
ATOM     17  C   UNL d   1      25.010 -16.338  -1.531  0.00  0.00    -0.038 A 
ATOM     18  C   UNL d   1      26.213 -16.655  -0.895  0.00  0.00     0.009 A 
ATOM     19  C   UNL d   1      26.237 -17.576   0.163  0.00  0.00     0.003 A 
ATOM     20  C   UNL d   1      25.054 -18.197   0.608  0.00  0.00     0.029 A 
ATOM     21  C   UNL d   1      23.835 -17.892  -0.004  0.00  0.00     0.035 A 
ATOM     22  C   UNL d   1      23.857 -16.971  -1.056  0.00  0.00     0.038 A 
BRANCH  21  23
ATOM     23  N   UNL d   1      22.611 -18.486   0.427  0.00  0.00    -0.321 N 
ATOM     24  C   UNL d   1      21.592 -18.955  -0.422  0.00  0.00     0.279 C 
ATOM     25  O   UNL d   1      21.632 -18.943  -1.648  0.00  0.00    -0.265 OA
ATOM     26  H   UNL d   1      22.488 -18.621   1.422  0.00  0.00     0.169 HD
BRANCH  24  27
ATOM     27  C   UNL d   1      20.415 -19.482   0.233  0.00  0.00     0.142 A 
ATOM     28  C   UNL d   1      19.309 -20.160  -0.236  0.00  0.00     0.045 A 
ATOM     29  C   UNL d   1      18.552 -20.538   0.901  0.00  0.00     0.027 A 
ATOM     30  C   UNL d   1      19.240 -20.073   1.997  0.00  0.00     0.143 A 
ATOM     31  O   UNL d   1      20.375 -19.445   1.604  0.00  0.00    -0.317 OA
ENDBRANCH  24  27
ENDBRANCH  21  23
ENDBRANCH   1  17
TORSDOF 6
ENDMDL
MODEL 3
REMARK VINA RESULT:    -9.548      3.875      5.836
REMARK INTER + INTRA:         -13.875
REMARK INTER:                 -11.338
REMARK INTRA:                  -2.537
REMARK CONF_INDEPENDENT:        1.790
REMARK UNBOUND:                -2.537
REMARK  6 active torsions:
REMARK  status: ('A' for Active; 'I' for Inactive)
REMARK    1  A    between atoms: C_7  and  N_8 
REMARK       I    between atoms: N_8  and  C_9 
REMARK    2  A    between atoms: C_9  and  C_11 
REMARK       I    between atoms: C_11  and  N_13 
REMARK    3  A    between atoms: N_13  and  C_14 
REMARK    4  A    between atoms: C_14  and  C_15 
REMARK    5  A    between atoms: C_19  and  N_20 
REMARK       I    between atoms: N_20  and  C_21 
REMARK    6  A    between atoms: C_21  and  C_23 
ROOT
ATOM      1  C   UNL d   1      25.539 -15.946  -3.012  0.00  0.00     0.161 C 
ENDROOT
BRANCH   1   2
ATOM      2  N   UNL d   1      25.770 -14.528  -2.904  0.00  0.00    -0.349 N 
ATOM      3  C   UNL d   1      25.208 -13.541  -3.694  0.00  0.00     0.309 C 
ATOM      4  O   UNL d   1      24.441 -13.681  -4.635  0.00  0.00    -0.262 OA
ATOM      5  H   UNL d   1      26.358 -14.137  -2.164  0.00  0.00     0.163 HD
BRANCH   3   6
ATOM      6  C   UNL d   1      25.689 -12.167  -3.218  0.00  0.00     0.314 C 
ATOM      7  N   UNL d   1      25.354 -11.015  -3.932  0.00  0.00    -0.319 N 
ATOM      8  H   UNL d   1      24.777 -11.176  -4.752  0.00  0.00     0.169 HD
ATOM      9  O   UNL d   1      26.351 -12.298  -2.194  0.00  0.00    -0.262 OA
BRANCH   7  10
ATOM     10  C   UNL d   1      25.720  -9.643  -3.648  0.00  0.00     0.041 A 
ATOM     11  C   UNL d   1      26.583  -9.390  -2.558  0.00  0.00     0.030 A 
ATOM     12  C   UNL d   1      26.992  -8.078  -2.220  0.00  0.00     0.002 A 
ATOM     13  C   UNL d   1      26.546  -6.987  -2.952  0.00  0.00     0.001 A 
ATOM     14  C   UNL d   1      25.700  -7.207  -4.020  0.00  0.00     0.009 A 
ATOM     15  C   UNL d   1      25.290  -8.508  -4.374  0.00  0.00    -0.035 A 
ATOM     16  C   UNL d   1      24.389  -8.551  -5.560  0.00  0.00     0.050 C 
ENDBRANCH   7  10
ENDBRANCH   3   6
ENDBRANCH   1   2
BRANCH   1  17
ATOM     17  C   UNL d   1      25.468 -16.723  -1.708  0.00  0.00    -0.038 A 
ATOM     18  C   UNL d   1      26.610 -16.910  -0.926  0.00  0.00     0.009 A 
ATOM     19  C   UNL d   1      26.542 -17.644   0.268  0.00  0.00     0.003 A 
ATOM     20  C   UNL d   1      25.325 -18.204   0.705  0.00  0.00     0.029 A 
ATOM     21  C   UNL d   1      24.165 -18.024  -0.053  0.00  0.00     0.035 A 
ATOM     22  C   UNL d   1      24.278 -17.289  -1.237  0.00  0.00     0.038 A 
BRANCH  21  23
ATOM     23  N   UNL d   1      22.909 -18.560   0.361  0.00  0.00    -0.321 N 
ATOM     24  C   UNL d   1      21.876 -18.971  -0.501  0.00  0.00     0.279 C 
ATOM     25  O   UNL d   1      21.928 -18.950  -1.726  0.00  0.00    -0.265 OA
ATOM     26  H   UNL d   1      22.770 -18.697   1.353  0.00  0.00     0.169 HD
BRANCH  24  27
ATOM     27  C   UNL d   1      20.668 -19.444   0.138  0.00  0.00     0.142 A 
ATOM     28  C   UNL d   1      19.540 -20.072  -0.345  0.00  0.00     0.045 A 
ATOM     29  C   UNL d   1      18.751 -20.415   0.782  0.00  0.00     0.027 A 
ATOM     30  C   UNL d   1      19.444 -19.980   1.887  0.00  0.00     0.143 A 
ATOM     31  O   UNL d   1      20.611 -19.403   1.509  0.00  0.00    -0.317 OA
ENDBRANCH  24  27
ENDBRANCH  21  23
ENDBRANCH   1  17
TORSDOF 6
ENDMDL
MODEL 4
REMARK VINA RESULT:    -9.546      1.328      1.844
REMARK INTER + INTRA:         -13.996
REMARK INTER:                 -11.336
REMARK INTRA:                  -2.660
REMARK CONF_INDEPENDENT:        1.790
REMARK UNBOUND:                -2.660
REMARK  6 active torsions:
REMARK  status: ('A' for Active; 'I' for Inactive)
REMARK    1  A    between atoms: C_7  and  N_8 
REMARK       I    between atoms: N_8  and  C_9 
REMARK    2  A    between atoms: C_9  and  C_11 
REMARK       I    between atoms: C_11  and  N_13 
REMARK    3  A    between atoms: N_13  and  C_14 
REMARK    4  A    between atoms: C_14  and  C_15 
REMARK    5  A    between atoms: C_19  and  N_20 
REMARK       I    between atoms: N_20  and  C_21 
REMARK    6  A    between atoms: C_21  and  C_23 
ROOT
ATOM      1  C   UNL d   1      24.577 -15.102  -2.395  0.00  0.00     0.161 C 
ENDROOT
BRANCH   1   2
ATOM      2  N   UNL d   1      25.744 -14.783  -3.179  0.00  0.00    -0.349 N 
ATOM      3  C   UNL d   1      25.950 -15.097  -4.511  0.00  0.00     0.309 C 
ATOM      4  O   UNL d   1      25.206 -15.714  -5.258  0.00  0.00    -0.262 OA
ATOM      5  H   UNL d   1      26.514 -14.232  -2.792  0.00  0.00     0.163 HD
BRANCH   3   6
ATOM      6  C   UNL d   1      27.302 -14.539  -4.966  0.00  0.00     0.314 C 
ATOM      7  N   UNL d   1      27.850 -14.927  -6.189  0.00  0.00    -0.319 N 
ATOM      8  H   UNL d   1      27.279 -15.575  -6.724  0.00  0.00     0.169 HD
ATOM      9  O   UNL d   1      27.735 -13.772  -4.113  0.00  0.00    -0.262 OA
BRANCH   7  10
ATOM     10  C   UNL d   1      29.108 -14.521  -6.780  0.00  0.00     0.041 A 
ATOM     11  C   UNL d   1      29.198 -13.228  -7.345  0.00  0.00     0.030 A 
ATOM     12  C   UNL d   1      30.394 -12.755  -7.935  0.00  0.00     0.002 A 
ATOM     13  C   UNL d   1      31.525 -13.558  -7.987  0.00  0.00     0.001 A 
ATOM     14  C   UNL d   1      31.461 -14.826  -7.445  0.00  0.00     0.009 A 
ATOM     15  C   UNL d   1      30.280 -15.309  -6.846  0.00  0.00    -0.035 A 
ATOM     16  C   UNL d   1      30.405 -16.692  -6.306  0.00  0.00     0.050 C 
ENDBRANCH   7  10
ENDBRANCH   3   6
ENDBRANCH   1   2
BRANCH   1  17
ATOM     17  C   UNL d   1      24.690 -16.303  -1.470  0.00  0.00    -0.038 A 
ATOM     18  C   UNL d   1      25.940 -16.804  -1.100  0.00  0.00     0.009 A 
ATOM     19  C   UNL d   1      26.037 -17.923  -0.259  0.00  0.00     0.003 A 
ATOM     20  C   UNL d   1      24.882 -18.563   0.230  0.00  0.00     0.029 A 
ATOM     21  C   UNL d   1      23.618 -18.078  -0.117  0.00  0.00     0.035 A 
ATOM     22  C   UNL d   1      23.567 -16.962  -0.958  0.00  0.00     0.038 A 
BRANCH  21  23
ATOM     23  N   UNL d   1      22.423 -18.685   0.370  0.00  0.00    -0.321 N 
ATOM     24  C   UNL d   1      21.377 -19.180  -0.431  0.00  0.00     0.279 C 
ATOM     25  O   UNL d   1      21.366 -19.181  -1.658  0.00  0.00    -0.265 OA
ATOM     26  H   UNL d   1      22.343 -18.812   1.370  0.00  0.00     0.169 HD
BRANCH  24  27
ATOM     27  C   UNL d   1      20.237 -19.718   0.277  0.00  0.00     0.142 A 
ATOM     28  C   UNL d   1      19.099 -20.373  -0.145  0.00  0.00     0.045 A 
ATOM     29  C   UNL d   1      18.407 -20.780   1.023  0.00  0.00     0.027 A 
ATOM     30  C   UNL d   1      19.163 -20.353   2.090  0.00  0.00     0.143 A 
ATOM     31  O   UNL d   1      20.278 -19.721   1.648  0.00  0.00    -0.317 OA
ENDBRANCH  24  27
ENDBRANCH  21  23
ENDBRANCH   1  17
TORSDOF 6
ENDMDL
MODEL 5
REMARK VINA RESULT:    -9.428      1.500      2.391
REMARK INTER + INTRA:         -13.904
REMARK INTER:                 -11.218
REMARK INTRA:                  -2.685
REMARK CONF_INDEPENDENT:        1.790
REMARK UNBOUND:                -2.685
REMARK  6 active torsions:
REMARK  status: ('A' for Active; 'I' for Inactive)
REMARK    1  A    between atoms: C_7  and  N_8 
REMARK       I    between atoms: N_8  and  C_9 
REMARK    2  A    between atoms: C_9  and  C_11 
REMARK       I    between atoms: C_11  and  N_13 
REMARK    3  A    between atoms: N_13  and  C_14 
REMARK    4  A    between atoms: C_14  and  C_15 
REMARK    5  A    between atoms: C_19  and  N_20 
REMARK       I    between atoms: N_20  and  C_21 
REMARK    6  A    between atoms: C_21  and  C_23 
ROOT
ATOM      1  C   UNL d   1      24.675 -15.051  -2.435  0.00  0.00     0.161 C 
ENDROOT
BRANCH   1   2
ATOM      2  N   UNL d   1      25.847 -14.743  -3.216  0.00  0.00    -0.349 N 
ATOM      3  C   UNL d   1      26.109 -15.168  -4.507  0.00  0.00     0.309 C 
ATOM      4  O   UNL d   1      25.421 -15.892  -5.211  0.00  0.00    -0.262 OA
ATOM      5  H   UNL d   1      26.575 -14.117  -2.864  0.00  0.00     0.163 HD
BRANCH   3   6
ATOM      6  C   UNL d   1      27.443 -14.582  -4.978  0.00  0.00     0.314 C 
ATOM      7  N   UNL d   1      27.937 -14.883  -6.248  0.00  0.00    -0.319 N 
ATOM      8  H   UNL d   1      27.341 -15.491  -6.803  0.00  0.00     0.169 HD
ATOM      9  O   UNL d   1      27.916 -13.878  -4.093  0.00  0.00    -0.262 OA
BRANCH   7  10
ATOM     10  C   UNL d   1      29.171 -14.440  -6.862  0.00  0.00     0.041 A 
ATOM     11  C   UNL d   1      30.311 -15.269  -6.753  0.00  0.00     0.030 A 
ATOM     12  C   UNL d   1      31.551 -14.909  -7.331  0.00  0.00     0.002 A 
ATOM     13  C   UNL d   1      31.691 -13.715  -8.023  0.00  0.00     0.001 A 
ATOM     14  C   UNL d   1      30.594 -12.887  -8.141  0.00  0.00     0.009 A 
ATOM     15  C   UNL d   1      29.349 -13.233  -7.578  0.00  0.00    -0.035 A 
ATOM     16  C   UNL d   1      28.280 -12.224  -7.819  0.00  0.00     0.050 C 
ENDBRANCH   7  10
ENDBRANCH   3   6
ENDBRANCH   1   2
BRANCH   1  17
ATOM     17  C   UNL d   1      24.785 -16.232  -1.485  0.00  0.00    -0.038 A 
ATOM     18  C   UNL d   1      26.034 -16.719  -1.093  0.00  0.00     0.009 A 
ATOM     19  C   UNL d   1      26.129 -17.821  -0.229  0.00  0.00     0.003 A 
ATOM     20  C   UNL d   1      24.972 -18.458   0.260  0.00  0.00     0.029 A 
ATOM     21  C   UNL d   1      23.709 -17.986  -0.110  0.00  0.00     0.035 A 
ATOM     22  C   UNL d   1      23.660 -16.888  -0.973  0.00  0.00     0.038 A 
BRANCH  21  23
ATOM     23  N   UNL d   1      22.512 -18.591   0.377  0.00  0.00    -0.321 N 
ATOM     24  C   UNL d   1      21.440 -19.030  -0.422  0.00  0.00     0.279 C 
ATOM     25  O   UNL d   1      21.403 -18.977  -1.647  0.00  0.00    -0.265 OA
ATOM     26  H   UNL d   1      22.450 -18.760   1.372  0.00  0.00     0.169 HD
BRANCH  24  27
ATOM     27  C   UNL d   1      20.303 -19.576   0.287  0.00  0.00     0.142 A 
ATOM     28  C   UNL d   1      19.132 -20.165  -0.139  0.00  0.00     0.045 A 
ATOM     29  C   UNL d   1      18.462 -20.625   1.023  0.00  0.00     0.027 A 
ATOM     30  C   UNL d   1      19.265 -20.294   2.089  0.00  0.00     0.143 A 
ATOM     31  O   UNL d   1      20.387 -19.670   1.653  0.00  0.00    -0.317 OA
ENDBRANCH  24  27
ENDBRANCH  21  23
ENDBRANCH   1  17
TORSDOF 6
ENDMDL
MODEL 6
REMARK VINA RESULT:    -9.123      4.554      7.460
REMARK INTER + INTRA:         -13.271
REMARK INTER:                 -10.913
REMARK INTRA:                  -2.358
REMARK CONF_INDEPENDENT:        1.790
REMARK UNBOUND:                -2.358
REMARK  6 active torsions:
REMARK  status: ('A' for Active; 'I' for Inactive)
REMARK    1  A    between atoms: C_7  and  N_8 
REMARK       I    between atoms: N_8  and  C_9 
REMARK    2  A    between atoms: C_9  and  C_11 
REMARK       I    between atoms: C_11  and  N_13 
REMARK    3  A    between atoms: N_13  and  C_14 
REMARK    4  A    between atoms: C_14  and  C_15 
REMARK    5  A    between atoms: C_19  and  N_20 
REMARK       I    between atoms: N_20  and  C_21 
REMARK    6  A    between atoms: C_21  and  C_23 
ROOT
ATOM      1  C   UNL d   1      27.275 -17.415   0.100  0.00  0.00     0.161 C 
ENDROOT
BRANCH   1   2
ATOM      2  N   UNL d   1      27.777 -16.442   1.036  0.00  0.00    -0.349 N 
ATOM      3  C   UNL d   1      27.347 -15.134   1.172  0.00  0.00     0.309 C 
ATOM      4  O   UNL d   1      26.491 -14.556   0.520  0.00  0.00    -0.262 OA
ATOM      5  H   UNL d   1      28.489 -16.685   1.730  0.00  0.00     0.163 HD
BRANCH   3   6
ATOM      6  C   UNL d   1      28.117 -14.457   2.310  0.00  0.00     0.314 C 
ATOM      7  N   UNL d   1      27.440 -13.705   3.271  0.00  0.00    -0.319 N 
ATOM      8  H   UNL d   1      26.432 -13.667   3.148  0.00  0.00     0.169 HD
ATOM      9  O   UNL d   1      29.314 -14.699   2.195  0.00  0.00    -0.262 OA
BRANCH   7  10
ATOM     10  C   UNL d   1      27.989 -12.989   4.404  0.00  0.00     0.041 A 
ATOM     11  C   UNL d   1      28.033 -11.577   4.347  0.00  0.00     0.030 A 
ATOM     12  C   UNL d   1      28.548 -10.804   5.415  0.00  0.00     0.002 A 
ATOM     13  C   UNL d   1      29.038 -11.416   6.560  0.00  0.00     0.001 A 
ATOM     14  C   UNL d   1      29.008 -12.793   6.638  0.00  0.00     0.009 A 
ATOM     15  C   UNL d   1      28.492 -13.577   5.587  0.00  0.00    -0.035 A 
ATOM     16  C   UNL d   1      28.530 -15.042   5.856  0.00  0.00     0.050 C 
ENDBRANCH   7  10
ENDBRANCH   3   6
ENDBRANCH   1   2
BRANCH   1  17
ATOM     17  C   UNL d   1      25.850 -17.213  -0.390  0.00  0.00    -0.038 A 
ATOM     18  C   UNL d   1      25.571 -16.312  -1.421  0.00  0.00     0.009 A 
ATOM     19  C   UNL d   1      24.252 -16.117  -1.857  0.00  0.00     0.003 A 
ATOM     20  C   UNL d   1      23.184 -16.822  -1.269  0.00  0.00     0.029 A 
ATOM     21  C   UNL d   1      23.435 -17.736  -0.242  0.00  0.00     0.035 A 
ATOM     22  C   UNL d   1      24.763 -17.898   0.163  0.00  0.00     0.038 A 
BRANCH  21  23
ATOM     23  N   UNL d   1      22.385 -18.484   0.369  0.00  0.00    -0.321 N 
ATOM     24  C   UNL d   1      21.298 -19.065  -0.311  0.00  0.00     0.279 C 
ATOM     25  O   UNL d   1      21.123 -19.030  -1.524  0.00  0.00    -0.265 OA
ATOM     26  H   UNL d   1      22.453 -18.648   1.364  0.00  0.00     0.169 HD
BRANCH  24  27
ATOM     27  C   UNL d   1      20.324 -19.744   0.515  0.00  0.00     0.142 A 
ATOM     28  C   UNL d   1      19.306 -20.627   0.224  0.00  0.00     0.045 A 
ATOM     29  C   UNL d   1      18.776 -21.059   1.466  0.00  0.00     0.027 A 
ATOM     30  C   UNL d   1      19.503 -20.419   2.442  0.00  0.00     0.143 A 
ATOM     31  O   UNL d   1      20.450 -19.631   1.877  0.00  0.00    -0.317 OA
ENDBRANCH  24  27
ENDBRANCH  21  23
ENDBRANCH   1  17
TORSDOF 6
ENDMDL
MODEL 7
REMARK VINA RESULT:    -8.553      4.748      7.434
REMARK INTER + INTRA:         -12.943
REMARK INTER:                 -10.343
REMARK INTRA:                  -2.600
REMARK CONF_INDEPENDENT:        1.790
REMARK UNBOUND:                -2.600
REMARK  6 active torsions:
REMARK  status: ('A' for Active; 'I' for Inactive)
REMARK    1  A    between atoms: C_7  and  N_8 
REMARK       I    between atoms: N_8  and  C_9 
REMARK    2  A    between atoms: C_9  and  C_11 
REMARK       I    between atoms: C_11  and  N_13 
REMARK    3  A    between atoms: N_13  and  C_14 
REMARK    4  A    between atoms: C_14  and  C_15 
REMARK    5  A    between atoms: C_19  and  N_20 
REMARK       I    between atoms: N_20  and  C_21 
REMARK    6  A    between atoms: C_21  and  C_23 
ROOT
ATOM      1  C   UNL d   1      27.406 -17.125   0.563  0.00  0.00     0.161 C 
ENDROOT
BRANCH   1   2
ATOM      2  N   UNL d   1      27.558 -15.958   1.395  0.00  0.00    -0.349 N 
ATOM      3  C   UNL d   1      27.169 -14.668   1.081  0.00  0.00     0.309 C 
ATOM      4  O   UNL d   1      26.653 -14.273   0.047  0.00  0.00    -0.262 OA
ATOM      5  H   UNL d   1      27.940 -16.023   2.342  0.00  0.00     0.163 HD
BRANCH   3   6
ATOM      6  C   UNL d   1      27.477 -13.739   2.259  0.00  0.00     0.314 C 
ATOM      7  N   UNL d   1      27.406 -12.354   2.103  0.00  0.00    -0.319 N 
ATOM      8  H   UNL d   1      27.129 -12.045   1.176  0.00  0.00     0.169 HD
ATOM      9  O   UNL d   1      27.765 -14.410   3.244  0.00  0.00    -0.262 OA
BRANCH   7  10
ATOM     10  C   UNL d   1      27.669 -11.323   3.085  0.00  0.00     0.041 A 
ATOM     11  C   UNL d   1      28.687 -11.550   4.040  0.00  0.00     0.030 A 
ATOM     12  C   UNL d   1      29.008 -10.589   5.027  0.00  0.00     0.002 A 
ATOM     13  C   UNL d   1      28.321  -9.386   5.096  0.00  0.00     0.001 A 
ATOM     14  C   UNL d   1      27.321  -9.142   4.177  0.00  0.00     0.009 A 
ATOM     15  C   UNL d   1      26.993 -10.084   3.182  0.00  0.00    -0.035 A 
ATOM     16  C   UNL d   1      25.898  -9.642   2.274  0.00  0.00     0.050 C 
ENDBRANCH   7  10
ENDBRANCH   3   6
ENDBRANCH   1   2
BRANCH   1  17
ATOM     17  C   UNL d   1      26.106 -17.237  -0.217  0.00  0.00    -0.038 A 
ATOM     18  C   UNL d   1      26.008 -16.734  -1.516  0.00  0.00     0.009 A 
ATOM     19  C   UNL d   1      24.800 -16.825  -2.225  0.00  0.00     0.003 A 
ATOM     20  C   UNL d   1      23.664 -17.424  -1.645  0.00  0.00     0.029 A 
ATOM     21  C   UNL d   1      23.737 -17.944  -0.350  0.00  0.00     0.035 A 
ATOM     22  C   UNL d   1      24.959 -17.830   0.320  0.00  0.00     0.038 A 
BRANCH  21  23
ATOM     23  N   UNL d   1      22.616 -18.574   0.268  0.00  0.00    -0.321 N 
ATOM     24  C   UNL d   1      21.518 -19.130  -0.413  0.00  0.00     0.279 C 
ATOM     25  O   UNL d   1      21.390 -19.172  -1.632  0.00  0.00    -0.265 OA
ATOM     26  H   UNL d   1      22.637 -18.670   1.275  0.00  0.00     0.169 HD
BRANCH  24  27
ATOM     27  C   UNL d   1      20.470 -19.682   0.418  0.00  0.00     0.142 A 
ATOM     28  C   UNL d   1      19.353 -20.438   0.133  0.00  0.00     0.045 A 
ATOM     29  C   UNL d   1      18.776 -20.795   1.378  0.00  0.00     0.027 A 
ATOM     30  C   UNL d   1      19.576 -20.240   2.349  0.00  0.00     0.143 A 
ATOM     31  O   UNL d   1      20.610 -19.575   1.779  0.00  0.00    -0.317 OA
ENDBRANCH  24  27
ENDBRANCH  21  23
ENDBRANCH   1  17
TORSDOF 6
ENDMDL
MODEL 8
REMARK VINA RESULT:    -8.498      1.557     10.698
REMARK INTER + INTRA:         -12.527
REMARK INTER:                 -10.288
REMARK INTRA:                  -2.238
REMARK CONF_INDEPENDENT:        1.790
REMARK UNBOUND:                -2.238
REMARK  6 active torsions:
REMARK  status: ('A' for Active; 'I' for Inactive)
REMARK    1  A    between atoms: C_7  and  N_8 
REMARK       I    between atoms: N_8  and  C_9 
REMARK    2  A    between atoms: C_9  and  C_11 
REMARK       I    between atoms: C_11  and  N_13 
REMARK    3  A    between atoms: N_13  and  C_14 
REMARK    4  A    between atoms: C_14  and  C_15 
REMARK    5  A    between atoms: C_19  and  N_20 
REMARK       I    between atoms: N_20  and  C_21 
REMARK    6  A    between atoms: C_21  and  C_23 
ROOT
ATOM      1  C   UNL d   1      24.897 -15.835  -0.884  0.00  0.00     0.161 C 
ENDROOT
BRANCH   1   2
ATOM      2  N   UNL d   1      23.830 -16.802  -0.831  0.00  0.00    -0.349 N 
ATOM      3  C   UNL d   1      23.750 -17.892   0.017  0.00  0.00     0.309 C 
ATOM      4  O   UNL d   1      24.566 -18.253   0.852  0.00  0.00    -0.262 OA
ATOM      5  H   UNL d   1      22.995 -16.709  -1.415  0.00  0.00     0.163 HD
BRANCH   3   6
ATOM      6  C   UNL d   1      22.434 -18.637  -0.227  0.00  0.00     0.314 C 
ATOM      7  N   UNL d   1      21.604 -18.973   0.842  0.00  0.00    -0.319 N 
ATOM      8  H   UNL d   1      21.942 -18.675   1.753  0.00  0.00     0.169 HD
ATOM      9  O   UNL d   1      22.299 -18.843  -1.429  0.00  0.00    -0.262 OA
BRANCH   7  10
ATOM     10  C   UNL d   1      20.339 -19.678   0.813  0.00  0.00     0.041 A 
ATOM     11  C   UNL d   1      19.646 -19.761  -0.416  0.00  0.00     0.030 A 
ATOM     12  C   UNL d   1      18.409 -20.438  -0.529  0.00  0.00     0.002 A 
ATOM     13  C   UNL d   1      17.827 -21.040   0.578  0.00  0.00     0.001 A 
ATOM     14  C   UNL d   1      18.483 -20.970   1.790  0.00  0.00     0.009 A 
ATOM     15  C   UNL d   1      19.720 -20.307   1.918  0.00  0.00    -0.035 A 
ATOM     16  C   UNL d   1      20.282 -20.346   3.296  0.00  0.00     0.050 C 
ENDBRANCH   7  10
ENDBRANCH   3   6
ENDBRANCH   1   2
BRANCH   1  17
ATOM     17  C   UNL d   1      25.250 -15.290  -2.258  0.00  0.00    -0.038 A 
ATOM     18  C   UNL d   1      24.432 -14.345  -2.882  0.00  0.00     0.009 A 
ATOM     19  C   UNL d   1      24.753 -13.858  -4.158  0.00  0.00     0.003 A 
ATOM     20  C   UNL d   1      25.904 -14.307  -4.835  0.00  0.00     0.029 A 
ATOM     21  C   UNL d   1      26.745 -15.245  -4.230  0.00  0.00     0.035 A 
ATOM     22  C   UNL d   1      26.387 -15.705  -2.960  0.00  0.00     0.038 A 
BRANCH  21  23
ATOM     23  N   UNL d   1      27.930 -15.713  -4.873  0.00  0.00    -0.321 N 
ATOM     24  C   UNL d   1      28.638 -15.025  -5.875  0.00  0.00     0.279 C 
ATOM     25  O   UNL d   1      28.347 -13.916  -6.311  0.00  0.00    -0.265 OA
ATOM     26  H   UNL d   1      28.316 -16.590  -4.548  0.00  0.00     0.169 HD
BRANCH  24  27
ATOM     27  C   UNL d   1      29.791 -15.708  -6.419  0.00  0.00     0.142 A 
ATOM     28  C   UNL d   1      30.807 -15.303  -7.259  0.00  0.00     0.045 A 
ATOM     29  C   UNL d   1      31.729 -16.377  -7.329  0.00  0.00     0.027 A 
ATOM     30  C   UNL d   1      31.225 -17.374  -6.527  0.00  0.00     0.143 A 
ATOM     31  O   UNL d   1      30.060 -16.974  -5.962  0.00  0.00    -0.317 OA
ENDBRANCH  24  27
ENDBRANCH  21  23
ENDBRANCH   1  17
TORSDOF 6
ENDMDL
MODEL 9
REMARK VINA RESULT:    -8.261      2.942      9.572
REMARK INTER + INTRA:         -12.775
REMARK INTER:                 -10.051
REMARK INTRA:                  -2.723
REMARK CONF_INDEPENDENT:        1.790
REMARK UNBOUND:                -2.723
REMARK  6 active torsions:
REMARK  status: ('A' for Active; 'I' for Inactive)
REMARK    1  A    between atoms: C_7  and  N_8 
REMARK       I    between atoms: N_8  and  C_9 
REMARK    2  A    between atoms: C_9  and  C_11 
REMARK       I    between atoms: C_11  and  N_13 
REMARK    3  A    between atoms: N_13  and  C_14 
REMARK    4  A    between atoms: C_14  and  C_15 
REMARK    5  A    between atoms: C_19  and  N_20 
REMARK       I    between atoms: N_20  and  C_21 
REMARK    6  A    between atoms: C_21  and  C_23 
ROOT
ATOM      1  C   UNL d   1      25.921 -11.282  -4.903  0.00  0.00     0.161 C 
ENDROOT
BRANCH   1   2
ATOM      2  N   UNL d   1      25.403 -12.426  -4.196  0.00  0.00    -0.349 N 
ATOM      3  C   UNL d   1      26.138 -13.343  -3.465  0.00  0.00     0.309 C 
ATOM      4  O   UNL d   1      27.349 -13.371  -3.301  0.00  0.00    -0.262 OA
ATOM      5  H   UNL d   1      24.399 -12.616  -4.149  0.00  0.00     0.163 HD
BRANCH   3   6
ATOM      6  C   UNL d   1      25.196 -14.378  -2.845  0.00  0.00     0.314 C 
ATOM      7  N   UNL d   1      25.660 -15.260  -1.868  0.00  0.00    -0.319 N 
ATOM      8  H   UNL d   1      26.637 -15.139  -1.617  0.00  0.00     0.169 HD
ATOM      9  O   UNL d   1      24.081 -14.266  -3.343  0.00  0.00    -0.262 OA
BRANCH   7  10
ATOM     10  C   UNL d   1      24.931 -16.305  -1.179  0.00  0.00     0.041 A 
ATOM     11  C   UNL d   1      23.520 -16.310  -1.270  0.00  0.00     0.030 A 
ATOM     12  C   UNL d   1      22.737 -17.300  -0.631  0.00  0.00     0.002 A 
ATOM     13  C   UNL d   1      23.335 -18.302   0.120  0.00  0.00     0.001 A 
ATOM     14  C   UNL d   1      24.711 -18.316   0.226  0.00  0.00     0.009 A 
ATOM     15  C   UNL d   1      25.507 -17.343  -0.411  0.00  0.00    -0.035 A 
ATOM     16  C   UNL d   1      26.969 -17.527  -0.194  0.00  0.00     0.050 C 
ENDBRANCH   7  10
ENDBRANCH   3   6
ENDBRANCH   1   2
BRANCH   1  17
ATOM     17  C   UNL d   1      26.746 -11.569  -6.147  0.00  0.00    -0.038 A 
ATOM     18  C   UNL d   1      26.640 -10.753  -7.276  0.00  0.00     0.009 A 
ATOM     19  C   UNL d   1      27.392 -11.034  -8.428  0.00  0.00     0.003 A 
ATOM     20  C   UNL d   1      28.266 -12.137  -8.471  0.00  0.00     0.029 A 
ATOM     21  C   UNL d   1      28.397 -12.964  -7.352  0.00  0.00     0.035 A 
ATOM     22  C   UNL d   1      27.629 -12.650  -6.227  0.00  0.00     0.038 A 
BRANCH  21  23
ATOM     23  N   UNL d   1      29.284 -14.082  -7.347  0.00  0.00    -0.321 N 
ATOM     24  C   UNL d   1      29.156 -15.218  -6.527  0.00  0.00     0.279 C 
ATOM     25  O   UNL d   1      28.248 -15.413  -5.726  0.00  0.00    -0.265 OA
ATOM     26  H   UNL d   1      30.039 -14.076  -8.021  0.00  0.00     0.169 HD
BRANCH  24  27
ATOM     27  C   UNL d   1      30.196 -16.214  -6.658  0.00  0.00     0.142 A 
ATOM     28  C   UNL d   1      30.405 -17.433  -6.048  0.00  0.00     0.045 A 
ATOM     29  C   UNL d   1      31.527 -18.020  -6.685  0.00  0.00     0.027 A 
ATOM     30  C   UNL d   1      31.936 -17.128  -7.648  0.00  0.00     0.143 A 
ATOM     31  O   UNL d   1      31.130 -16.039  -7.649  0.00  0.00    -0.317 OA
ENDBRANCH  24  27
ENDBRANCH  21  23
ENDBRANCH   1  17
TORSDOF 6
ENDMDL
