MODEL 1
REMARK VINA RESULT:    -8.127      0.000      0.000
REMARK INTER + INTRA:         -10.427
REMARK INTER:                  -9.320
REMARK INTRA:                  -1.107
REMARK CONF_INDEPENDENT:        1.193
REMARK UNBOUND:                -1.107
REMARK  4 active torsions:
REMARK  status: ('A' for Active; 'I' for Inactive)
REMARK    1  A    between atoms: C_5  and  N_6 
REMARK       I    between atoms: N_6  and  C_7 
REMARK    2  A    between atoms: C_7  and  C_9 
REMARK    3  A    between atoms: C_10  and  C_11 
REMARK    4  A    between atoms: C_18  and  O_19 
ROOT
ATOM      1  N   UNL d   1      22.004 -18.231   0.225  0.00  0.00    -0.321 N 
ATOM      2  C   UNL d   1      22.922 -18.421  -0.805  0.00  0.00     0.245 C 
ATOM      3  O   UNL d   1      22.904 -19.325  -1.640  0.00  0.00    -0.268 OA
ATOM      4  H   UNL d   1      22.152 -17.452   0.848  0.00  0.00     0.169 HD
ENDROOT
BRANCH   1   5
ATOM      5  C   UNL d   1      20.871 -19.082   0.473  0.00  0.00     0.068 A 
ATOM      6  C   UNL d   1      20.475 -19.389   1.784  0.00  0.00     0.033 A 
ATOM      7  C   UNL d   1      19.372 -20.195   2.079  0.00  0.00     0.009 A 
ATOM      8  C   UNL d   1      18.603 -20.728   1.056  0.00  0.00    -0.059 A 
ATOM      9  C   UNL d   1      17.404 -21.575   1.354  0.00  0.00     0.048 C 
ATOM     10  C   UNL d   1      18.975 -20.453  -0.263  0.00  0.00     0.045 A 
ATOM     11  C   UNL d   1      20.092 -19.649  -0.556  0.00  0.00     0.092 A 
BRANCH  11  12
ATOM     12  O   UNL d   1      20.318 -19.489  -1.897  0.00  0.00    -0.358 OA
ATOM     13  H   UNL d   1      21.068 -18.901  -2.044  0.00  0.00     0.217 HD
ENDBRANCH  11  12
ENDBRANCH   1   5
BRANCH   2  14
ATOM     14  C   UNL d   1      24.033 -17.430  -0.889  0.00  0.00     0.075 C 
ATOM     15  C   UNL d   1      25.202 -17.737  -0.288  0.00  0.00     0.017 C 
BRANCH  15  16
ATOM     16  C   UNL d   1      26.381 -16.862  -0.276  0.00  0.00    -0.036 A 
ATOM     17  C   UNL d   1      26.235 -15.471  -0.355  0.00  0.00     0.014 A 
ATOM     18  C   UNL d   1      27.355 -14.639  -0.365  0.00  0.00     0.043 A 
ATOM     19  C   UNL d   1      28.623 -15.195  -0.268  0.00  0.00     0.116 A 
ATOM     20  F   UNL d   1      29.695 -14.393  -0.290  0.00  0.00    -0.206 F 
ATOM     21  C   UNL d   1      28.793 -16.568  -0.145  0.00  0.00     0.043 A 
ATOM     22  C   UNL d   1      27.670 -17.404  -0.140  0.00  0.00     0.014 A 
ENDBRANCH  15  16
ENDBRANCH   2  14
TORSDOF 4
ENDMDL
MODEL 2
REMARK VINA RESULT:    -8.048      1.480      2.030
REMARK INTER + INTRA:         -10.386
REMARK INTER:                  -9.241
REMARK INTRA:                  -1.145
REMARK CONF_INDEPENDENT:        1.193
REMARK UNBOUND:                -1.145
REMARK  4 active torsions:
REMARK  status: ('A' for Active; 'I' for Inactive)
REMARK    1  A    between atoms: C_5  and  N_6 
REMARK       I    between atoms: N_6  and  C_7 
REMARK    2  A    between atoms: C_7  and  C_9 
REMARK    3  A    between atoms: C_10  and  C_11 
REMARK    4  A    between atoms: C_18  and  O_19 
ROOT
ATOM      1  N   UNL d   1      22.151 -18.147   0.347  0.00  0.00    -0.321 N 
ATOM      2  C   UNL d   1      23.152 -18.369  -0.596  0.00  0.00     0.245 C 
ATOM      3  O   UNL d   1      23.229 -19.325  -1.367  0.00  0.00    -0.268 OA
ATOM      4  H   UNL d   1      22.224 -17.325   0.926  0.00  0.00     0.169 HD
ENDROOT
BRANCH   1   5
ATOM      5  C   UNL d   1      21.031 -19.024   0.565  0.00  0.00     0.068 A 
ATOM      6  C   UNL d   1      20.596 -19.325   1.866  0.00  0.00     0.033 A 
ATOM      7  C   UNL d   1      19.503 -20.154   2.131  0.00  0.00     0.009 A 
ATOM      8  C   UNL d   1      18.785 -20.719   1.089  0.00  0.00    -0.059 A 
ATOM      9  C   UNL d   1      17.597 -21.591   1.355  0.00  0.00     0.048 C 
ATOM     10  C   UNL d   1      19.196 -20.450  -0.220  0.00  0.00     0.045 A 
ATOM     11  C   UNL d   1      20.303 -19.622  -0.483  0.00  0.00     0.092 A 
BRANCH  11  12
ATOM     12  O   UNL d   1      20.574 -19.473  -1.817  0.00  0.00    -0.358 OA
ATOM     13  H   UNL d   1      21.369 -18.942  -1.942  0.00  0.00     0.217 HD
ENDBRANCH  11  12
ENDBRANCH   1   5
BRANCH   2  14
ATOM     14  C   UNL d   1      24.233 -17.343  -0.662  0.00  0.00     0.075 C 
ATOM     15  C   UNL d   1      24.170 -16.420  -1.645  0.00  0.00     0.017 C 
BRANCH  15  16
ATOM     16  C   UNL d   1      25.161 -15.355  -1.844  0.00  0.00    -0.036 A 
ATOM     17  C   UNL d   1      26.139 -15.103  -0.873  0.00  0.00     0.014 A 
ATOM     18  C   UNL d   1      27.068 -14.078  -1.050  0.00  0.00     0.043 A 
ATOM     19  C   UNL d   1      27.039 -13.320  -2.213  0.00  0.00     0.116 A 
ATOM     20  F   UNL d   1      27.926 -12.329  -2.374  0.00  0.00    -0.206 F 
ATOM     21  C   UNL d   1      26.106 -13.577  -3.209  0.00  0.00     0.043 A 
ATOM     22  C   UNL d   1      25.170 -14.602  -3.030  0.00  0.00     0.014 A 
ENDBRANCH  15  16
ENDBRANCH   2  14
TORSDOF 4
ENDMDL
MODEL 3
REMARK VINA RESULT:    -8.009      4.198      8.672
REMARK INTER + INTRA:          -9.798
REMARK INTER:                  -9.202
REMARK INTRA:                  -0.596
REMARK CONF_INDEPENDENT:        1.193
REMARK UNBOUND:                -0.596
REMARK  4 active torsions:
REMARK  status: ('A' for Active; 'I' for Inactive)
REMARK    1  A    between atoms: C_5  and  N_6 
REMARK       I    between atoms: N_6  and  C_7 
REMARK    2  A    between atoms: C_7  and  C_9 
REMARK    3  A    between atoms: C_10  and  C_11 
REMARK    4  A    between atoms: C_18  and  O_19 
ROOT
ATOM      1  N   UNL d   1      24.481 -15.852  -2.082  0.00  0.00    -0.321 N 
ATOM      2  C   UNL d   1      24.659 -17.016  -1.336  0.00  0.00     0.245 C 
ATOM      3  O   UNL d   1      25.679 -17.703  -1.289  0.00  0.00    -0.268 OA
ATOM      4  H   UNL d   1      23.581 -15.399  -2.038  0.00  0.00     0.169 HD
ENDROOT
BRANCH   1   5
ATOM      5  C   UNL d   1      25.486 -15.267  -2.928  0.00  0.00     0.068 A 
ATOM      6  C   UNL d   1      26.840 -15.607  -2.777  0.00  0.00     0.033 A 
ATOM      7  C   UNL d   1      27.852 -15.082  -3.585  0.00  0.00     0.009 A 
ATOM      8  C   UNL d   1      27.545 -14.186  -4.597  0.00  0.00    -0.059 A 
ATOM      9  C   UNL d   1      28.614 -13.631  -5.486  0.00  0.00     0.048 C 
ATOM     10  C   UNL d   1      26.208 -13.815  -4.769  0.00  0.00     0.045 A 
ATOM     11  C   UNL d   1      25.192 -14.339  -3.948  0.00  0.00     0.092 A 
BRANCH  11  12
ATOM     12  O   UNL d   1      23.943 -13.863  -4.246  0.00  0.00    -0.358 OA
ATOM     13  H   UNL d   1      23.976 -13.294  -5.023  0.00  0.00     0.217 HD
ENDBRANCH  11  12
ENDBRANCH   1   5
BRANCH   2  14
ATOM     14  C   UNL d   1      23.489 -17.464  -0.527  0.00  0.00     0.075 C 
ATOM     15  C   UNL d   1      22.630 -18.342  -1.087  0.00  0.00     0.017 C 
BRANCH  15  16
ATOM     16  C   UNL d   1      21.432 -18.868  -0.421  0.00  0.00    -0.036 A 
ATOM     17  C   UNL d   1      20.348 -19.337  -1.174  0.00  0.00     0.014 A 
ATOM     18  C   UNL d   1      19.200 -19.816  -0.543  0.00  0.00     0.043 A 
ATOM     19  C   UNL d   1      19.145 -19.854   0.843  0.00  0.00     0.116 A 
ATOM     20  F   UNL d   1      18.035 -20.304   1.445  0.00  0.00    -0.206 F 
ATOM     21  C   UNL d   1      20.222 -19.434   1.612  0.00  0.00     0.043 A 
ATOM     22  C   UNL d   1      21.373 -18.948   0.980  0.00  0.00     0.014 A 
ENDBRANCH  15  16
ENDBRANCH   2  14
TORSDOF 4
ENDMDL
MODEL 4
REMARK VINA RESULT:    -7.629      3.644      8.631
REMARK INTER + INTRA:          -9.427
REMARK INTER:                  -8.823
REMARK INTRA:                  -0.605
REMARK CONF_INDEPENDENT:        1.193
REMARK UNBOUND:                -0.605
REMARK  4 active torsions:
REMARK  status: ('A' for Active; 'I' for Inactive)
REMARK    1  A    between atoms: C_5  and  N_6 
REMARK       I    between atoms: N_6  and  C_7 
REMARK    2  A    between atoms: C_7  and  C_9 
REMARK    3  A    between atoms: C_10  and  C_11 
REMARK    4  A    between atoms: C_18  and  O_19 
ROOT
ATOM      1  N   UNL d   1      24.681 -18.061  -0.797  0.00  0.00    -0.321 N 
ATOM      2  C   UNL d   1      23.490 -17.351  -0.944  0.00  0.00     0.245 C 
ATOM      3  O   UNL d   1      23.383 -16.142  -1.142  0.00  0.00    -0.268 OA
ATOM      4  H   UNL d   1      24.618 -19.052  -0.622  0.00  0.00     0.169 HD
ENDROOT
BRANCH   1   5
ATOM      5  C   UNL d   1      25.991 -17.472  -0.856  0.00  0.00     0.068 A 
ATOM      6  C   UNL d   1      26.256 -16.393  -1.714  0.00  0.00     0.033 A 
ATOM      7  C   UNL d   1      27.506 -15.773  -1.796  0.00  0.00     0.009 A 
ATOM      8  C   UNL d   1      28.556 -16.210  -1.004  0.00  0.00    -0.059 A 
ATOM      9  C   UNL d   1      29.896 -15.542  -1.062  0.00  0.00     0.048 C 
ATOM     10  C   UNL d   1      28.332 -17.291  -0.145  0.00  0.00     0.045 A 
ATOM     11  C   UNL d   1      27.075 -17.918  -0.073  0.00  0.00     0.092 A 
BRANCH  11  12
ATOM     12  O   UNL d   1      27.032 -18.964   0.810  0.00  0.00    -0.358 OA
ATOM     13  H   UNL d   1      27.922 -19.283   0.998  0.00  0.00     0.217 HD
ENDBRANCH  11  12
ENDBRANCH   1   5
BRANCH   2  14
ATOM     14  C   UNL d   1      22.233 -18.147  -0.842  0.00  0.00     0.075 C 
ATOM     15  C   UNL d   1      21.826 -18.534   0.386  0.00  0.00     0.017 C 
BRANCH  15  16
ATOM     16  C   UNL d   1      20.618 -19.327   0.645  0.00  0.00    -0.036 A 
ATOM     17  C   UNL d   1      20.280 -19.700   1.953  0.00  0.00     0.014 A 
ATOM     18  C   UNL d   1      19.144 -20.472   2.199  0.00  0.00     0.043 A 
ATOM     19  C   UNL d   1      18.327 -20.847   1.141  0.00  0.00     0.116 A 
ATOM     20  F   UNL d   1      17.244 -21.598   1.381  0.00  0.00    -0.206 F 
ATOM     21  C   UNL d   1      18.618 -20.454  -0.159  0.00  0.00     0.043 A 
ATOM     22  C   UNL d   1      19.760 -19.684  -0.408  0.00  0.00     0.014 A 
ENDBRANCH  15  16
ENDBRANCH   2  14
TORSDOF 4
ENDMDL
MODEL 5
REMARK VINA RESULT:    -7.161      3.683      8.489
REMARK INTER + INTRA:          -9.545
REMARK INTER:                  -8.354
REMARK INTRA:                  -1.190
REMARK CONF_INDEPENDENT:        1.193
REMARK UNBOUND:                -1.190
REMARK  4 active torsions:
REMARK  status: ('A' for Active; 'I' for Inactive)
REMARK    1  A    between atoms: C_5  and  N_6 
REMARK       I    between atoms: N_6  and  C_7 
REMARK    2  A    between atoms: C_7  and  C_9 
REMARK    3  A    between atoms: C_10  and  C_11 
REMARK    4  A    between atoms: C_18  and  O_19 
ROOT
ATOM      1  N   UNL d   1      24.360 -17.939  -0.789  0.00  0.00    -0.321 N 
ATOM      2  C   UNL d   1      23.214 -17.155  -0.907  0.00  0.00     0.245 C 
ATOM      3  O   UNL d   1      23.178 -15.945  -1.127  0.00  0.00    -0.268 OA
ATOM      4  H   UNL d   1      24.239 -18.920  -0.591  0.00  0.00     0.169 HD
ENDROOT
BRANCH   1   5
ATOM      5  C   UNL d   1      25.703 -17.439  -0.911  0.00  0.00     0.068 A 
ATOM      6  C   UNL d   1      26.716 -17.881  -0.045  0.00  0.00     0.033 A 
ATOM      7  C   UNL d   1      28.040 -17.442  -0.133  0.00  0.00     0.009 A 
ATOM      8  C   UNL d   1      28.411 -16.533  -1.112  0.00  0.00    -0.059 A 
ATOM      9  C   UNL d   1      29.830 -16.069  -1.235  0.00  0.00     0.048 C 
ATOM     10  C   UNL d   1      27.426 -16.062  -1.985  0.00  0.00     0.045 A 
ATOM     11  C   UNL d   1      26.092 -16.500  -1.887  0.00  0.00     0.092 A 
BRANCH  11  12
ATOM     12  O   UNL d   1      25.257 -15.932  -2.813  0.00  0.00    -0.358 OA
ATOM     13  H   UNL d   1      24.363 -15.861  -2.461  0.00  0.00     0.217 HD
ENDBRANCH  11  12
ENDBRANCH   1   5
BRANCH   2  14
ATOM     14  C   UNL d   1      21.912 -17.863  -0.740  0.00  0.00     0.075 C 
ATOM     15  C   UNL d   1      21.767 -18.678   0.326  0.00  0.00     0.017 C 
BRANCH  15  16
ATOM     16  C   UNL d   1      20.551 -19.448   0.619  0.00  0.00    -0.036 A 
ATOM     17  C   UNL d   1      19.750 -19.935  -0.421  0.00  0.00     0.014 A 
ATOM     18  C   UNL d   1      18.583 -20.648  -0.145  0.00  0.00     0.043 A 
ATOM     19  C   UNL d   1      18.229 -20.899   1.174  0.00  0.00     0.116 A 
ATOM     20  F   UNL d   1      17.102 -21.574   1.435  0.00  0.00    -0.206 F 
ATOM     21  C   UNL d   1      19.029 -20.463   2.223  0.00  0.00     0.043 A 
ATOM     22  C   UNL d   1      20.197 -19.743   1.947  0.00  0.00     0.014 A 
ENDBRANCH  15  16
ENDBRANCH   2  14
TORSDOF 4
ENDMDL
MODEL 6
REMARK VINA RESULT:    -7.007      3.880      8.598
REMARK INTER + INTRA:          -9.359
REMARK INTER:                  -8.200
REMARK INTRA:                  -1.160
REMARK CONF_INDEPENDENT:        1.193
REMARK UNBOUND:                -1.160
REMARK  4 active torsions:
REMARK  status: ('A' for Active; 'I' for Inactive)
REMARK    1  A    between atoms: C_5  and  N_6 
REMARK       I    between atoms: N_6  and  C_7 
REMARK    2  A    between atoms: C_7  and  C_9 
REMARK    3  A    between atoms: C_10  and  C_11 
REMARK    4  A    between atoms: C_18  and  O_19 
ROOT
ATOM      1  N   UNL d   1      24.262 -16.920  -1.516  0.00  0.00    -0.321 N 
ATOM      2  C   UNL d   1      24.461 -17.625  -0.331  0.00  0.00     0.245 C 
ATOM      3  O   UNL d   1      25.455 -17.571   0.392  0.00  0.00    -0.268 OA
ATOM      4  H   UNL d   1      23.400 -17.075  -2.016  0.00  0.00     0.169 HD
ENDROOT
BRANCH   1   5
ATOM      5  C   UNL d   1      25.213 -16.004  -2.086  0.00  0.00     0.068 A 
ATOM      6  C   UNL d   1      24.784 -14.855  -2.769  0.00  0.00     0.033 A 
ATOM      7  C   UNL d   1      25.666 -13.923  -3.323  0.00  0.00     0.009 A 
ATOM      8  C   UNL d   1      27.035 -14.104  -3.209  0.00  0.00    -0.059 A 
ATOM      9  C   UNL d   1      27.994 -13.104  -3.778  0.00  0.00     0.048 C 
ATOM     10  C   UNL d   1      27.500 -15.243  -2.546  0.00  0.00     0.045 A 
ATOM     11  C   UNL d   1      26.608 -16.183  -1.996  0.00  0.00     0.092 A 
BRANCH  11  12
ATOM     12  O   UNL d   1      27.230 -17.243  -1.391  0.00  0.00    -0.358 OA
ATOM     13  H   UNL d   1      26.853 -17.401  -0.518  0.00  0.00     0.217 HD
ENDBRANCH  11  12
ENDBRANCH   1   5
BRANCH   2  14
ATOM     14  C   UNL d   1      23.354 -18.534   0.088  0.00  0.00     0.075 C 
ATOM     15  C   UNL d   1      22.090 -18.175  -0.221  0.00  0.00     0.017 C 
BRANCH  15  16
ATOM     16  C   UNL d   1      20.899 -18.959   0.130  0.00  0.00    -0.036 A 
ATOM     17  C   UNL d   1      20.655 -19.325   1.460  0.00  0.00     0.014 A 
ATOM     18  C   UNL d   1      19.536 -20.088   1.793  0.00  0.00     0.043 A 
ATOM     19  C   UNL d   1      18.642 -20.462   0.799  0.00  0.00     0.116 A 
ATOM     20  F   UNL d   1      17.574 -21.205   1.122  0.00  0.00    -0.206 F 
ATOM     21  C   UNL d   1      18.838 -20.076  -0.520  0.00  0.00     0.043 A 
ATOM     22  C   UNL d   1      19.964 -19.315  -0.856  0.00  0.00     0.014 A 
ENDBRANCH  15  16
ENDBRANCH   2  14
TORSDOF 4
ENDMDL
MODEL 7
REMARK VINA RESULT:    -6.435      3.648      8.840
REMARK INTER + INTRA:          -8.205
REMARK INTER:                  -7.628
REMARK INTRA:                  -0.576
REMARK CONF_INDEPENDENT:        1.193
REMARK UNBOUND:                -0.576
REMARK  4 active torsions:
REMARK  status: ('A' for Active; 'I' for Inactive)
REMARK    1  A    between atoms: C_5  and  N_6 
REMARK       I    between atoms: N_6  and  C_7 
REMARK    2  A    between atoms: C_7  and  C_9 
REMARK    3  A    between atoms: C_10  and  C_11 
REMARK    4  A    between atoms: C_18  and  O_19 
ROOT
ATOM      1  N   UNL d   1      26.140 -17.270  -0.477  0.00  0.00    -0.321 N 
ATOM      2  C   UNL d   1      24.898 -17.007  -1.052  0.00  0.00     0.245 C 
ATOM      3  O   UNL d   1      24.599 -16.020  -1.723  0.00  0.00    -0.268 OA
ATOM      4  H   UNL d   1      26.237 -18.116   0.063  0.00  0.00     0.169 HD
ENDROOT
BRANCH   1   5
ATOM      5  C   UNL d   1      27.285 -16.406  -0.585  0.00  0.00     0.068 A 
ATOM      6  C   UNL d   1      27.130 -15.012  -0.661  0.00  0.00     0.033 A 
ATOM      7  C   UNL d   1      28.209 -14.129  -0.746  0.00  0.00     0.009 A 
ATOM      8  C   UNL d   1      29.508 -14.612  -0.753  0.00  0.00    -0.059 A 
ATOM      9  C   UNL d   1      30.677 -13.677  -0.821  0.00  0.00     0.048 C 
ATOM     10  C   UNL d   1      29.701 -15.995  -0.690  0.00  0.00     0.045 A 
ATOM     11  C   UNL d   1      28.611 -16.882  -0.613  0.00  0.00     0.092 A 
BRANCH  11  12
ATOM     12  O   UNL d   1      28.977 -18.200  -0.569  0.00  0.00    -0.358 OA
ATOM     13  H   UNL d   1      29.486 -18.383   0.229  0.00  0.00     0.217 HD
ENDBRANCH  11  12
ENDBRANCH   1   5
BRANCH   2  14
ATOM     14  C   UNL d   1      23.835 -18.027  -0.818  0.00  0.00     0.075 C 
ATOM     15  C   UNL d   1      22.599 -17.591  -0.494  0.00  0.00     0.017 C 
BRANCH  15  16
ATOM     16  C   UNL d   1      21.455 -18.471  -0.226  0.00  0.00    -0.036 A 
ATOM     17  C   UNL d   1      20.614 -18.881  -1.269  0.00  0.00     0.014 A 
ATOM     18  C   UNL d   1      19.514 -19.700  -1.013  0.00  0.00     0.043 A 
ATOM     19  C   UNL d   1      19.269 -20.134   0.282  0.00  0.00     0.116 A 
ATOM     20  F   UNL d   1      18.204 -20.911   0.525  0.00  0.00    -0.206 F 
ATOM     21  C   UNL d   1      20.112 -19.776   1.326  0.00  0.00     0.043 A 
ATOM     22  C   UNL d   1      21.213 -18.949   1.072  0.00  0.00     0.014 A 
ENDBRANCH  15  16
ENDBRANCH   2  14
TORSDOF 4
ENDMDL
MODEL 8
REMARK VINA RESULT:    -6.159      9.918     13.104
REMARK INTER + INTRA:          -7.950
REMARK INTER:                  -7.352
REMARK INTRA:                  -0.598
REMARK CONF_INDEPENDENT:        1.193
REMARK UNBOUND:                -0.598
REMARK  4 active torsions:
REMARK  status: ('A' for Active; 'I' for Inactive)
REMARK    1  A    between atoms: C_5  and  N_6 
REMARK       I    between atoms: N_6  and  C_7 
REMARK    2  A    between atoms: C_7  and  C_9 
REMARK    3  A    between atoms: C_10  and  C_11 
REMARK    4  A    between atoms: C_18  and  O_19 
ROOT
ATOM      1  N   UNL d   1      33.484 -21.949   5.625  0.00  0.00    -0.321 N 
ATOM      2  C   UNL d   1      32.182 -21.452   5.611  0.00  0.00     0.245 C 
ATOM      3  O   UNL d   1      31.485 -21.205   6.595  0.00  0.00    -0.268 OA
ATOM      4  H   UNL d   1      33.930 -22.120   4.737  0.00  0.00     0.169 HD
ENDROOT
BRANCH   1   5
ATOM      5  C   UNL d   1      34.225 -22.255   6.819  0.00  0.00     0.068 A 
ATOM      6  C   UNL d   1      34.519 -21.254   7.758  0.00  0.00     0.033 A 
ATOM      7  C   UNL d   1      35.218 -21.502   8.942  0.00  0.00     0.009 A 
ATOM      8  C   UNL d   1      35.653 -22.784   9.242  0.00  0.00    -0.059 A 
ATOM      9  C   UNL d   1      36.384 -23.071  10.517  0.00  0.00     0.048 C 
ATOM     10  C   UNL d   1      35.389 -23.804   8.323  0.00  0.00     0.045 A 
ATOM     11  C   UNL d   1      34.691 -23.548   7.128  0.00  0.00     0.092 A 
BRANCH  11  12
ATOM     12  O   UNL d   1      34.527 -24.656   6.340  0.00  0.00    -0.358 OA
ATOM     13  H   UNL d   1      34.119 -24.415   5.500  0.00  0.00     0.217 HD
ENDBRANCH  11  12
ENDBRANCH   1   5
BRANCH   2  14
ATOM     14  C   UNL d   1      31.585 -21.207   4.266  0.00  0.00     0.075 C 
ATOM     15  C   UNL d   1      32.423 -21.075   3.216  0.00  0.00     0.017 C 
BRANCH  15  16
ATOM     16  C   UNL d   1      31.988 -20.822   1.837  0.00  0.00    -0.036 A 
ATOM     17  C   UNL d   1      31.095 -21.695   1.202  0.00  0.00     0.014 A 
ATOM     18  C   UNL d   1      30.697 -21.469  -0.116  0.00  0.00     0.043 A 
ATOM     19  C   UNL d   1      31.170 -20.353  -0.792  0.00  0.00     0.116 A 
ATOM     20  F   UNL d   1      30.794 -20.146  -2.062  0.00  0.00    -0.206 F 
ATOM     21  C   UNL d   1      32.022 -19.449  -0.171  0.00  0.00     0.043 A 
ATOM     22  C   UNL d   1      32.427 -19.678   1.149  0.00  0.00     0.014 A 
ENDBRANCH  15  16
ENDBRANCH   2  14
TORSDOF 4
ENDMDL
MODEL 9
REMARK VINA RESULT:    -5.580      5.566      7.034
REMARK INTER + INTRA:          -7.893
REMARK INTER:                  -6.773
REMARK INTRA:                  -1.120
REMARK CONF_INDEPENDENT:        1.193
REMARK UNBOUND:                -1.120
REMARK  4 active torsions:
REMARK  status: ('A' for Active; 'I' for Inactive)
REMARK    1  A    between atoms: C_5  and  N_6 
REMARK       I    between atoms: N_6  and  C_7 
REMARK    2  A    between atoms: C_7  and  C_9 
REMARK    3  A    between atoms: C_10  and  C_11 
REMARK    4  A    between atoms: C_18  and  O_19 
ROOT
ATOM      1  N   UNL d   1      26.745 -15.642  -2.833  0.00  0.00    -0.321 N 
ATOM      2  C   UNL d   1      26.574 -15.161  -4.130  0.00  0.00     0.245 C 
ATOM      3  O   UNL d   1      25.537 -15.199  -4.790  0.00  0.00    -0.268 OA
ATOM      4  H   UNL d   1      27.661 -15.558  -2.419  0.00  0.00     0.169 HD
ENDROOT
BRANCH   1   5
ATOM      5  C   UNL d   1      25.710 -16.268  -2.055  0.00  0.00     0.068 A 
ATOM      6  C   UNL d   1      25.985 -17.398  -1.270  0.00  0.00     0.033 A 
ATOM      7  C   UNL d   1      25.021 -18.031  -0.481  0.00  0.00     0.009 A 
ATOM      8  C   UNL d   1      23.723 -17.546  -0.440  0.00  0.00    -0.059 A 
ATOM      9  C   UNL d   1      22.683 -18.199   0.417  0.00  0.00     0.048 C 
ATOM     10  C   UNL d   1      23.410 -16.428  -1.219  0.00  0.00     0.045 A 
ATOM     11  C   UNL d   1      24.381 -15.799  -2.019  0.00  0.00     0.092 A 
BRANCH  11  12
ATOM     12  O   UNL d   1      23.904 -14.726  -2.723  0.00  0.00    -0.358 OA
ATOM     13  H   UNL d   1      24.621 -14.281  -3.188  0.00  0.00     0.217 HD
ENDBRANCH  11  12
ENDBRANCH   1   5
BRANCH   2  14
ATOM     14  C   UNL d   1      27.776 -14.551  -4.770  0.00  0.00     0.075 C 
ATOM     15  C   UNL d   1      27.996 -14.808  -6.077  0.00  0.00     0.017 C 
BRANCH  15  16
ATOM     16  C   UNL d   1      29.137 -14.287  -6.841  0.00  0.00    -0.036 A 
ATOM     17  C   UNL d   1      29.014 -13.109  -7.588  0.00  0.00     0.014 A 
ATOM     18  C   UNL d   1      30.090 -12.624  -8.332  0.00  0.00     0.043 A 
ATOM     19  C   UNL d   1      31.301 -13.304  -8.308  0.00  0.00     0.116 A 
ATOM     20  F   UNL d   1      32.328 -12.841  -9.033  0.00  0.00    -0.206 F 
ATOM     21  C   UNL d   1      31.460 -14.451  -7.542  0.00  0.00     0.043 A 
ATOM     22  C   UNL d   1      30.380 -14.941  -6.800  0.00  0.00     0.014 A 
ENDBRANCH  15  16
ENDBRANCH   2  14
TORSDOF 4
ENDMDL
