MODEL 1
REMARK VINA RESULT:   -11.035      0.000      0.000
REMARK INTER + INTRA:         -16.349
REMARK INTER:                 -14.913
REMARK INTRA:                  -1.436
REMARK CONF_INDEPENDENT:        3.878
REMARK UNBOUND:                -1.436
REMARK  13 active torsions:
REMARK  status: ('A' for Active; 'I' for Inactive)
REMARK    1  A    between atoms: O_2  and  C_3 
REMARK    2  A    between atoms: C_3  and  C_4 
REMARK    3  A    between atoms: C_4  and  O_5 
REMARK    4  A    between atoms: O_5  and  C_6 
REMARK    5  A    between atoms: C_6  and  C_8 
REMARK    6  A    between atoms: C_9  and  N_10 
REMARK       I    between atoms: N_10  and  C_11 
REMARK    7  A    between atoms: C_11  and  C_13 
REMARK    8  A    between atoms: C_13  and  N_14 
REMARK    9  A    between atoms: N_14  and  C_15 
REMARK   10  A    between atoms: C_15  and  C_16 
REMARK   11  A    between atoms: C_15  and  C_23 
REMARK   12  A    between atoms: C_16  and  C_17 
REMARK   13  A    between atoms: C_30  and  C_31 
REMARK       I    between atoms: C_31  and  N_32 
ROOT
ATOM      1  N   UNL d   1      28.321 -15.606   0.946  0.00  0.00    -0.319 N 
ATOM      2  C   UNL d   1      28.421 -14.549   1.891  0.00  0.00     0.248 C 
ATOM      3  O   UNL d   1      27.485 -13.794   2.146  0.00  0.00    -0.271 OA
ATOM      4  H   UNL d   1      28.928 -16.430   0.962  0.00  0.00     0.169 HD
ENDROOT
BRANCH   1   5
ATOM      5  C   UNL d   1      27.307 -15.605  -0.058  0.00  0.00     0.094 C 
ATOM      6  C   UNL d   1      26.339 -16.534  -0.434  0.00  0.00     0.080 C 
ATOM      7  C   UNL d   1      25.608 -16.118  -1.633  0.00  0.00    -0.020 C 
ATOM      8  C   UNL d   1      25.931 -14.848  -2.080  0.00  0.00     0.081 C 
ATOM      9  C   UNL d   1      24.624 -17.083  -2.214  0.00  0.00     0.051 C 
ATOM     10  S   UNL d   1      27.132 -14.162  -0.997  0.00  0.00    -0.065 SA
BRANCH   6  11
ATOM     11  C   UNL d   1      25.983 -17.824   0.168  0.00  0.00     0.296 C 
ATOM     12  O   UNL d   1      26.785 -18.503   0.844  0.00  0.00    -0.259 OA
BRANCH  11  13
ATOM     13  O   UNL d   1      24.839 -18.439  -0.086  0.00  0.00    -0.315 OA
BRANCH  13  14
ATOM     14  C   UNL d   1      23.640 -18.208   0.587  0.00  0.00     0.205 C 
BRANCH  14  15
ATOM     15  C   UNL d   1      22.703 -18.632  -0.459  0.00  0.00     0.193 C 
BRANCH  15  16
ATOM     16  O   UNL d   1      21.636 -19.012   0.350  0.00  0.00    -0.394 OA
ATOM     17  C   UNL d   1      20.547 -19.464  -0.329  0.00  0.00     0.201 C 
ENDBRANCH  15  16
ENDBRANCH  14  15
ENDBRANCH  13  14
ENDBRANCH  11  13
ENDBRANCH   6  11
BRANCH   8  18
ATOM     18  C   UNL d   1      25.433 -14.071  -3.238  0.00  0.00     0.256 C 
ATOM     19  N   UNL d   1      25.237 -12.709  -3.126  0.00  0.00    -0.365 N 
ATOM     20  H   UNL d   1      25.395 -12.107  -2.346  0.00  0.00     0.159 HD
ATOM     21  H   UNL d   1      24.881 -12.209  -3.930  0.00  0.00     0.159 HD
ATOM     22  O   UNL d   1      25.166 -14.557  -4.335  0.00  0.00    -0.267 OA
ENDBRANCH   8  18
ENDBRANCH   1   5
BRANCH   2  23
ATOM     23  C   UNL d   1      29.813 -14.289   2.608  0.00  0.00     0.335 C 
BRANCH  23  24
ATOM     24  N   UNL d   1      30.111 -14.767   4.220  0.00  0.00    -0.058 N 
ATOM     25  H   UNL d   1      31.139 -14.841   4.328  0.00  0.00     0.278 HD
ATOM     26  H   UNL d   1      29.894 -15.744   4.419  0.00  0.00     0.278 HD
BRANCH  24  27
ATOM     27  C   UNL d   1      29.417 -14.157   5.515  0.00  0.00     0.223 C 
BRANCH  27  28
ATOM     28  C   UNL d   1      30.016 -14.448   7.062  0.00  0.00     0.076 C 
BRANCH  28  29
ATOM     29  C   UNL d   1      29.148 -13.944   8.257  0.00  0.00    -0.056 A 
ATOM     30  C   UNL d   1      28.988 -14.814   9.335  0.00  0.00     0.007 A 
ATOM     31  C   UNL d   1      28.484 -14.385  10.574  0.00  0.00     0.001 A 
ATOM     32  C   UNL d   1      28.049 -13.079  10.756  0.00  0.00     0.000 A 
ATOM     33  C   UNL d   1      28.175 -12.179   9.707  0.00  0.00     0.001 A 
ATOM     34  C   UNL d   1      28.718 -12.599   8.473  0.00  0.00     0.007 A 
ENDBRANCH  28  29
ENDBRANCH  27  28
BRANCH  27  35
ATOM     35  C   UNL d   1      29.266 -12.639   5.237  0.00  0.00    -0.028 C 
ATOM     36  C   UNL d   1      30.307 -11.683   5.195  0.00  0.00     0.009 C 
ATOM     37  C   UNL d   1      30.032 -10.315   5.198  0.00  0.00     0.001 C 
ATOM     38  C   UNL d   1      28.719  -9.882   5.108  0.00  0.00     0.000 C 
ATOM     39  C   UNL d   1      27.691 -10.810   4.964  0.00  0.00     0.001 C 
ATOM     40  C   UNL d   1      27.965 -12.176   4.997  0.00  0.00     0.009 C 
ENDBRANCH  27  35
ENDBRANCH  24  27
ENDBRANCH  23  24
ENDBRANCH   2  23
TORSDOF 13
ENDMDL
MODEL 2
REMARK VINA RESULT:   -10.316      3.198      6.803
REMARK INTER + INTRA:         -17.001
REMARK INTER:                 -14.194
REMARK INTRA:                  -2.807
REMARK CONF_INDEPENDENT:        3.878
REMARK UNBOUND:                -2.807
REMARK  13 active torsions:
REMARK  status: ('A' for Active; 'I' for Inactive)
REMARK    1  A    between atoms: O_2  and  C_3 
REMARK    2  A    between atoms: C_3  and  C_4 
REMARK    3  A    between atoms: C_4  and  O_5 
REMARK    4  A    between atoms: O_5  and  C_6 
REMARK    5  A    between atoms: C_6  and  C_8 
REMARK    6  A    between atoms: C_9  and  N_10 
REMARK       I    between atoms: N_10  and  C_11 
REMARK    7  A    between atoms: C_11  and  C_13 
REMARK    8  A    between atoms: C_13  and  N_14 
REMARK    9  A    between atoms: N_14  and  C_15 
REMARK   10  A    between atoms: C_15  and  C_16 
REMARK   11  A    between atoms: C_15  and  C_23 
REMARK   12  A    between atoms: C_16  and  C_17 
REMARK   13  A    between atoms: C_30  and  C_31 
REMARK       I    between atoms: C_31  and  N_32 
ROOT
ATOM      1  N   UNL d   1      28.869 -14.406  -2.356  0.00  0.00    -0.319 N 
ATOM      2  C   UNL d   1      28.558 -15.791  -2.280  0.00  0.00     0.248 C 
ATOM      3  O   UNL d   1      27.677 -16.313  -2.960  0.00  0.00    -0.271 OA
ATOM      4  H   UNL d   1      29.778 -14.021  -2.084  0.00  0.00     0.169 HD
ENDROOT
BRANCH   1   5
ATOM      5  C   UNL d   1      27.933 -13.467  -2.884  0.00  0.00     0.094 C 
ATOM      6  C   UNL d   1      27.065 -13.499  -3.973  0.00  0.00     0.080 C 
ATOM      7  C   UNL d   1      26.395 -12.214  -4.185  0.00  0.00    -0.020 C 
ATOM      8  C   UNL d   1      26.656 -11.273  -3.205  0.00  0.00     0.081 C 
ATOM      9  C   UNL d   1      25.528 -12.076  -5.396  0.00  0.00     0.051 C 
ATOM     10  S   UNL d   1      27.721 -11.991  -2.007  0.00  0.00    -0.065 SA
BRANCH   6  11
ATOM     11  C   UNL d   1      26.762 -14.588  -4.909  0.00  0.00     0.296 C 
ATOM     12  O   UNL d   1      25.655 -15.168  -4.942  0.00  0.00    -0.259 OA
BRANCH  11  13
ATOM     13  O   UNL d   1      27.681 -15.142  -5.682  0.00  0.00    -0.315 OA
BRANCH  13  14
ATOM     14  C   UNL d   1      28.475 -14.456  -6.600  0.00  0.00     0.205 C 
BRANCH  14  15
ATOM     15  C   UNL d   1      29.773 -15.061  -6.282  0.00  0.00     0.193 C 
BRANCH  15  16
ATOM     16  O   UNL d   1      29.328 -16.303  -5.838  0.00  0.00    -0.394 OA
ATOM     17  C   UNL d   1      30.193 -16.947  -5.009  0.00  0.00     0.201 C 
ENDBRANCH  15  16
ENDBRANCH  14  15
ENDBRANCH  13  14
ENDBRANCH  11  13
ENDBRANCH   6  11
BRANCH   8  18
ATOM     18  C   UNL d   1      26.187  -9.876  -3.052  0.00  0.00     0.256 C 
ATOM     19  N   UNL d   1      25.030  -9.460  -3.679  0.00  0.00    -0.365 N 
ATOM     20  H   UNL d   1      24.398  -9.977  -4.253  0.00  0.00     0.159 HD
ATOM     21  H   UNL d   1      24.746  -8.496  -3.569  0.00  0.00     0.159 HD
ATOM     22  O   UNL d   1      26.768  -9.020  -2.388  0.00  0.00    -0.267 OA
ENDBRANCH   8  18
ENDBRANCH   1   5
BRANCH   2  23
ATOM     23  C   UNL d   1      29.336 -16.697  -1.234  0.00  0.00     0.335 C 
BRANCH  23  24
ATOM     24  N   UNL d   1      28.804 -16.892   0.377  0.00  0.00    -0.058 N 
ATOM     25  H   UNL d   1      29.639 -16.796   0.983  0.00  0.00     0.278 HD
ATOM     26  H   UNL d   1      28.573 -17.852   0.633  0.00  0.00     0.278 HD
BRANCH  24  27
ATOM     27  C   UNL d   1      27.518 -16.214   1.020  0.00  0.00     0.223 C 
BRANCH  27  28
ATOM     28  C   UNL d   1      27.430 -14.553   1.288  0.00  0.00     0.076 C 
BRANCH  28  29
ATOM     29  C   UNL d   1      27.861 -14.045   2.699  0.00  0.00    -0.056 A 
ATOM     30  C   UNL d   1      27.709 -12.683   2.956  0.00  0.00     0.007 A 
ATOM     31  C   UNL d   1      27.783 -12.154   4.254  0.00  0.00     0.001 A 
ATOM     32  C   UNL d   1      28.090 -12.963   5.340  0.00  0.00     0.000 A 
ATOM     33  C   UNL d   1      28.264 -14.324   5.133  0.00  0.00     0.001 A 
ATOM     34  C   UNL d   1      28.150 -14.864   3.833  0.00  0.00     0.007 A 
ENDBRANCH  28  29
ENDBRANCH  27  28
BRANCH  27  35
ATOM     35  C   UNL d   1      26.312 -16.723   0.189  0.00  0.00    -0.028 C 
ATOM     36  C   UNL d   1      25.551 -15.972  -0.737  0.00  0.00     0.009 C 
ATOM     37  C   UNL d   1      24.335 -16.449  -1.229  0.00  0.00     0.001 C 
ATOM     38  C   UNL d   1      23.926 -17.734  -0.909  0.00  0.00     0.000 C 
ATOM     39  C   UNL d   1      24.753 -18.555  -0.146  0.00  0.00     0.001 C 
ATOM     40  C   UNL d   1      25.949 -18.064   0.373  0.00  0.00     0.009 C 
ENDBRANCH  27  35
ENDBRANCH  24  27
ENDBRANCH  23  24
ENDBRANCH   2  23
TORSDOF 13
ENDMDL
MODEL 3
REMARK VINA RESULT:   -10.142      4.916      7.783
REMARK INTER + INTRA:         -16.758
REMARK INTER:                 -14.020
REMARK INTRA:                  -2.739
REMARK CONF_INDEPENDENT:        3.878
REMARK UNBOUND:                -2.739
REMARK  13 active torsions:
REMARK  status: ('A' for Active; 'I' for Inactive)
REMARK    1  A    between atoms: O_2  and  C_3 
REMARK    2  A    between atoms: C_3  and  C_4 
REMARK    3  A    between atoms: C_4  and  O_5 
REMARK    4  A    between atoms: O_5  and  C_6 
REMARK    5  A    between atoms: C_6  and  C_8 
REMARK    6  A    between atoms: C_9  and  N_10 
REMARK       I    between atoms: N_10  and  C_11 
REMARK    7  A    between atoms: C_11  and  C_13 
REMARK    8  A    between atoms: C_13  and  N_14 
REMARK    9  A    between atoms: N_14  and  C_15 
REMARK   10  A    between atoms: C_15  and  C_16 
REMARK   11  A    between atoms: C_15  and  C_23 
REMARK   12  A    between atoms: C_16  and  C_17 
REMARK   13  A    between atoms: C_30  and  C_31 
REMARK       I    between atoms: C_31  and  N_32 
ROOT
ATOM      1  N   UNL d   1      29.484 -16.216  -3.425  0.00  0.00    -0.319 N 
ATOM      2  C   UNL d   1      30.332 -16.115  -2.289  0.00  0.00     0.248 C 
ATOM      3  O   UNL d   1      31.046 -15.136  -2.077  0.00  0.00    -0.271 OA
ATOM      4  H   UNL d   1      28.658 -16.820  -3.455  0.00  0.00     0.169 HD
ENDROOT
BRANCH   1   5
ATOM      5  C   UNL d   1      29.708 -15.419  -4.588  0.00  0.00     0.094 C 
ATOM      6  C   UNL d   1      28.853 -14.794  -5.493  0.00  0.00     0.080 C 
ATOM      7  C   UNL d   1      29.577 -14.195  -6.616  0.00  0.00    -0.020 C 
ATOM      8  C   UNL d   1      30.954 -14.258  -6.498  0.00  0.00     0.081 C 
ATOM      9  C   UNL d   1      28.767 -13.599  -7.723  0.00  0.00     0.051 C 
ATOM     10  S   UNL d   1      31.351 -15.046  -4.980  0.00  0.00    -0.065 SA
BRANCH   6  11
ATOM     11  C   UNL d   1      27.390 -14.680  -5.486  0.00  0.00     0.296 C 
ATOM     12  O   UNL d   1      26.636 -15.575  -5.925  0.00  0.00    -0.259 OA
BRANCH  11  13
ATOM     13  O   UNL d   1      26.762 -13.562  -5.157  0.00  0.00    -0.315 OA
BRANCH  13  14
ATOM     14  C   UNL d   1      26.461 -13.167  -3.855  0.00  0.00     0.205 C 
BRANCH  14  15
ATOM     15  C   UNL d   1      25.002 -13.076  -3.972  0.00  0.00     0.193 C 
BRANCH  15  16
ATOM     16  O   UNL d   1      24.712 -14.431  -4.105  0.00  0.00    -0.394 OA
ATOM     17  C   UNL d   1      25.239 -15.217  -3.127  0.00  0.00     0.201 C 
ENDBRANCH  15  16
ENDBRANCH  14  15
ENDBRANCH  13  14
ENDBRANCH  11  13
ENDBRANCH   6  11
BRANCH   8  18
ATOM     18  C   UNL d   1      32.028 -13.783  -7.401  0.00  0.00     0.256 C 
ATOM     19  N   UNL d   1      31.839 -13.792  -8.768  0.00  0.00    -0.365 N 
ATOM     20  H   UNL d   1      31.041 -14.073  -9.297  0.00  0.00     0.159 HD
ATOM     21  H   UNL d   1      32.597 -13.477  -9.359  0.00  0.00     0.159 HD
ATOM     22  O   UNL d   1      33.119 -13.366  -7.019  0.00  0.00    -0.267 OA
ENDBRANCH   8  18
ENDBRANCH   1   5
BRANCH   2  23
ATOM     23  C   UNL d   1      30.410 -17.335  -1.277  0.00  0.00     0.335 C 
BRANCH  23  24
ATOM     24  N   UNL d   1      29.172 -17.663  -0.148  0.00  0.00    -0.058 N 
ATOM     25  H   UNL d   1      29.556 -17.452   0.791  0.00  0.00     0.278 HD
ATOM     26  H   UNL d   1      28.996 -18.656   0.011  0.00  0.00     0.278 HD
BRANCH  24  27
ATOM     27  C   UNL d   1      27.649 -17.225  -0.283  0.00  0.00     0.223 C 
BRANCH  27  28
ATOM     28  C   UNL d   1      26.403 -18.119   0.413  0.00  0.00     0.076 C 
BRANCH  28  29
ATOM     29  C   UNL d   1      24.965 -17.865  -0.136  0.00  0.00    -0.056 A 
ATOM     30  C   UNL d   1      24.089 -18.950  -0.146  0.00  0.00     0.007 A 
ATOM     31  C   UNL d   1      22.707 -18.795  -0.338  0.00  0.00     0.001 A 
ATOM     32  C   UNL d   1      22.158 -17.547  -0.603  0.00  0.00     0.000 A 
ATOM     33  C   UNL d   1      22.991 -16.438  -0.617  0.00  0.00     0.001 A 
ATOM     34  C   UNL d   1      24.376 -16.588  -0.386  0.00  0.00     0.007 A 
ENDBRANCH  28  29
ENDBRANCH  27  28
BRANCH  27  35
ATOM     35  C   UNL d   1      27.599 -15.738   0.155  0.00  0.00    -0.028 C 
ATOM     36  C   UNL d   1      27.771 -15.241   1.468  0.00  0.00     0.009 C 
ATOM     37  C   UNL d   1      27.446 -13.922   1.789  0.00  0.00     0.001 C 
ATOM     38  C   UNL d   1      27.073 -13.045   0.782  0.00  0.00     0.000 C 
ATOM     39  C   UNL d   1      27.076 -13.471  -0.544  0.00  0.00     0.001 C 
ATOM     40  C   UNL d   1      27.365 -14.797  -0.858  0.00  0.00     0.009 C 
ENDBRANCH  27  35
ENDBRANCH  24  27
ENDBRANCH  23  24
ENDBRANCH   2  23
TORSDOF 13
ENDMDL
MODEL 4
REMARK VINA RESULT:   -10.000      5.438      8.688
REMARK INTER + INTRA:         -16.246
REMARK INTER:                 -13.877
REMARK INTRA:                  -2.368
REMARK CONF_INDEPENDENT:        3.878
REMARK UNBOUND:                -2.368
REMARK  13 active torsions:
REMARK  status: ('A' for Active; 'I' for Inactive)
REMARK    1  A    between atoms: O_2  and  C_3 
REMARK    2  A    between atoms: C_3  and  C_4 
REMARK    3  A    between atoms: C_4  and  O_5 
REMARK    4  A    between atoms: O_5  and  C_6 
REMARK    5  A    between atoms: C_6  and  C_8 
REMARK    6  A    between atoms: C_9  and  N_10 
REMARK       I    between atoms: N_10  and  C_11 
REMARK    7  A    between atoms: C_11  and  C_13 
REMARK    8  A    between atoms: C_13  and  N_14 
REMARK    9  A    between atoms: N_14  and  C_15 
REMARK   10  A    between atoms: C_15  and  C_16 
REMARK   11  A    between atoms: C_15  and  C_23 
REMARK   12  A    between atoms: C_16  and  C_17 
REMARK   13  A    between atoms: C_30  and  C_31 
REMARK       I    between atoms: C_31  and  N_32 
ROOT
ATOM      1  N   UNL d   1      30.832 -19.356  -0.503  0.00  0.00    -0.319 N 
ATOM      2  C   UNL d   1      32.016 -18.587  -0.341  0.00  0.00     0.248 C 
ATOM      3  O   UNL d   1      33.105 -18.940  -0.791  0.00  0.00    -0.271 OA
ATOM      4  H   UNL d   1      29.892 -18.952  -0.455  0.00  0.00     0.169 HD
ENDROOT
BRANCH   1   5
ATOM      5  C   UNL d   1      30.891 -20.748  -0.808  0.00  0.00     0.094 C 
ATOM      6  C   UNL d   1      30.715 -21.898  -0.042  0.00  0.00     0.080 C 
ATOM      7  C   UNL d   1      31.017 -23.118  -0.796  0.00  0.00    -0.020 C 
ATOM      8  C   UNL d   1      31.293 -22.900  -2.134  0.00  0.00     0.081 C 
ATOM      9  C   UNL d   1      30.987 -24.416  -0.054  0.00  0.00     0.051 C 
ATOM     10  S   UNL d   1      31.159 -21.179  -2.462  0.00  0.00    -0.065 SA
BRANCH   6  11
ATOM     11  C   UNL d   1      30.310 -22.047   1.361  0.00  0.00     0.296 C 
ATOM     12  O   UNL d   1      29.118 -22.168   1.715  0.00  0.00    -0.259 OA
BRANCH  11  13
ATOM     13  O   UNL d   1      31.158 -21.912   2.367  0.00  0.00    -0.315 OA
BRANCH  13  14
ATOM     14  C   UNL d   1      31.956 -20.792   2.596  0.00  0.00     0.205 C 
BRANCH  14  15
ATOM     15  C   UNL d   1      32.537 -21.181   3.886  0.00  0.00     0.193 C 
BRANCH  15  16
ATOM     16  O   UNL d   1      31.573 -20.635   4.729  0.00  0.00    -0.394 OA
ATOM     17  C   UNL d   1      30.849 -21.554   5.424  0.00  0.00     0.201 C 
ENDBRANCH  15  16
ENDBRANCH  14  15
ENDBRANCH  13  14
ENDBRANCH  11  13
ENDBRANCH   6  11
BRANCH   8  18
ATOM     18  C   UNL d   1      31.644 -23.846  -3.219  0.00  0.00     0.256 C 
ATOM     19  N   UNL d   1      31.148 -23.656  -4.492  0.00  0.00    -0.365 N 
ATOM     20  H   UNL d   1      30.557 -22.931  -4.842  0.00  0.00     0.159 HD
ATOM     21  H   UNL d   1      31.392 -24.328  -5.207  0.00  0.00     0.159 HD
ATOM     22  O   UNL d   1      32.368 -24.828  -3.073  0.00  0.00    -0.267 OA
ENDBRANCH   8  18
ENDBRANCH   1   5
BRANCH   2  23
ATOM     23  C   UNL d   1      31.952 -17.244   0.504  0.00  0.00     0.335 C 
BRANCH  23  24
ATOM     24  N   UNL d   1      30.476 -16.471   0.876  0.00  0.00    -0.058 N 
ATOM     25  H   UNL d   1      30.664 -15.828   1.666  0.00  0.00     0.278 HD
ATOM     26  H   UNL d   1      29.797 -17.063   1.355  0.00  0.00     0.278 HD
BRANCH  24  27
ATOM     27  C   UNL d   1      29.463 -15.843  -0.177  0.00  0.00     0.223 C 
BRANCH  27  28
ATOM     28  C   UNL d   1      28.451 -16.805  -1.119  0.00  0.00     0.076 C 
BRANCH  28  29
ATOM     29  C   UNL d   1      26.976 -16.958  -0.634  0.00  0.00    -0.056 A 
ATOM     30  C   UNL d   1      26.004 -16.232  -1.321  0.00  0.00     0.007 A 
ATOM     31  C   UNL d   1      24.633 -16.496  -1.178  0.00  0.00     0.001 A 
ATOM     32  C   UNL d   1      24.179 -17.453  -0.280  0.00  0.00     0.000 A 
ATOM     33  C   UNL d   1      25.107 -18.192   0.438  0.00  0.00     0.001 A 
ATOM     34  C   UNL d   1      26.489 -17.955   0.266  0.00  0.00     0.007 A 
ENDBRANCH  28  29
ENDBRANCH  27  28
BRANCH  27  35
ATOM     35  C   UNL d   1      28.666 -14.762   0.598  0.00  0.00    -0.028 C 
ATOM     36  C   UNL d   1      28.351 -14.776   1.977  0.00  0.00     0.009 C 
ATOM     37  C   UNL d   1      27.412 -13.893   2.512  0.00  0.00     0.001 C 
ATOM     38  C   UNL d   1      26.873 -12.900   1.710  0.00  0.00     0.000 C 
ATOM     39  C   UNL d   1      27.310 -12.757   0.396  0.00  0.00     0.001 C 
ATOM     40  C   UNL d   1      28.221 -13.661  -0.147  0.00  0.00     0.009 C 
ENDBRANCH  27  35
ENDBRANCH  24  27
ENDBRANCH  23  24
ENDBRANCH   2  23
TORSDOF 13
ENDMDL
MODEL 5
REMARK VINA RESULT:    -9.723      5.884      8.592
REMARK INTER + INTRA:         -16.298
REMARK INTER:                 -13.601
REMARK INTRA:                  -2.697
REMARK CONF_INDEPENDENT:        3.878
REMARK UNBOUND:                -2.697
REMARK  13 active torsions:
REMARK  status: ('A' for Active; 'I' for Inactive)
REMARK    1  A    between atoms: O_2  and  C_3 
REMARK    2  A    between atoms: C_3  and  C_4 
REMARK    3  A    between atoms: C_4  and  O_5 
REMARK    4  A    between atoms: O_5  and  C_6 
REMARK    5  A    between atoms: C_6  and  C_8 
REMARK    6  A    between atoms: C_9  and  N_10 
REMARK       I    between atoms: N_10  and  C_11 
REMARK    7  A    between atoms: C_11  and  C_13 
REMARK    8  A    between atoms: C_13  and  N_14 
REMARK    9  A    between atoms: N_14  and  C_15 
REMARK   10  A    between atoms: C_15  and  C_16 
REMARK   11  A    between atoms: C_15  and  C_23 
REMARK   12  A    between atoms: C_16  and  C_17 
REMARK   13  A    between atoms: C_30  and  C_31 
REMARK       I    between atoms: C_31  and  N_32 
ROOT
ATOM      1  N   UNL d   1      29.801 -17.131  -2.846  0.00  0.00    -0.319 N 
ATOM      2  C   UNL d   1      30.672 -16.431  -1.968  0.00  0.00     0.248 C 
ATOM      3  O   UNL d   1      31.762 -15.988  -2.326  0.00  0.00    -0.271 OA
ATOM      4  H   UNL d   1      28.791 -17.202  -2.693  0.00  0.00     0.169 HD
ENDROOT
BRANCH   1   5
ATOM      5  C   UNL d   1      30.288 -17.733  -4.045  0.00  0.00     0.094 C 
ATOM      6  C   UNL d   1      30.453 -17.263  -5.346  0.00  0.00     0.080 C 
ATOM      7  C   UNL d   1      30.871 -18.322  -6.268  0.00  0.00    -0.020 C 
ATOM      8  C   UNL d   1      31.135 -19.534  -5.654  0.00  0.00     0.081 C 
ATOM      9  C   UNL d   1      30.965 -17.978  -7.721  0.00  0.00     0.051 C 
ATOM     10  S   UNL d   1      30.883 -19.353  -3.925  0.00  0.00    -0.065 SA
BRANCH   6  11
ATOM     11  C   UNL d   1      30.253 -15.919  -5.898  0.00  0.00     0.296 C 
ATOM     12  O   UNL d   1      31.048 -14.976  -5.697  0.00  0.00    -0.259 OA
BRANCH  11  13
ATOM     13  O   UNL d   1      29.142 -15.561  -6.522  0.00  0.00    -0.315 OA
BRANCH  13  14
ATOM     14  C   UNL d   1      28.580 -14.285  -6.485  0.00  0.00     0.205 C 
BRANCH  14  15
ATOM     15  C   UNL d   1      27.739 -14.438  -5.293  0.00  0.00     0.193 C 
BRANCH  15  16
ATOM     16  O   UNL d   1      26.866 -15.413  -5.768  0.00  0.00    -0.394 OA
ATOM     17  C   UNL d   1      25.741 -15.574  -5.021  0.00  0.00     0.201 C 
ENDBRANCH  15  16
ENDBRANCH  14  15
ENDBRANCH  13  14
ENDBRANCH  11  13
ENDBRANCH   6  11
BRANCH   8  18
ATOM     18  C   UNL d   1      31.569 -20.833  -6.218  0.00  0.00     0.256 C 
ATOM     19  N   UNL d   1      32.506 -21.599  -5.553  0.00  0.00    -0.365 N 
ATOM     20  H   UNL d   1      32.970 -21.424  -4.687  0.00  0.00     0.159 HD
ATOM     21  H   UNL d   1      32.794 -22.473  -5.972  0.00  0.00     0.159 HD
ATOM     22  O   UNL d   1      31.150 -21.305  -7.273  0.00  0.00    -0.267 OA
ENDBRANCH   8  18
ENDBRANCH   1   5
BRANCH   2  23
ATOM     23  C   UNL d   1      30.254 -16.258  -0.446  0.00  0.00     0.335 C 
BRANCH  23  24
ATOM     24  N   UNL d   1      28.914 -17.074   0.229  0.00  0.00    -0.058 N 
ATOM     25  H   UNL d   1      28.878 -16.814   1.231  0.00  0.00     0.278 HD
ATOM     26  H   UNL d   1      29.053 -18.075   0.365  0.00  0.00     0.278 HD
BRANCH  24  27
ATOM     27  C   UNL d   1      27.464 -17.173  -0.415  0.00  0.00     0.223 C 
BRANCH  27  28
ATOM     28  C   UNL d   1      26.215 -18.019   0.335  0.00  0.00     0.076 C 
BRANCH  28  29
ATOM     29  C   UNL d   1      24.784 -17.829  -0.255  0.00  0.00    -0.056 A 
ATOM     30  C   UNL d   1      24.048 -18.983  -0.518  0.00  0.00     0.007 A 
ATOM     31  C   UNL d   1      22.667 -18.949  -0.772  0.00  0.00     0.001 A 
ATOM     32  C   UNL d   1      21.984 -17.743  -0.847  0.00  0.00     0.000 A 
ATOM     33  C   UNL d   1      22.676 -16.565  -0.607  0.00  0.00     0.001 A 
ATOM     34  C   UNL d   1      24.057 -16.600  -0.313  0.00  0.00     0.007 A 
ENDBRANCH  28  29
ENDBRANCH  27  28
BRANCH  27  35
ATOM     35  C   UNL d   1      27.049 -15.716  -0.746  0.00  0.00    -0.028 C 
ATOM     36  C   UNL d   1      26.604 -15.232  -1.998  0.00  0.00     0.009 C 
ATOM     37  C   UNL d   1      26.509 -13.862  -2.251  0.00  0.00     0.001 C 
ATOM     38  C   UNL d   1      26.729 -12.961  -1.222  0.00  0.00     0.000 C 
ATOM     39  C   UNL d   1      26.989 -13.427   0.064  0.00  0.00     0.001 C 
ATOM     40  C   UNL d   1      27.118 -14.793   0.306  0.00  0.00     0.009 C 
ENDBRANCH  27  35
ENDBRANCH  24  27
ENDBRANCH  23  24
ENDBRANCH   2  23
TORSDOF 13
ENDMDL
MODEL 6
REMARK VINA RESULT:    -9.255      1.714      2.416
REMARK INTER + INTRA:         -16.222
REMARK INTER:                 -13.132
REMARK INTRA:                  -3.090
REMARK CONF_INDEPENDENT:        3.878
REMARK UNBOUND:                -3.090
REMARK  13 active torsions:
REMARK  status: ('A' for Active; 'I' for Inactive)
REMARK    1  A    between atoms: O_2  and  C_3 
REMARK    2  A    between atoms: C_3  and  C_4 
REMARK    3  A    between atoms: C_4  and  O_5 
REMARK    4  A    between atoms: O_5  and  C_6 
REMARK    5  A    between atoms: C_6  and  C_8 
REMARK    6  A    between atoms: C_9  and  N_10 
REMARK       I    between atoms: N_10  and  C_11 
REMARK    7  A    between atoms: C_11  and  C_13 
REMARK    8  A    between atoms: C_13  and  N_14 
REMARK    9  A    between atoms: N_14  and  C_15 
REMARK   10  A    between atoms: C_15  and  C_16 
REMARK   11  A    between atoms: C_15  and  C_23 
REMARK   12  A    between atoms: C_16  and  C_17 
REMARK   13  A    between atoms: C_30  and  C_31 
REMARK       I    between atoms: C_31  and  N_32 
ROOT
ATOM      1  N   UNL d   1      29.028 -13.577   0.237  0.00  0.00    -0.319 N 
ATOM      2  C   UNL d   1      29.961 -14.551   0.684  0.00  0.00     0.248 C 
ATOM      3  O   UNL d   1      30.112 -15.635   0.123  0.00  0.00    -0.271 OA
ATOM      4  H   UNL d   1      29.117 -12.579   0.448  0.00  0.00     0.169 HD
ENDROOT
BRANCH   1   5
ATOM      5  C   UNL d   1      27.930 -13.936  -0.600  0.00  0.00     0.094 C 
ATOM      6  C   UNL d   1      27.132 -15.075  -0.686  0.00  0.00     0.080 C 
ATOM      7  C   UNL d   1      26.204 -15.017  -1.819  0.00  0.00    -0.020 C 
ATOM      8  C   UNL d   1      26.216 -13.810  -2.496  0.00  0.00     0.081 C 
ATOM      9  C   UNL d   1      25.375 -16.229  -2.097  0.00  0.00     0.051 C 
ATOM     10  S   UNL d   1      27.367 -12.739  -1.715  0.00  0.00    -0.065 SA
BRANCH   6  11
ATOM     11  C   UNL d   1      27.110 -16.279   0.152  0.00  0.00     0.296 C 
ATOM     12  O   UNL d   1      27.405 -16.268   1.366  0.00  0.00    -0.259 OA
BRANCH  11  13
ATOM     13  O   UNL d   1      26.925 -17.491  -0.345  0.00  0.00    -0.315 OA
BRANCH  13  14
ATOM     14  C   UNL d   1      26.406 -18.575   0.362  0.00  0.00     0.205 C 
BRANCH  14  15
ATOM     15  C   UNL d   1      25.041 -18.079   0.575  0.00  0.00     0.193 C 
BRANCH  15  16
ATOM     16  O   UNL d   1      24.439 -18.611  -0.563  0.00  0.00    -0.394 OA
ATOM     17  C   UNL d   1      23.104 -18.840  -0.438  0.00  0.00     0.201 C 
ENDBRANCH  15  16
ENDBRANCH  14  15
ENDBRANCH  13  14
ENDBRANCH  11  13
ENDBRANCH   6  11
BRANCH   8  18
ATOM     18  C   UNL d   1      25.447 -13.354  -3.678  0.00  0.00     0.256 C 
ATOM     19  N   UNL d   1      25.530 -12.040  -4.093  0.00  0.00    -0.365 N 
ATOM     20  H   UNL d   1      26.067 -11.288  -3.717  0.00  0.00     0.159 HD
ATOM     21  H   UNL d   1      24.980 -11.756  -4.893  0.00  0.00     0.159 HD
ATOM     22  O   UNL d   1      24.709 -14.076  -4.345  0.00  0.00    -0.267 OA
ENDBRANCH   8  18
ENDBRANCH   1   5
BRANCH   2  23
ATOM     23  C   UNL d   1      30.807 -14.260   1.996  0.00  0.00     0.335 C 
BRANCH  23  24
ATOM     24  N   UNL d   1      30.326 -14.824   3.534  0.00  0.00    -0.058 N 
ATOM     25  H   UNL d   1      31.015 -14.461   4.217  0.00  0.00     0.278 HD
ATOM     26  H   UNL d   1      30.502 -15.816   3.695  0.00  0.00     0.278 HD
BRANCH  24  27
ATOM     27  C   UNL d   1      28.845 -14.802   4.112  0.00  0.00     0.223 C 
BRANCH  27  28
ATOM     28  C   UNL d   1      28.530 -14.993   5.755  0.00  0.00     0.076 C 
BRANCH  28  29
ATOM     29  C   UNL d   1      29.099 -13.899   6.711  0.00  0.00    -0.056 A 
ATOM     30  C   UNL d   1      28.249 -12.845   7.047  0.00  0.00     0.007 A 
ATOM     31  C   UNL d   1      28.529 -11.966   8.105  0.00  0.00     0.001 A 
ATOM     32  C   UNL d   1      29.715 -12.065   8.822  0.00  0.00     0.000 A 
ATOM     33  C   UNL d   1      30.599 -13.089   8.516  0.00  0.00     0.001 A 
ATOM     34  C   UNL d   1      30.301 -13.998   7.477  0.00  0.00     0.007 A 
ENDBRANCH  28  29
ENDBRANCH  27  28
BRANCH  27  35
ATOM     35  C   UNL d   1      28.192 -13.512   3.550  0.00  0.00    -0.028 C 
ATOM     36  C   UNL d   1      27.012 -13.436   2.775  0.00  0.00     0.009 C 
ATOM     37  C   UNL d   1      26.662 -12.261   2.106  0.00  0.00     0.001 C 
ATOM     38  C   UNL d   1      27.410 -11.112   2.307  0.00  0.00     0.000 C 
ATOM     39  C   UNL d   1      28.469 -11.123   3.211  0.00  0.00     0.001 C 
ATOM     40  C   UNL d   1      28.838 -12.305   3.850  0.00  0.00     0.009 C 
ENDBRANCH  27  35
ENDBRANCH  24  27
ENDBRANCH  23  24
ENDBRANCH   2  23
TORSDOF 13
ENDMDL
MODEL 7
REMARK VINA RESULT:    -9.254      3.932      9.033
REMARK INTER + INTRA:         -16.192
REMARK INTER:                 -13.131
REMARK INTRA:                  -3.060
REMARK CONF_INDEPENDENT:        3.878
REMARK UNBOUND:                -3.060
REMARK  13 active torsions:
REMARK  status: ('A' for Active; 'I' for Inactive)
REMARK    1  A    between atoms: O_2  and  C_3 
REMARK    2  A    between atoms: C_3  and  C_4 
REMARK    3  A    between atoms: C_4  and  O_5 
REMARK    4  A    between atoms: O_5  and  C_6 
REMARK    5  A    between atoms: C_6  and  C_8 
REMARK    6  A    between atoms: C_9  and  N_10 
REMARK       I    between atoms: N_10  and  C_11 
REMARK    7  A    between atoms: C_11  and  C_13 
REMARK    8  A    between atoms: C_13  and  N_14 
REMARK    9  A    between atoms: N_14  and  C_15 
REMARK   10  A    between atoms: C_15  and  C_16 
REMARK   11  A    between atoms: C_15  and  C_23 
REMARK   12  A    between atoms: C_16  and  C_17 
REMARK   13  A    between atoms: C_30  and  C_31 
REMARK       I    between atoms: C_31  and  N_32 
ROOT
ATOM      1  N   UNL d   1      29.804 -14.572   3.388  0.00  0.00    -0.319 N 
ATOM      2  C   UNL d   1      30.788 -14.102   2.476  0.00  0.00     0.248 C 
ATOM      3  O   UNL d   1      31.608 -13.234   2.772  0.00  0.00    -0.271 OA
ATOM      4  H   UNL d   1      29.358 -15.489   3.304  0.00  0.00     0.169 HD
ENDROOT
BRANCH   1   5
ATOM      5  C   UNL d   1      29.423 -13.800   4.525  0.00  0.00     0.094 C 
ATOM      6  C   UNL d   1      29.178 -12.442   4.715  0.00  0.00     0.080 C 
ATOM      7  C   UNL d   1      28.943 -12.113   6.123  0.00  0.00    -0.020 C 
ATOM      8  C   UNL d   1      28.887 -13.214   6.958  0.00  0.00     0.081 C 
ATOM      9  C   UNL d   1      28.789 -10.668   6.480  0.00  0.00     0.051 C 
ATOM     10  S   UNL d   1      29.109 -14.663   5.991  0.00  0.00    -0.065 SA
BRANCH   6  11
ATOM     11  C   UNL d   1      29.149 -11.342   3.744  0.00  0.00     0.296 C 
ATOM     12  O   UNL d   1      30.098 -11.093   2.969  0.00  0.00    -0.259 OA
BRANCH  11  13
ATOM     13  O   UNL d   1      28.184 -10.437   3.718  0.00  0.00    -0.315 OA
BRANCH  13  14
ATOM     14  C   UNL d   1      28.132  -9.346   2.852  0.00  0.00     0.205 C 
BRANCH  14  15
ATOM     15  C   UNL d   1      27.562  -8.351   3.767  0.00  0.00     0.193 C 
BRANCH  15  16
ATOM     16  O   UNL d   1      26.281  -8.272   3.227  0.00  0.00    -0.394 OA
ATOM     17  C   UNL d   1      26.096  -9.021   2.106  0.00  0.00     0.201 C 
ENDBRANCH  15  16
ENDBRANCH  14  15
ENDBRANCH  13  14
ENDBRANCH  11  13
ENDBRANCH   6  11
BRANCH   8  18
ATOM     18  C   UNL d   1      28.676 -13.313   8.421  0.00  0.00     0.256 C 
ATOM     19  N   UNL d   1      29.065 -14.448   9.103  0.00  0.00    -0.365 N 
ATOM     20  H   UNL d   1      29.508 -15.274   8.760  0.00  0.00     0.159 HD
ATOM     21  H   UNL d   1      28.892 -14.492  10.098  0.00  0.00     0.159 HD
ATOM     22  O   UNL d   1      28.160 -12.433   9.107  0.00  0.00    -0.267 OA
ENDBRANCH   8  18
ENDBRANCH   1   5
BRANCH   2  23
ATOM     23  C   UNL d   1      30.801 -14.674   0.995  0.00  0.00     0.335 C 
BRANCH  23  24
ATOM     24  N   UNL d   1      29.965 -16.098   0.561  0.00  0.00    -0.058 N 
ATOM     25  H   UNL d   1      30.060 -16.757   1.355  0.00  0.00     0.278 HD
ATOM     26  H   UNL d   1      30.440 -16.672  -0.135  0.00  0.00     0.278 HD
BRANCH  24  27
ATOM     27  C   UNL d   1      28.520 -16.164  -0.099  0.00  0.00     0.223 C 
BRANCH  27  28
ATOM     28  C   UNL d   1      27.532 -17.519   0.060  0.00  0.00     0.076 C 
BRANCH  28  29
ATOM     29  C   UNL d   1      26.068 -17.386  -0.462  0.00  0.00    -0.056 A 
ATOM     30  C   UNL d   1      25.083 -18.096   0.224  0.00  0.00     0.007 A 
ATOM     31  C   UNL d   1      23.714 -17.842   0.043  0.00  0.00     0.001 A 
ATOM     32  C   UNL d   1      23.277 -16.915  -0.894  0.00  0.00     0.000 A 
ATOM     33  C   UNL d   1      24.219 -16.193  -1.612  0.00  0.00     0.001 A 
ATOM     34  C   UNL d   1      25.597 -16.419  -1.403  0.00  0.00     0.007 A 
ENDBRANCH  28  29
ENDBRANCH  27  28
BRANCH  27  35
ATOM     35  C   UNL d   1      27.792 -14.870   0.349  0.00  0.00    -0.028 C 
ATOM     36  C   UNL d   1      27.475 -13.758  -0.465  0.00  0.00     0.009 C 
ATOM     37  C   UNL d   1      27.059 -12.548   0.094  0.00  0.00     0.001 C 
ATOM     38  C   UNL d   1      26.826 -12.471   1.458  0.00  0.00     0.000 C 
ATOM     39  C   UNL d   1      26.957 -13.609   2.250  0.00  0.00     0.001 C 
ATOM     40  C   UNL d   1      27.407 -14.805   1.695  0.00  0.00     0.009 C 
ENDBRANCH  27  35
ENDBRANCH  24  27
ENDBRANCH  23  24
ENDBRANCH   2  23
TORSDOF 13
ENDMDL
MODEL 8
REMARK VINA RESULT:    -8.719      2.725      5.438
REMARK INTER + INTRA:         -16.145
REMARK INTER:                 -12.597
REMARK INTRA:                  -3.547
REMARK CONF_INDEPENDENT:        3.878
REMARK UNBOUND:                -3.547
REMARK  13 active torsions:
REMARK  status: ('A' for Active; 'I' for Inactive)
REMARK    1  A    between atoms: O_2  and  C_3 
REMARK    2  A    between atoms: C_3  and  C_4 
REMARK    3  A    between atoms: C_4  and  O_5 
REMARK    4  A    between atoms: O_5  and  C_6 
REMARK    5  A    between atoms: C_6  and  C_8 
REMARK    6  A    between atoms: C_9  and  N_10 
REMARK       I    between atoms: N_10  and  C_11 
REMARK    7  A    between atoms: C_11  and  C_13 
REMARK    8  A    between atoms: C_13  and  N_14 
REMARK    9  A    between atoms: N_14  and  C_15 
REMARK   10  A    between atoms: C_15  and  C_16 
REMARK   11  A    between atoms: C_15  and  C_23 
REMARK   12  A    between atoms: C_16  and  C_17 
REMARK   13  A    between atoms: C_30  and  C_31 
REMARK       I    between atoms: C_31  and  N_32 
ROOT
ATOM      1  N   UNL d   1      28.398 -15.930   0.700  0.00  0.00    -0.319 N 
ATOM      2  C   UNL d   1      29.650 -15.733   0.057  0.00  0.00     0.248 C 
ATOM      3  O   UNL d   1      29.746 -15.420  -1.129  0.00  0.00    -0.271 OA
ATOM      4  H   UNL d   1      28.271 -15.847   1.713  0.00  0.00     0.169 HD
ENDROOT
BRANCH   1   5
ATOM      5  C   UNL d   1      27.215 -16.197  -0.051  0.00  0.00     0.094 C 
ATOM      6  C   UNL d   1      26.545 -15.497  -1.052  0.00  0.00     0.080 C 
ATOM      7  C   UNL d   1      25.278 -16.134  -1.420  0.00  0.00    -0.020 C 
ATOM      8  C   UNL d   1      25.057 -17.351  -0.801  0.00  0.00     0.081 C 
ATOM      9  C   UNL d   1      24.401 -15.417  -2.396  0.00  0.00     0.051 C 
ATOM     10  S   UNL d   1      26.435 -17.716   0.227  0.00  0.00    -0.065 SA
BRANCH   6  11
ATOM     11  C   UNL d   1      26.908 -14.253  -1.741  0.00  0.00     0.296 C 
ATOM     12  O   UNL d   1      26.304 -13.174  -1.558  0.00  0.00    -0.259 OA
BRANCH  11  13
ATOM     13  O   UNL d   1      27.798 -14.210  -2.718  0.00  0.00    -0.315 OA
BRANCH  13  14
ATOM     14  C   UNL d   1      28.032 -15.236  -3.633  0.00  0.00     0.205 C 
BRANCH  14  15
ATOM     15  C   UNL d   1      26.819 -15.099  -4.447  0.00  0.00     0.193 C 
BRANCH  15  16
ATOM     16  O   UNL d   1      27.397 -15.200  -5.711  0.00  0.00    -0.394 OA
ATOM     17  C   UNL d   1      28.755 -15.275  -5.704  0.00  0.00     0.201 C 
ENDBRANCH  15  16
ENDBRANCH  14  15
ENDBRANCH  13  14
ENDBRANCH  11  13
ENDBRANCH   6  11
BRANCH   8  18
ATOM     18  C   UNL d   1      23.919 -18.295  -0.894  0.00  0.00     0.256 C 
ATOM     19  N   UNL d   1      23.471 -18.954   0.233  0.00  0.00    -0.365 N 
ATOM     20  H   UNL d   1      23.795 -18.894   1.175  0.00  0.00     0.159 HD
ATOM     21  H   UNL d   1      22.703 -19.605   0.133  0.00  0.00     0.159 HD
ATOM     22  O   UNL d   1      23.318 -18.554  -1.935  0.00  0.00    -0.267 OA
ENDBRANCH   8  18
ENDBRANCH   1   5
BRANCH   2  23
ATOM     23  C   UNL d   1      30.985 -15.980   0.879  0.00  0.00     0.335 C 
BRANCH  23  24
ATOM     24  N   UNL d   1      31.232 -15.323   2.436  0.00  0.00    -0.058 N 
ATOM     25  H   UNL d   1      32.169 -15.634   2.748  0.00  0.00     0.278 HD
ATOM     26  H   UNL d   1      30.697 -15.778   3.176  0.00  0.00     0.278 HD
BRANCH  24  27
ATOM     27  C   UNL d   1      30.921 -13.827   2.875  0.00  0.00     0.223 C 
BRANCH  27  28
ATOM     28  C   UNL d   1      30.594 -12.621   1.746  0.00  0.00     0.076 C 
BRANCH  28  29
ATOM     29  C   UNL d   1      29.162 -12.003   1.771  0.00  0.00    -0.056 A 
ATOM     30  C   UNL d   1      28.152 -12.717   1.128  0.00  0.00     0.007 A 
ATOM     31  C   UNL d   1      26.791 -12.427   1.320  0.00  0.00     0.001 A 
ATOM     32  C   UNL d   1      26.393 -11.356   2.108  0.00  0.00     0.000 A 
ATOM     33  C   UNL d   1      27.363 -10.606   2.758  0.00  0.00     0.001 A 
ATOM     34  C   UNL d   1      28.730 -10.920   2.597  0.00  0.00     0.007 A 
ENDBRANCH  28  29
ENDBRANCH  27  28
BRANCH  27  35
ATOM     35  C   UNL d   1      29.803 -13.925   3.945  0.00  0.00    -0.028 C 
ATOM     36  C   UNL d   1      28.556 -14.578   3.802  0.00  0.00     0.009 C 
ATOM     37  C   UNL d   1      27.528 -14.382   4.726  0.00  0.00     0.001 C 
ATOM     38  C   UNL d   1      27.771 -13.640   5.871  0.00  0.00     0.000 C 
ATOM     39  C   UNL d   1      29.048 -13.142   6.117  0.00  0.00     0.001 C 
ATOM     40  C   UNL d   1      30.063 -13.309   5.177  0.00  0.00     0.009 C 
ENDBRANCH  27  35
ENDBRANCH  24  27
ENDBRANCH  23  24
ENDBRANCH   2  23
TORSDOF 13
ENDMDL
MODEL 9
REMARK VINA RESULT:    -8.086      5.025      7.920
REMARK INTER + INTRA:         -16.487
REMARK INTER:                 -11.964
REMARK INTRA:                  -4.523
REMARK CONF_INDEPENDENT:        3.878
REMARK UNBOUND:                -4.523
REMARK  13 active torsions:
REMARK  status: ('A' for Active; 'I' for Inactive)
REMARK    1  A    between atoms: O_2  and  C_3 
REMARK    2  A    between atoms: C_3  and  C_4 
REMARK    3  A    between atoms: C_4  and  O_5 
REMARK    4  A    between atoms: O_5  and  C_6 
REMARK    5  A    between atoms: C_6  and  C_8 
REMARK    6  A    between atoms: C_9  and  N_10 
REMARK       I    between atoms: N_10  and  C_11 
REMARK    7  A    between atoms: C_11  and  C_13 
REMARK    8  A    between atoms: C_13  and  N_14 
REMARK    9  A    between atoms: N_14  and  C_15 
REMARK   10  A    between atoms: C_15  and  C_16 
REMARK   11  A    between atoms: C_15  and  C_23 
REMARK   12  A    between atoms: C_16  and  C_17 
REMARK   13  A    between atoms: C_30  and  C_31 
REMARK       I    between atoms: C_31  and  N_32 
ROOT
ATOM      1  N   UNL d   1      27.581 -13.841  -1.494  0.00  0.00    -0.319 N 
ATOM      2  C   UNL d   1      27.345 -13.713  -0.099  0.00  0.00     0.248 C 
ATOM      3  O   UNL d   1      26.399 -13.074   0.360  0.00  0.00    -0.271 OA
ATOM      4  H   UNL d   1      28.118 -14.612  -1.902  0.00  0.00     0.169 HD
ENDROOT
BRANCH   1   5
ATOM      5  C   UNL d   1      27.019 -12.919  -2.426  0.00  0.00     0.094 C 
ATOM      6  C   UNL d   1      26.383 -13.077  -3.656  0.00  0.00     0.080 C 
ATOM      7  C   UNL d   1      26.101 -11.793  -4.303  0.00  0.00    -0.020 C 
ATOM      8  C   UNL d   1      26.403 -10.690  -3.524  0.00  0.00     0.081 C 
ATOM      9  C   UNL d   1      25.532 -11.825  -5.685  0.00  0.00     0.051 C 
ATOM     10  S   UNL d   1      27.022 -11.248  -1.977  0.00  0.00    -0.065 SA
BRANCH   6  11
ATOM     11  C   UNL d   1      25.997 -14.299  -4.370  0.00  0.00     0.296 C 
ATOM     12  O   UNL d   1      24.809 -14.673  -4.485  0.00  0.00    -0.259 OA
BRANCH  11  13
ATOM     13  O   UNL d   1      26.881 -15.178  -4.813  0.00  0.00    -0.315 OA
BRANCH  13  14
ATOM     14  C   UNL d   1      28.113 -14.856  -5.380  0.00  0.00     0.205 C 
BRANCH  14  15
ATOM     15  C   UNL d   1      28.959 -15.805  -4.647  0.00  0.00     0.193 C 
BRANCH  15  16
ATOM     16  O   UNL d   1      29.270 -15.009  -3.547  0.00  0.00    -0.394 OA
ATOM     17  C   UNL d   1      29.953 -13.872  -3.850  0.00  0.00     0.201 C 
ENDBRANCH  15  16
ENDBRANCH  14  15
ENDBRANCH  13  14
ENDBRANCH  11  13
ENDBRANCH   6  11
BRANCH   8  18
ATOM     18  C   UNL d   1      26.274  -9.241  -3.803  0.00  0.00     0.256 C 
ATOM     19  N   UNL d   1      25.099  -8.580  -3.509  0.00  0.00    -0.365 N 
ATOM     20  H   UNL d   1      24.259  -8.931  -3.100  0.00  0.00     0.159 HD
ATOM     21  H   UNL d   1      25.036  -7.595  -3.726  0.00  0.00     0.159 HD
ATOM     22  O   UNL d   1      27.162  -8.549  -4.296  0.00  0.00    -0.267 OA
ENDBRANCH   8  18
ENDBRANCH   1   5
BRANCH   2  23
ATOM     23  C   UNL d   1      28.371 -14.370   0.919  0.00  0.00     0.335 C 
BRANCH  23  24
ATOM     24  N   UNL d   1      28.678 -16.049   0.947  0.00  0.00    -0.058 N 
ATOM     25  H   UNL d   1      28.147 -16.439   1.746  0.00  0.00     0.278 HD
ATOM     26  H   UNL d   1      29.608 -16.304   1.280  0.00  0.00     0.278 HD
BRANCH  24  27
ATOM     27  C   UNL d   1      28.660 -17.020  -0.312  0.00  0.00     0.223 C 
BRANCH  27  28
ATOM     28  C   UNL d   1      27.422 -16.971  -1.453  0.00  0.00     0.076 C 
BRANCH  28  29
ATOM     29  C   UNL d   1      25.962 -17.059  -0.909  0.00  0.00    -0.056 A 
ATOM     30  C   UNL d   1      25.028 -16.179  -1.455  0.00  0.00     0.007 A 
ATOM     31  C   UNL d   1      23.647 -16.344  -1.269  0.00  0.00     0.001 A 
ATOM     32  C   UNL d   1      23.150 -17.359  -0.463  0.00  0.00     0.000 A 
ATOM     33  C   UNL d   1      24.041 -18.252   0.115  0.00  0.00     0.001 A 
ATOM     34  C   UNL d   1      25.429 -18.111  -0.103  0.00  0.00     0.007 A 
ENDBRANCH  28  29
ENDBRANCH  27  28
BRANCH  27  35
ATOM     35  C   UNL d   1      30.054 -16.875  -0.976  0.00  0.00    -0.028 C 
ATOM     36  C   UNL d   1      31.075 -15.971  -0.600  0.00  0.00     0.009 C 
ATOM     37  C   UNL d   1      32.179 -15.745  -1.424  0.00  0.00     0.001 C 
ATOM     38  C   UNL d   1      32.347 -16.511  -2.567  0.00  0.00     0.000 C 
ATOM     39  C   UNL d   1      31.446 -17.532  -2.856  0.00  0.00     0.001 C 
ATOM     40  C   UNL d   1      30.326 -17.732  -2.051  0.00  0.00     0.009 C 
ENDBRANCH  27  35
ENDBRANCH  24  27
ENDBRANCH  23  24
ENDBRANCH   2  23
TORSDOF 13
ENDMDL
