MODEL 1
REMARK VINA RESULT:    -6.611      0.000      0.000
REMARK INTER + INTRA:          -8.968
REMARK INTER:                  -7.804
REMARK INTRA:                  -1.165
REMARK CONF_INDEPENDENT:        1.193
REMARK UNBOUND:                -1.165
REMARK  4 active torsions:
REMARK  status: ('A' for Active; 'I' for Inactive)
REMARK    1  A    between atoms: C_5  and  O_6 
REMARK    2  A    between atoms: C_7  and  C_8 
REMARK       I    between atoms: C_8  and  N_10 
REMARK    3  A    between atoms: N_10  and  N_11 
REMARK    4  A    between atoms: N_11  and  C_12 
ROOT
ATOM      1  C   UNL d   1      22.809 -16.865  -0.892  0.00  0.00     0.272 C 
ATOM      2  O   UNL d   1      22.134 -15.835  -0.946  0.00  0.00    -0.266 OA
ATOM      3  N   UNL d   1      22.182 -18.117  -0.821  0.00  0.00    -0.265 N 
ATOM      4  H   UNL d   1      22.662 -18.991  -0.977  0.00  0.00     0.190 HD
ENDROOT
BRANCH   3   5
ATOM      5  N   UNL d   1      20.790 -18.148  -0.968  0.00  0.00    -0.295 N 
ATOM      6  H   UNL d   1      20.367 -17.482  -1.618  0.00  0.00     0.187 HD
BRANCH   5   7
ATOM      7  C   UNL d   1      20.020 -19.113  -0.306  0.00  0.00     0.086 A 
ATOM      8  C   UNL d   1      18.890 -19.700  -0.893  0.00  0.00     0.037 A 
ATOM      9  C   UNL d   1      18.145 -20.672  -0.210  0.00  0.00     0.045 A 
ATOM     10  C   UNL d   1      18.497 -21.034   1.084  0.00  0.00     0.119 A 
ATOM     11  F   UNL d   1      17.780 -21.964   1.729  0.00  0.00    -0.206 F 
ATOM     12  C   UNL d   1      19.582 -20.444   1.713  0.00  0.00     0.086 A 
ATOM     13  C   UNL d   1      20.332 -19.497   1.015  0.00  0.00     0.147 A 
ATOM     14  F   UNL d   1      21.373 -18.931   1.644  0.00  0.00    -0.204 F 
ENDBRANCH   5   7
ENDBRANCH   3   5
BRANCH   1  15
ATOM     15  C   UNL d   1      24.329 -16.833  -0.906  0.00  0.00     0.067 A 
ATOM     16  C   UNL d   1      25.102 -17.856  -0.315  0.00  0.00     0.081 A 
ATOM     17  C   UNL d   1      26.505 -17.798  -0.306  0.00  0.00     0.038 A 
ATOM     18  C   UNL d   1      27.168 -16.737  -0.918  0.00  0.00     0.009 A 
ATOM     19  C   UNL d   1      26.437 -15.731  -1.549  0.00  0.00    -0.061 A 
ATOM     20  C   UNL d   1      27.135 -14.615  -2.273  0.00  0.00     0.048 C 
ATOM     21  C   UNL d   1      25.029 -15.779  -1.525  0.00  0.00     0.026 A 
BRANCH  16  22
ATOM     22  O   UNL d   1      24.514 -18.951   0.256  0.00  0.00    -0.360 OA
ATOM     23  H   UNL d   1      23.718 -18.695   0.747  0.00  0.00     0.217 HD
ENDBRANCH  16  22
ENDBRANCH   1  15
TORSDOF 4
ENDMDL
MODEL 2
REMARK VINA RESULT:    -5.995      5.248      6.830
REMARK INTER + INTRA:          -8.102
REMARK INTER:                  -7.188
REMARK INTRA:                  -0.914
REMARK CONF_INDEPENDENT:        1.193
REMARK UNBOUND:                -0.914
REMARK  4 active torsions:
REMARK  status: ('A' for Active; 'I' for Inactive)
REMARK    1  A    between atoms: C_5  and  O_6 
REMARK    2  A    between atoms: C_7  and  C_8 
REMARK       I    between atoms: C_8  and  N_10 
REMARK    3  A    between atoms: N_10  and  N_11 
REMARK    4  A    between atoms: N_11  and  C_12 
ROOT
ATOM      1  C   UNL d   1      27.351 -14.224   1.861  0.00  0.00     0.272 C 
ATOM      2  O   UNL d   1      26.724 -13.685   0.946  0.00  0.00    -0.266 OA
ATOM      3  N   UNL d   1      27.831 -15.532   1.713  0.00  0.00    -0.265 N 
ATOM      4  H   UNL d   1      28.513 -15.950   2.329  0.00  0.00     0.190 HD
ENDROOT
BRANCH   3   5
ATOM      5  N   UNL d   1      27.703 -16.125   0.451  0.00  0.00    -0.295 N 
ATOM      6  H   UNL d   1      28.553 -16.253  -0.102  0.00  0.00     0.187 HD
BRANCH   5   7
ATOM      7  C   UNL d   1      26.463 -16.598   0.003  0.00  0.00     0.086 A 
ATOM      8  C   UNL d   1      25.658 -15.866  -0.882  0.00  0.00     0.037 A 
ATOM      9  C   UNL d   1      24.426 -16.371  -1.322  0.00  0.00     0.045 A 
ATOM     10  C   UNL d   1      23.966 -17.593  -0.846  0.00  0.00     0.119 A 
ATOM     11  F   UNL d   1      22.788 -18.068  -1.272  0.00  0.00    -0.206 F 
ATOM     12  C   UNL d   1      24.714 -18.325   0.063  0.00  0.00     0.086 A 
ATOM     13  C   UNL d   1      25.950 -17.825   0.474  0.00  0.00     0.147 A 
ATOM     14  F   UNL d   1      26.656 -18.544   1.361  0.00  0.00    -0.204 F 
ENDBRANCH   5   7
ENDBRANCH   3   5
BRANCH   1  15
ATOM     15  C   UNL d   1      27.637 -13.507   3.171  0.00  0.00     0.067 A 
ATOM     16  C   UNL d   1      27.958 -14.212   4.352  0.00  0.00     0.081 A 
ATOM     17  C   UNL d   1      28.188 -13.540   5.563  0.00  0.00     0.038 A 
ATOM     18  C   UNL d   1      28.138 -12.150   5.616  0.00  0.00     0.009 A 
ATOM     19  C   UNL d   1      27.866 -11.419   4.460  0.00  0.00    -0.061 A 
ATOM     20  C   UNL d   1      27.873  -9.917   4.481  0.00  0.00     0.048 C 
ATOM     21  C   UNL d   1      27.603 -12.101   3.255  0.00  0.00     0.026 A 
BRANCH  16  22
ATOM     22  O   UNL d   1      28.076 -15.575   4.356  0.00  0.00    -0.360 OA
ATOM     23  H   UNL d   1      28.928 -15.846   3.980  0.00  0.00     0.217 HD
ENDBRANCH  16  22
ENDBRANCH   1  15
TORSDOF 4
ENDMDL
MODEL 3
REMARK VINA RESULT:    -5.980      5.411      6.998
REMARK INTER + INTRA:          -8.097
REMARK INTER:                  -7.173
REMARK INTRA:                  -0.924
REMARK CONF_INDEPENDENT:        1.193
REMARK UNBOUND:                -0.924
REMARK  4 active torsions:
REMARK  status: ('A' for Active; 'I' for Inactive)
REMARK    1  A    between atoms: C_5  and  O_6 
REMARK    2  A    between atoms: C_7  and  C_8 
REMARK       I    between atoms: C_8  and  N_10 
REMARK    3  A    between atoms: N_10  and  N_11 
REMARK    4  A    between atoms: N_11  and  C_12 
ROOT
ATOM      1  C   UNL d   1      27.353 -14.096   1.936  0.00  0.00     0.272 C 
ATOM      2  O   UNL d   1      26.702 -13.513   1.065  0.00  0.00    -0.266 OA
ATOM      3  N   UNL d   1      27.832 -15.393   1.709  0.00  0.00    -0.265 N 
ATOM      4  H   UNL d   1      28.530 -15.840   2.286  0.00  0.00     0.190 HD
ENDROOT
BRANCH   3   5
ATOM      5  N   UNL d   1      27.672 -15.922   0.422  0.00  0.00    -0.295 N 
ATOM      6  H   UNL d   1      28.476 -15.885  -0.209  0.00  0.00     0.187 HD
BRANCH   5   7
ATOM      7  C   UNL d   1      26.478 -16.551   0.048  0.00  0.00     0.086 A 
ATOM      8  C   UNL d   1      26.127 -17.827   0.512  0.00  0.00     0.037 A 
ATOM      9  C   UNL d   1      24.919 -18.426   0.129  0.00  0.00     0.045 A 
ATOM     10  C   UNL d   1      24.071 -17.774  -0.758  0.00  0.00     0.119 A 
ATOM     11  F   UNL d   1      22.918 -18.354  -1.119  0.00  0.00    -0.206 F 
ATOM     12  C   UNL d   1      24.405 -16.531  -1.272  0.00  0.00     0.086 A 
ATOM     13  C   UNL d   1      25.597 -15.932  -0.863  0.00  0.00     0.147 A 
ATOM     14  F   UNL d   1      25.907 -14.732  -1.378  0.00  0.00    -0.204 F 
ENDBRANCH   5   7
ENDBRANCH   3   5
BRANCH   1  15
ATOM     15  C   UNL d   1      27.671 -13.446   3.273  0.00  0.00     0.067 A 
ATOM     16  C   UNL d   1      27.982 -14.210   4.418  0.00  0.00     0.081 A 
ATOM     17  C   UNL d   1      28.241 -13.599   5.655  0.00  0.00     0.038 A 
ATOM     18  C   UNL d   1      28.232 -12.211   5.769  0.00  0.00     0.009 A 
ATOM     19  C   UNL d   1      27.972 -11.423   4.648  0.00  0.00    -0.061 A 
ATOM     20  C   UNL d   1      28.024  -9.925   4.735  0.00  0.00     0.048 C 
ATOM     21  C   UNL d   1      27.679 -12.044   3.418  0.00  0.00     0.026 A 
BRANCH  16  22
ATOM     22  O   UNL d   1      28.059 -15.575   4.362  0.00  0.00    -0.360 OA
ATOM     23  H   UNL d   1      28.905 -15.854   3.980  0.00  0.00     0.217 HD
ENDBRANCH  16  22
ENDBRANCH   1  15
TORSDOF 4
ENDMDL
MODEL 4
REMARK VINA RESULT:    -5.882      9.631     11.783
REMARK INTER + INTRA:          -7.798
REMARK INTER:                  -7.075
REMARK INTRA:                  -0.722
REMARK CONF_INDEPENDENT:        1.193
REMARK UNBOUND:                -0.722
REMARK  4 active torsions:
REMARK  status: ('A' for Active; 'I' for Inactive)
REMARK    1  A    between atoms: C_5  and  O_6 
REMARK    2  A    between atoms: C_7  and  C_8 
REMARK       I    between atoms: C_8  and  N_10 
REMARK    3  A    between atoms: N_10  and  N_11 
REMARK    4  A    between atoms: N_11  and  C_12 
ROOT
ATOM      1  C   UNL d   1      32.026 -20.921   3.881  0.00  0.00     0.272 C 
ATOM      2  O   UNL d   1      31.557 -19.782   3.827  0.00  0.00    -0.266 OA
ATOM      3  N   UNL d   1      31.726 -21.855   2.879  0.00  0.00    -0.265 N 
ATOM      4  H   UNL d   1      32.229 -22.722   2.755  0.00  0.00     0.190 HD
ENDROOT
BRANCH   3   5
ATOM      5  N   UNL d   1      31.014 -21.396   1.764  0.00  0.00    -0.295 N 
ATOM      6  H   UNL d   1      30.629 -20.450   1.804  0.00  0.00     0.187 HD
BRANCH   5   7
ATOM      7  C   UNL d   1      30.908 -22.179   0.608  0.00  0.00     0.086 A 
ATOM      8  C   UNL d   1      31.857 -22.123  -0.424  0.00  0.00     0.037 A 
ATOM      9  C   UNL d   1      31.730 -22.928  -1.565  0.00  0.00     0.045 A 
ATOM     10  C   UNL d   1      30.630 -23.765  -1.706  0.00  0.00     0.119 A 
ATOM     11  F   UNL d   1      30.517 -24.531  -2.799  0.00  0.00    -0.206 F 
ATOM     12  C   UNL d   1      29.650 -23.815  -0.727  0.00  0.00     0.086 A 
ATOM     13  C   UNL d   1      29.799 -23.030   0.416  0.00  0.00     0.147 A 
ATOM     14  F   UNL d   1      28.836 -23.086   1.349  0.00  0.00    -0.204 F 
ENDBRANCH   5   7
ENDBRANCH   3   5
BRANCH   1  15
ATOM     15  C   UNL d   1      32.941 -21.363   5.011  0.00  0.00     0.067 A 
ATOM     16  C   UNL d   1      32.454 -21.609   6.313  0.00  0.00     0.081 A 
ATOM     17  C   UNL d   1      33.316 -21.984   7.356  0.00  0.00     0.038 A 
ATOM     18  C   UNL d   1      34.677 -22.158   7.115  0.00  0.00     0.009 A 
ATOM     19  C   UNL d   1      35.186 -21.965   5.831  0.00  0.00    -0.061 A 
ATOM     20  C   UNL d   1      36.638 -22.213   5.537  0.00  0.00     0.048 C 
ATOM     21  C   UNL d   1      34.321 -21.556   4.797  0.00  0.00     0.026 A 
BRANCH  16  22
ATOM     22  O   UNL d   1      31.121 -21.508   6.603  0.00  0.00    -0.360 OA
ATOM     23  H   UNL d   1      30.680 -22.364   6.490  0.00  0.00     0.217 HD
ENDBRANCH  16  22
ENDBRANCH   1  15
TORSDOF 4
ENDMDL
MODEL 5
REMARK VINA RESULT:    -5.882      3.411      5.284
REMARK INTER + INTRA:          -8.064
REMARK INTER:                  -7.075
REMARK INTRA:                  -0.989
REMARK CONF_INDEPENDENT:        1.193
REMARK UNBOUND:                -0.989
REMARK  4 active torsions:
REMARK  status: ('A' for Active; 'I' for Inactive)
REMARK    1  A    between atoms: C_5  and  O_6 
REMARK    2  A    between atoms: C_7  and  C_8 
REMARK       I    between atoms: C_8  and  N_10 
REMARK    3  A    between atoms: N_10  and  N_11 
REMARK    4  A    between atoms: N_11  and  C_12 
ROOT
ATOM      1  C   UNL d   1      25.796 -15.179  -2.916  0.00  0.00     0.272 C 
ATOM      2  O   UNL d   1      25.471 -16.255  -3.423  0.00  0.00    -0.266 OA
ATOM      3  N   UNL d   1      25.911 -15.061  -1.523  0.00  0.00    -0.265 N 
ATOM      4  H   UNL d   1      26.362 -14.283  -1.064  0.00  0.00     0.190 HD
ENDROOT
BRANCH   3   5
ATOM      5  N   UNL d   1      25.793 -16.234  -0.767  0.00  0.00    -0.295 N 
ATOM      6  H   UNL d   1      26.599 -16.519  -0.206  0.00  0.00     0.187 HD
BRANCH   5   7
ATOM      7  C   UNL d   1      24.585 -16.940  -0.722  0.00  0.00     0.086 A 
ATOM      8  C   UNL d   1      23.346 -16.318  -0.935  0.00  0.00     0.037 A 
ATOM      9  C   UNL d   1      22.153 -17.055  -0.895  0.00  0.00     0.045 A 
ATOM     10  C   UNL d   1      22.185 -18.411  -0.597  0.00  0.00     0.119 A 
ATOM     11  F   UNL d   1      21.040 -19.107  -0.561  0.00  0.00    -0.206 F 
ATOM     12  C   UNL d   1      23.386 -19.052  -0.339  0.00  0.00     0.086 A 
ATOM     13  C   UNL d   1      24.569 -18.315  -0.407  0.00  0.00     0.147 A 
ATOM     14  F   UNL d   1      25.722 -18.950  -0.145  0.00  0.00    -0.204 F 
ENDBRANCH   5   7
ENDBRANCH   3   5
BRANCH   1  15
ATOM     15  C   UNL d   1      26.091 -13.948  -3.758  0.00  0.00     0.067 A 
ATOM     16  C   UNL d   1      26.728 -14.040  -5.014  0.00  0.00     0.081 A 
ATOM     17  C   UNL d   1      27.025 -12.893  -5.768  0.00  0.00     0.038 A 
ATOM     18  C   UNL d   1      26.661 -11.632  -5.302  0.00  0.00     0.009 A 
ATOM     19  C   UNL d   1      25.991 -11.508  -4.085  0.00  0.00    -0.061 A 
ATOM     20  C   UNL d   1      25.530 -10.164  -3.597  0.00  0.00     0.048 C 
ATOM     21  C   UNL d   1      25.727 -12.660  -3.318  0.00  0.00     0.026 A 
BRANCH  16  22
ATOM     22  O   UNL d   1      27.065 -15.252  -5.554  0.00  0.00    -0.360 OA
ATOM     23  H   UNL d   1      27.014 -15.950  -4.883  0.00  0.00     0.217 HD
ENDBRANCH  16  22
ENDBRANCH   1  15
TORSDOF 4
ENDMDL
MODEL 6
REMARK VINA RESULT:    -5.683      4.572      6.832
REMARK INTER + INTRA:          -8.216
REMARK INTER:                  -6.876
REMARK INTRA:                  -1.340
REMARK CONF_INDEPENDENT:        1.193
REMARK UNBOUND:                -1.340
REMARK  4 active torsions:
REMARK  status: ('A' for Active; 'I' for Inactive)
REMARK    1  A    between atoms: C_5  and  O_6 
REMARK    2  A    between atoms: C_7  and  C_8 
REMARK       I    between atoms: C_8  and  N_10 
REMARK    3  A    between atoms: N_10  and  N_11 
REMARK    4  A    between atoms: N_11  and  C_12 
ROOT
ATOM      1  C   UNL d   1      25.615 -14.267  -4.164  0.00  0.00     0.272 C 
ATOM      2  O   UNL d   1      24.403 -14.065  -4.271  0.00  0.00    -0.266 OA
ATOM      3  N   UNL d   1      26.102 -15.123  -3.167  0.00  0.00    -0.265 N 
ATOM      4  H   UNL d   1      27.045 -15.486  -3.154  0.00  0.00     0.190 HD
ENDROOT
BRANCH   3   5
ATOM      5  N   UNL d   1      25.161 -15.839  -2.417  0.00  0.00    -0.295 N 
ATOM      6  H   UNL d   1      24.189 -15.821  -2.734  0.00  0.00     0.187 HD
BRANCH   5   7
ATOM      7  C   UNL d   1      25.557 -16.615  -1.321  0.00  0.00     0.086 A 
ATOM      8  C   UNL d   1      26.889 -16.668  -0.883  0.00  0.00     0.037 A 
ATOM      9  C   UNL d   1      27.253 -17.446   0.225  0.00  0.00     0.045 A 
ATOM     10  C   UNL d   1      26.298 -18.214   0.879  0.00  0.00     0.119 A 
ATOM     11  F   UNL d   1      26.655 -18.954   1.937  0.00  0.00    -0.206 F 
ATOM     12  C   UNL d   1      24.980 -18.221   0.449  0.00  0.00     0.086 A 
ATOM     13  C   UNL d   1      24.623 -17.423  -0.639  0.00  0.00     0.147 A 
ATOM     14  F   UNL d   1      23.345 -17.449  -1.046  0.00  0.00    -0.204 F 
ENDBRANCH   5   7
ENDBRANCH   3   5
BRANCH   1  15
ATOM     15  C   UNL d   1      26.624 -13.617  -5.097  0.00  0.00     0.067 A 
ATOM     16  C   UNL d   1      26.520 -12.262  -5.480  0.00  0.00     0.081 A 
ATOM     17  C   UNL d   1      27.440 -11.682  -6.368  0.00  0.00     0.038 A 
ATOM     18  C   UNL d   1      28.505 -12.430  -6.865  0.00  0.00     0.009 A 
ATOM     19  C   UNL d   1      28.663 -13.760  -6.474  0.00  0.00    -0.061 A 
ATOM     20  C   UNL d   1      29.841 -14.563  -6.945  0.00  0.00     0.048 C 
ATOM     21  C   UNL d   1      27.717 -14.345  -5.609  0.00  0.00     0.026 A 
BRANCH  16  22
ATOM     22  O   UNL d   1      25.530 -11.458  -4.986  0.00  0.00    -0.360 OA
ATOM     23  H   UNL d   1      24.749 -11.983  -4.749  0.00  0.00     0.217 HD
ENDBRANCH  16  22
ENDBRANCH   1  15
TORSDOF 4
ENDMDL
MODEL 7
REMARK VINA RESULT:    -5.659      4.639      8.469
REMARK INTER + INTRA:          -7.816
REMARK INTER:                  -6.853
REMARK INTRA:                  -0.964
REMARK CONF_INDEPENDENT:        1.193
REMARK UNBOUND:                -0.964
REMARK  4 active torsions:
REMARK  status: ('A' for Active; 'I' for Inactive)
REMARK    1  A    between atoms: C_5  and  O_6 
REMARK    2  A    between atoms: C_7  and  C_8 
REMARK       I    between atoms: C_8  and  N_10 
REMARK    3  A    between atoms: N_10  and  N_11 
REMARK    4  A    between atoms: N_11  and  C_12 
ROOT
ATOM      1  C   UNL d   1      25.510 -14.825  -2.108  0.00  0.00     0.272 C 
ATOM      2  O   UNL d   1      26.594 -14.250  -1.984  0.00  0.00    -0.266 OA
ATOM      3  N   UNL d   1      24.563 -14.355  -3.028  0.00  0.00    -0.265 N 
ATOM      4  H   UNL d   1      23.757 -14.888  -3.320  0.00  0.00     0.190 HD
ENDROOT
BRANCH   3   5
ATOM      5  N   UNL d   1      24.958 -13.322  -3.887  0.00  0.00    -0.295 N 
ATOM      6  H   UNL d   1      24.392 -12.471  -3.895  0.00  0.00     0.187 HD
BRANCH   5   7
ATOM      7  C   UNL d   1      26.131 -13.427  -4.643  0.00  0.00     0.086 A 
ATOM      8  C   UNL d   1      26.892 -12.305  -5.005  0.00  0.00     0.037 A 
ATOM      9  C   UNL d   1      28.069 -12.442  -5.753  0.00  0.00     0.045 A 
ATOM     10  C   UNL d   1      28.474 -13.699  -6.186  0.00  0.00     0.119 A 
ATOM     11  F   UNL d   1      29.601 -13.821  -6.901  0.00  0.00    -0.206 F 
ATOM     12  C   UNL d   1      27.726 -14.826  -5.886  0.00  0.00     0.086 A 
ATOM     13  C   UNL d   1      26.570 -14.681  -5.118  0.00  0.00     0.147 A 
ATOM     14  F   UNL d   1      25.853 -15.782  -4.844  0.00  0.00    -0.204 F 
ENDBRANCH   5   7
ENDBRANCH   3   5
BRANCH   1  15
ATOM     15  C   UNL d   1      25.155 -16.056  -1.290  0.00  0.00     0.067 A 
ATOM     16  C   UNL d   1      26.110 -16.724  -0.494  0.00  0.00     0.081 A 
ATOM     17  C   UNL d   1      25.777 -17.880   0.231  0.00  0.00     0.038 A 
ATOM     18  C   UNL d   1      24.475 -18.373   0.207  0.00  0.00     0.009 A 
ATOM     19  C   UNL d   1      23.495 -17.713  -0.534  0.00  0.00    -0.061 A 
ATOM     20  C   UNL d   1      22.070 -18.190  -0.518  0.00  0.00     0.048 C 
ATOM     21  C   UNL d   1      23.844 -16.574  -1.286  0.00  0.00     0.026 A 
BRANCH  16  22
ATOM     22  O   UNL d   1      27.393 -16.261  -0.385  0.00  0.00    -0.360 OA
ATOM     23  H   UNL d   1      27.422 -15.301  -0.515  0.00  0.00     0.217 HD
ENDBRANCH  16  22
ENDBRANCH   1  15
TORSDOF 4
ENDMDL
MODEL 8
REMARK VINA RESULT:    -5.622      4.484      6.654
REMARK INTER + INTRA:          -8.120
REMARK INTER:                  -6.815
REMARK INTRA:                  -1.305
REMARK CONF_INDEPENDENT:        1.193
REMARK UNBOUND:                -1.305
REMARK  4 active torsions:
REMARK  status: ('A' for Active; 'I' for Inactive)
REMARK    1  A    between atoms: C_5  and  O_6 
REMARK    2  A    between atoms: C_7  and  C_8 
REMARK       I    between atoms: C_8  and  N_10 
REMARK    3  A    between atoms: N_10  and  N_11 
REMARK    4  A    between atoms: N_11  and  C_12 
ROOT
ATOM      1  C   UNL d   1      25.246 -14.073  -4.063  0.00  0.00     0.272 C 
ATOM      2  O   UNL d   1      24.039 -13.822  -4.018  0.00  0.00    -0.266 OA
ATOM      3  N   UNL d   1      25.796 -15.048  -3.220  0.00  0.00    -0.265 N 
ATOM      4  H   UNL d   1      26.719 -15.439  -3.347  0.00  0.00     0.190 HD
ENDROOT
BRANCH   3   5
ATOM      5  N   UNL d   1      24.907 -15.812  -2.454  0.00  0.00    -0.295 N 
ATOM      6  H   UNL d   1      23.925 -15.823  -2.738  0.00  0.00     0.187 HD
BRANCH   5   7
ATOM      7  C   UNL d   1      25.368 -16.595  -1.388  0.00  0.00     0.086 A 
ATOM      8  C   UNL d   1      26.726 -16.671  -1.048  0.00  0.00     0.037 A 
ATOM      9  C   UNL d   1      27.156 -17.454   0.033  0.00  0.00     0.045 A 
ATOM     10  C   UNL d   1      26.236 -18.204   0.756  0.00  0.00     0.119 A 
ATOM     11  F   UNL d   1      26.656 -18.950   1.787  0.00  0.00    -0.206 F 
ATOM     12  C   UNL d   1      24.892 -18.188   0.422  0.00  0.00     0.086 A 
ATOM     13  C   UNL d   1      24.471 -17.385  -0.639  0.00  0.00     0.147 A 
ATOM     14  F   UNL d   1      23.166 -17.389  -0.953  0.00  0.00    -0.204 F 
ENDBRANCH   5   7
ENDBRANCH   3   5
BRANCH   1  15
ATOM     15  C   UNL d   1      26.182 -13.356  -5.024  0.00  0.00     0.067 A 
ATOM     16  C   UNL d   1      27.281 -14.009  -5.620  0.00  0.00     0.081 A 
ATOM     17  C   UNL d   1      28.157 -13.327  -6.480  0.00  0.00     0.038 A 
ATOM     18  C   UNL d   1      27.935 -11.988  -6.792  0.00  0.00     0.009 A 
ATOM     19  C   UNL d   1      26.833 -11.323  -6.255  0.00  0.00    -0.061 A 
ATOM     20  C   UNL d   1      26.537  -9.900  -6.632  0.00  0.00     0.048 C 
ATOM     21  C   UNL d   1      25.977 -12.005  -5.367  0.00  0.00     0.026 A 
BRANCH  16  22
ATOM     22  O   UNL d   1      27.526 -15.337  -5.397  0.00  0.00    -0.360 OA
ATOM     23  H   UNL d   1      28.460 -15.544  -5.551  0.00  0.00     0.217 HD
ENDBRANCH  16  22
ENDBRANCH   1  15
TORSDOF 4
ENDMDL
MODEL 9
REMARK VINA RESULT:    -5.570      5.629      9.501
REMARK INTER + INTRA:          -8.157
REMARK INTER:                  -6.764
REMARK INTRA:                  -1.393
REMARK CONF_INDEPENDENT:        1.193
REMARK UNBOUND:                -1.393
REMARK  4 active torsions:
REMARK  status: ('A' for Active; 'I' for Inactive)
REMARK    1  A    between atoms: C_5  and  O_6 
REMARK    2  A    between atoms: C_7  and  C_8 
REMARK       I    between atoms: C_8  and  N_10 
REMARK    3  A    between atoms: N_10  and  N_11 
REMARK    4  A    between atoms: N_11  and  C_12 
ROOT
ATOM      1  C   UNL d   1      25.530 -15.491  -3.146  0.00  0.00     0.272 C 
ATOM      2  O   UNL d   1      24.672 -14.679  -3.503  0.00  0.00    -0.266 OA
ATOM      3  N   UNL d   1      26.750 -15.575  -3.831  0.00  0.00    -0.265 N 
ATOM      4  H   UNL d   1      27.559 -16.063  -3.473  0.00  0.00     0.190 HD
ENDROOT
BRANCH   3   5
ATOM      5  N   UNL d   1      27.002 -14.613  -4.817  0.00  0.00    -0.295 N 
ATOM      6  H   UNL d   1      26.327 -13.852  -4.920  0.00  0.00     0.187 HD
BRANCH   5   7
ATOM      7  C   UNL d   1      28.179 -14.654  -5.576  0.00  0.00     0.086 A 
ATOM      8  C   UNL d   1      29.136 -15.667  -5.418  0.00  0.00     0.037 A 
ATOM      9  C   UNL d   1      30.299 -15.688  -6.200  0.00  0.00     0.045 A 
ATOM     10  C   UNL d   1      30.538 -14.672  -7.117  0.00  0.00     0.119 A 
ATOM     11  F   UNL d   1      31.652 -14.699  -7.861  0.00  0.00    -0.206 F 
ATOM     12  C   UNL d   1      29.636 -13.631  -7.270  0.00  0.00     0.086 A 
ATOM     13  C   UNL d   1      28.469 -13.633  -6.505  0.00  0.00     0.147 A 
ATOM     14  F   UNL d   1      27.611 -12.613  -6.661  0.00  0.00    -0.204 F 
ENDBRANCH   5   7
ENDBRANCH   3   5
BRANCH   1  15
ATOM     15  C   UNL d   1      25.316 -16.419  -1.961  0.00  0.00     0.067 A 
ATOM     16  C   UNL d   1      26.384 -16.833  -1.137  0.00  0.00     0.081 A 
ATOM     17  C   UNL d   1      26.179 -17.717  -0.065  0.00  0.00     0.038 A 
ATOM     18  C   UNL d   1      24.898 -18.178   0.230  0.00  0.00     0.009 A 
ATOM     19  C   UNL d   1      23.813 -17.755  -0.537  0.00  0.00    -0.061 A 
ATOM     20  C   UNL d   1      22.416 -18.186  -0.194  0.00  0.00     0.048 C 
ATOM     21  C   UNL d   1      24.031 -16.894  -1.631  0.00  0.00     0.026 A 
BRANCH  16  22
ATOM     22  O   UNL d   1      27.658 -16.376  -1.340  0.00  0.00    -0.360 OA
ATOM     23  H   UNL d   1      28.239 -16.647  -0.613  0.00  0.00     0.217 HD
ENDBRANCH  16  22
ENDBRANCH   1  15
TORSDOF 4
ENDMDL
