MODEL 1
REMARK VINA RESULT:   -30.459      0.000      0.000
REMARK INTER + INTRA:         -32.585
REMARK INTER:                 -31.354
REMARK INTRA:                  -1.231
REMARK CONF_INDEPENDENT:        0.895
REMARK UNBOUND:                -1.231
REMARK  3 active torsions:
REMARK  status: ('A' for Active; 'I' for Inactive)
REMARK       I    between atoms: C_2  and  N_3 
REMARK    1  A    between atoms: C_2  and  C_12 
REMARK    2  A    between atoms: N_3  and  C_4 
REMARK    3  A    between atoms: C_10  and  O_11 
ROOT
ATOM      1  O   UNL d   1      22.776 -19.351  -1.611  0.00  0.00    -0.266 OA
ATOM      2  C   UNL d   1      22.201 -18.590  -0.819  0.00  0.00     0.274 C 
ATOM      3  N   UNL d   1      22.760 -17.424  -0.301  0.00  0.00    -0.319 N 
ATOM      4  H   UNL d   1      22.375 -17.047   0.556  0.00  0.00     0.169 HD
ENDROOT
BRANCH   3   5
ATOM      5  C   UNL d   1      23.979 -16.894  -0.811  0.00  0.00     0.070 A 
ATOM      6  C   UNL d   1      23.981 -15.768  -1.646  0.00  0.00     0.056 A 
ATOM      7  C   UNL d   1      25.199 -15.259  -2.124  0.00  0.00     0.036 A 
ATOM      8 CL   UNL d   1      25.222 -13.860  -3.135  0.00  0.00    -0.084 Cl
ATOM      9  C   UNL d   1      26.413 -15.865  -1.798  0.00  0.00     0.026 A 
ATOM     10  C   UNL d   1      26.419 -16.994  -0.985  0.00  0.00     0.040 A 
ATOM     11  C   UNL d   1      25.210 -17.509  -0.518  0.00  0.00     0.092 A 
BRANCH  11  12
ATOM     12  O   UNL d   1      25.223 -18.718   0.126  0.00  0.00    -0.358 OA
ATOM     13  H   UNL d   1      24.491 -19.261  -0.200  0.00  0.00     0.217 HD
ENDBRANCH  11  12
ENDBRANCH   3   5
BRANCH   2  14
ATOM     14  C   UNL d   1      20.891 -19.062  -0.281  0.00  0.00     0.124 A 
ATOM     15  C   UNL d   1      20.842 -19.325   1.088  0.00  0.00     0.037 A 
ATOM     16  C   UNL d   1      19.704 -19.911   1.626  0.00  0.00     0.004 A 
ATOM     17  C   UNL d   1      18.655 -20.238   0.779  0.00  0.00     0.019 A 
ATOM     18  C   UNL d   1      18.781 -19.932  -0.573  0.00  0.00     0.117 A 
ATOM     19  N   UNL d   1      19.864 -19.325  -1.131  0.00  0.00    -0.256 NA
ENDBRANCH   2  14
TORSDOF 3
ENDMDL
MODEL 2
REMARK VINA RESULT:   -30.066      1.669      2.110
REMARK INTER + INTRA:         -31.588
REMARK INTER:                 -30.961
REMARK INTRA:                  -0.626
REMARK CONF_INDEPENDENT:        0.895
REMARK UNBOUND:                -0.626
REMARK  3 active torsions:
REMARK  status: ('A' for Active; 'I' for Inactive)
REMARK       I    between atoms: C_2  and  N_3 
REMARK    1  A    between atoms: C_2  and  C_12 
REMARK    2  A    between atoms: N_3  and  C_4 
REMARK    3  A    between atoms: C_10  and  O_11 
ROOT
ATOM      1  O   UNL d   1      22.376 -19.162  -1.791  0.00  0.00    -0.266 OA
ATOM      2  C   UNL d   1      21.943 -18.612  -0.767  0.00  0.00     0.274 C 
ATOM      3  N   UNL d   1      22.644 -17.663  -0.027  0.00  0.00    -0.319 N 
ATOM      4  H   UNL d   1      22.373 -17.511   0.937  0.00  0.00     0.169 HD
ENDROOT
BRANCH   3   5
ATOM      5  C   UNL d   1      23.849 -17.083  -0.513  0.00  0.00     0.070 A 
ATOM      6  C   UNL d   1      25.099 -17.572  -0.107  0.00  0.00     0.056 A 
ATOM      7  C   UNL d   1      26.272 -16.989  -0.613  0.00  0.00     0.036 A 
ATOM      8 CL   UNL d   1      27.818 -17.591  -0.140  0.00  0.00    -0.084 Cl
ATOM      9  C   UNL d   1      26.219 -15.915  -1.503  0.00  0.00     0.026 A 
ATOM     10  C   UNL d   1      24.982 -15.412  -1.898  0.00  0.00     0.040 A 
ATOM     11  C   UNL d   1      23.816 -15.981  -1.388  0.00  0.00     0.092 A 
BRANCH  11  12
ATOM     12  O   UNL d   1      22.623 -15.360  -1.645  0.00  0.00    -0.358 OA
ATOM     13  H   UNL d   1      22.146 -15.228  -0.812  0.00  0.00     0.217 HD
ENDBRANCH  11  12
ENDBRANCH   3   5
BRANCH   2  14
ATOM     14  C   UNL d   1      20.655 -19.139  -0.229  0.00  0.00     0.124 A 
ATOM     15  C   UNL d   1      20.655 -19.530   1.110  0.00  0.00     0.037 A 
ATOM     16  C   UNL d   1      19.539 -20.170   1.631  0.00  0.00     0.004 A 
ATOM     17  C   UNL d   1      18.460 -20.419   0.795  0.00  0.00     0.019 A 
ATOM     18  C   UNL d   1      18.536 -19.986  -0.525  0.00  0.00     0.117 A 
ATOM     19  N   UNL d   1      19.597 -19.325  -1.062  0.00  0.00    -0.256 NA
ENDBRANCH   2  14
TORSDOF 3
ENDMDL
