MODEL 1
REMARK VINA RESULT:   -26.468      0.000      0.000
REMARK INTER + INTRA:         -29.104
REMARK INTER:                 -28.556
REMARK INTRA:                  -0.549
REMARK CONF_INDEPENDENT:        2.088
REMARK UNBOUND:                -0.549
REMARK  7 active torsions:
REMARK  status: ('A' for Active; 'I' for Inactive)
REMARK    1  A    between atoms: C_2  and  C_3 
REMARK       I    between atoms: C_2  and  N_12 
REMARK    2  A    between atoms: C_3  and  C_4 
REMARK    3  A    between atoms: C_4  and  O_5 
REMARK    4  A    between atoms: O_5  and  C_6 
REMARK    5  A    between atoms: N_12  and  N_13 
REMARK       I    between atoms: N_13  and  C_14 
REMARK    6  A    between atoms: C_14  and  C_16 
REMARK    7  A    between atoms: C_16  and  C_17 
ROOT
ATOM      1  N   UNL d   1      25.617 -16.321  -1.895  0.00  0.00    -0.268 N 
ATOM      2  C   UNL d   1      24.784 -17.309  -1.129  0.00  0.00     0.236 C 
ATOM      3  O   UNL d   1      25.363 -18.115  -0.396  0.00  0.00    -0.272 OA
ATOM      4  H   UNL d   1      25.227 -15.511  -2.362  0.00  0.00     0.190 HD
ENDROOT
BRANCH   1   5
ATOM      5  N   UNL d   1      27.160 -16.313  -1.883  0.00  0.00    -0.267 N 
ATOM      6  C   UNL d   1      28.050 -15.938  -0.845  0.00  0.00     0.238 C 
ATOM      7  O   UNL d   1      29.267 -15.871  -1.069  0.00  0.00    -0.272 OA
ATOM      8  H   UNL d   1      27.616 -16.499  -2.780  0.00  0.00     0.190 HD
BRANCH   6   9
ATOM      9  C   UNL d   1      27.542 -15.626   0.565  0.00  0.00     0.131 C 
BRANCH   9  10
ATOM     10  C   UNL d   1      28.096 -14.301   1.176  0.00  0.00     0.185 C 
BRANCH  10  11
ATOM     11  O   UNL d   1      27.175 -13.793   2.174  0.00  0.00    -0.351 OA
BRANCH  11  12
ATOM     12  C   UNL d   1      27.680 -13.675   3.453  0.00  0.00     0.068 A 
ATOM     13  C   UNL d   1      28.183 -14.834   4.060  0.00  0.00     0.037 A 
ATOM     14  C   UNL d   1      28.638 -14.804   5.389  0.00  0.00     0.003 A 
ATOM     15  C   UNL d   1      28.637 -13.607   6.101  0.00  0.00     0.000 A 
ATOM     16  C   UNL d   1      28.124 -12.457   5.509  0.00  0.00     0.003 A 
ATOM     17  C   UNL d   1      27.629 -12.497   4.199  0.00  0.00     0.037 A 
ENDBRANCH  11  12
ENDBRANCH  10  11
ENDBRANCH   9  10
ENDBRANCH   6   9
ENDBRANCH   1   5
BRANCH   2  18
ATOM     18  C   UNL d   1      23.013 -17.208  -1.331  0.00  0.00     0.118 C 
BRANCH  18  19
ATOM     19  C   UNL d   1      21.660 -18.052  -0.470  0.00  0.00     0.014 C 
ATOM     20  C   UNL d   1      21.216 -18.956  -1.342  0.00  0.00     0.090 C 
ATOM     21  N   UNL d   1      19.905 -18.653  -1.034  0.00  0.00    -0.288 NA
ATOM     22  C   UNL d   1      19.783 -19.292   0.163  0.00  0.00     0.002 C 
ATOM     23  H   UNL d   1      19.447 -17.758  -1.111  0.00  0.00     0.128 HD
ATOM     24  C   UNL d   1      18.621 -20.112   0.392  0.00  0.00     0.044 C 
ATOM     25  C   UNL d   1      20.969 -18.784   1.003  0.00  0.00     0.042 C 
ATOM     26  C   UNL d   1      18.410 -20.894   1.483  0.00  0.00     0.035 C 
ATOM     27 CL   UNL d   1      16.968 -21.816   1.650  0.00  0.00    -0.084 Cl
ATOM     28  C   UNL d   1      19.444 -20.825   2.361  0.00  0.00     0.021 C 
ATOM     29  C   UNL d   1      20.655 -19.973   2.012  0.00  0.00    -0.007 C 
ENDBRANCH  18  19
ENDBRANCH   2  18
TORSDOF 7
ENDMDL
MODEL 2
REMARK VINA RESULT:   -26.126      3.250      4.512
REMARK INTER + INTRA:         -29.169
REMARK INTER:                 -28.214
REMARK INTRA:                  -0.955
REMARK CONF_INDEPENDENT:        2.088
REMARK UNBOUND:                -0.955
REMARK  7 active torsions:
REMARK  status: ('A' for Active; 'I' for Inactive)
REMARK    1  A    between atoms: C_2  and  C_3 
REMARK       I    between atoms: C_2  and  N_12 
REMARK    2  A    between atoms: C_3  and  C_4 
REMARK    3  A    between atoms: C_4  and  O_5 
REMARK    4  A    between atoms: O_5  and  C_6 
REMARK    5  A    between atoms: N_12  and  N_13 
REMARK       I    between atoms: N_13  and  C_14 
REMARK    6  A    between atoms: C_14  and  C_16 
REMARK    7  A    between atoms: C_16  and  C_17 
ROOT
ATOM      1  N   UNL d   1      25.394 -17.722  -0.111  0.00  0.00    -0.268 N 
ATOM      2  C   UNL d   1      24.592 -16.921  -1.098  0.00  0.00     0.236 C 
ATOM      3  O   UNL d   1      25.055 -15.847  -1.491  0.00  0.00    -0.272 OA
ATOM      4  H   UNL d   1      25.190 -18.687   0.115  0.00  0.00     0.190 HD
ENDROOT
BRANCH   1   5
ATOM      5  N   UNL d   1      26.722 -17.235   0.505  0.00  0.00    -0.267 N 
ATOM      6  C   UNL d   1      27.974 -17.007  -0.121  0.00  0.00     0.238 C 
ATOM      7  O   UNL d   1      28.969 -16.743   0.568  0.00  0.00    -0.272 OA
ATOM      8  H   UNL d   1      26.745 -17.168   1.525  0.00  0.00     0.190 HD
BRANCH   6   9
ATOM      9  C   UNL d   1      28.126 -17.064  -1.643  0.00  0.00     0.131 C 
BRANCH   9  10
ATOM     10  C   UNL d   1      28.858 -15.838  -2.270  0.00  0.00     0.185 C 
BRANCH  10  11
ATOM     11  O   UNL d   1      28.211 -14.609  -1.854  0.00  0.00    -0.351 OA
BRANCH  11  12
ATOM     12  C   UNL d   1      27.177 -14.173  -2.656  0.00  0.00     0.068 A 
ATOM     13  C   UNL d   1      26.807 -14.986  -3.736  0.00  0.00     0.037 A 
ATOM     14  C   UNL d   1      25.817 -14.568  -4.640  0.00  0.00     0.003 A 
ATOM     15  C   UNL d   1      25.159 -13.356  -4.444  0.00  0.00     0.000 A 
ATOM     16  C   UNL d   1      25.533 -12.536  -3.382  0.00  0.00     0.003 A 
ATOM     17  C   UNL d   1      26.551 -12.934  -2.507  0.00  0.00     0.037 A 
ENDBRANCH  11  12
ENDBRANCH  10  11
ENDBRANCH   9  10
ENDBRANCH   6   9
ENDBRANCH   1   5
BRANCH   2  18
ATOM     18  C   UNL d   1      23.039 -17.618  -1.639  0.00  0.00     0.118 C 
BRANCH  18  19
ATOM     19  C   UNL d   1      21.670 -18.355  -0.708  0.00  0.00     0.014 C 
ATOM     20  C   UNL d   1      21.210 -19.325  -1.496  0.00  0.00     0.090 C 
ATOM     21  N   UNL d   1      19.905 -18.972  -1.221  0.00  0.00    -0.288 NA
ATOM     22  C   UNL d   1      19.770 -19.497   0.028  0.00  0.00     0.002 C 
ATOM     23  H   UNL d   1      19.464 -18.078  -1.379  0.00  0.00     0.128 HD
ATOM     24  C   UNL d   1      18.592 -20.271   0.328  0.00  0.00     0.044 C 
ATOM     25  C   UNL d   1      20.964 -18.937   0.823  0.00  0.00     0.042 C 
ATOM     26  C   UNL d   1      18.365 -20.947   1.484  0.00  0.00     0.035 C 
ATOM     27 CL   UNL d   1      16.905 -21.823   1.730  0.00  0.00    -0.084 Cl
ATOM     28  C   UNL d   1      19.399 -20.818   2.355  0.00  0.00     0.021 C 
ATOM     29  C   UNL d   1      20.626 -20.024   1.934  0.00  0.00    -0.007 C 
ENDBRANCH  18  19
ENDBRANCH   2  18
TORSDOF 7
ENDMDL
