MODEL 1
REMARK VINA RESULT:    -8.441      0.000      0.000
REMARK INTER + INTRA:          -9.806
REMARK INTER:                  -9.336
REMARK INTRA:                  -0.470
REMARK CONF_INDEPENDENT:        0.895
REMARK UNBOUND:                -0.470
REMARK  3 active torsions:
REMARK  status: ('A' for Active; 'I' for Inactive)
REMARK    1  A    between atoms: C_8  and  N_9 
REMARK       I    between atoms: N_9  and  C_10 
REMARK    2  A    between atoms: C_10  and  C_12 
REMARK    3  A    between atoms: C_15  and  O_16 
ROOT
ATOM      1  N   UNL d   1      22.504 -17.611  -0.271  0.00  0.00    -0.322 N 
ATOM      2  C   UNL d   1      21.758 -18.629  -0.849  0.00  0.00     0.256 C 
ATOM      3  O   UNL d   1      21.896 -19.222  -1.916  0.00  0.00    -0.267 OA
ATOM      4  H   UNL d   1      22.155 -17.239   0.607  0.00  0.00     0.169 HD
ENDROOT
BRANCH   2   5
ATOM      5  C   UNL d   1      20.567 -19.159  -0.199  0.00  0.00     0.034 A 
ATOM      6  C   UNL d   1      19.528 -19.694  -0.950  0.00  0.00     0.020 A 
ATOM      7  C   UNL d   1      18.553 -20.446  -0.293  0.00  0.00     0.039 A 
ATOM      8  C   UNL d   1      18.640 -20.666   1.090  0.00  0.00     0.087 A 
ATOM      9  C   UNL d   1      19.709 -20.163   1.831  0.00  0.00     0.068 A 
ATOM     10 CL   UNL d   1      19.874 -20.450   3.523  0.00  0.00    -0.081 Cl
ATOM     11  C   UNL d   1      20.679 -19.420   1.183  0.00  0.00     0.043 A 
BRANCH   8  12
ATOM     12  O   UNL d   1      17.675 -21.391   1.730  0.00  0.00    -0.359 OA
ATOM     13  H   UNL d   1      17.379 -22.115   1.157  0.00  0.00     0.217 HD
ENDBRANCH   8  12
ENDBRANCH   2   5
BRANCH   1  14
ATOM     14  C   UNL d   1      23.747 -17.032  -0.733  0.00  0.00     0.042 A 
ATOM     15  C   UNL d   1      23.653 -15.951  -1.644  0.00  0.00     0.030 A 
ATOM     16  C   UNL d   1      24.799 -15.310  -2.148  0.00  0.00     0.004 A 
ATOM     17  C   UNL d   1      26.064 -15.725  -1.751  0.00  0.00     0.024 A 
ATOM     18  C   UNL d   1      26.188 -16.776  -0.856  0.00  0.00     0.042 A 
ATOM     19  C   UNL d   1      25.053 -17.439  -0.344  0.00  0.00    -0.013 A 
ATOM     20 CL   UNL d   1      27.806 -17.214  -0.405  0.00  0.00    -0.084 Cl
ATOM     21  C   UNL d   1      25.295 -18.565   0.605  0.00  0.00     0.052 C 
ENDBRANCH   1  14
TORSDOF 3
ENDMDL
MODEL 2
REMARK VINA RESULT:    -7.240      2.299      7.244
REMARK INTER + INTRA:          -8.517
REMARK INTER:                  -8.135
REMARK INTRA:                  -0.383
REMARK CONF_INDEPENDENT:        0.895
REMARK UNBOUND:                -0.383
REMARK  3 active torsions:
REMARK  status: ('A' for Active; 'I' for Inactive)
REMARK    1  A    between atoms: C_8  and  N_9 
REMARK       I    between atoms: N_9  and  C_10 
REMARK    2  A    between atoms: C_10  and  C_12 
REMARK    3  A    between atoms: C_15  and  O_16 
ROOT
ATOM      1  N   UNL d   1      22.667 -18.524   0.375  0.00  0.00    -0.322 N 
ATOM      2  C   UNL d   1      23.585 -18.002  -0.527  0.00  0.00     0.256 C 
ATOM      3  O   UNL d   1      23.558 -17.935  -1.754  0.00  0.00    -0.267 OA
ATOM      4  H   UNL d   1      22.942 -18.514   1.353  0.00  0.00     0.169 HD
ENDROOT
BRANCH   2   5
ATOM      5  C   UNL d   1      24.848 -17.432  -0.081  0.00  0.00     0.034 A 
ATOM      6  C   UNL d   1      25.759 -18.201   0.633  0.00  0.00     0.020 A 
ATOM      7  C   UNL d   1      27.060 -17.718   0.785  0.00  0.00     0.039 A 
ATOM      8  C   UNL d   1      27.433 -16.494   0.209  0.00  0.00     0.087 A 
ATOM      9  C   UNL d   1      26.526 -15.749  -0.543  0.00  0.00     0.068 A 
ATOM     10 CL   UNL d   1      26.961 -14.263  -1.303  0.00  0.00    -0.081 Cl
ATOM     11  C   UNL d   1      25.237 -16.225  -0.699  0.00  0.00     0.043 A 
BRANCH   8  12
ATOM     12  O   UNL d   1      28.704 -16.021   0.373  0.00  0.00    -0.359 OA
ATOM     13  H   UNL d   1      28.922 -15.994   1.317  0.00  0.00     0.217 HD
ENDBRANCH   8  12
ENDBRANCH   2   5
BRANCH   1  14
ATOM     14  C   UNL d   1      21.343 -19.044   0.114  0.00  0.00     0.042 A 
ATOM     15  C   UNL d   1      20.968 -19.194  -1.244  0.00  0.00     0.030 A 
ATOM     16  C   UNL d   1      19.707 -19.700  -1.608  0.00  0.00     0.004 A 
ATOM     17  C   UNL d   1      18.795 -20.076  -0.631  0.00  0.00     0.024 A 
ATOM     18  C   UNL d   1      19.136 -19.948   0.707  0.00  0.00     0.042 A 
ATOM     19  C   UNL d   1      20.391 -19.435   1.096  0.00  0.00    -0.013 A 
ATOM     20 CL   UNL d   1      17.940 -20.458   1.857  0.00  0.00    -0.084 Cl
ATOM     21  C   UNL d   1      20.655 -19.327   2.560  0.00  0.00     0.052 C 
ENDBRANCH   1  14
TORSDOF 3
ENDMDL
MODEL 3
REMARK VINA RESULT:    -7.164      1.697      2.456
REMARK INTER + INTRA:          -8.471
REMARK INTER:                  -8.059
REMARK INTRA:                  -0.412
REMARK CONF_INDEPENDENT:        0.895
REMARK UNBOUND:                -0.412
REMARK  3 active torsions:
REMARK  status: ('A' for Active; 'I' for Inactive)
REMARK    1  A    between atoms: C_8  and  N_9 
REMARK       I    between atoms: N_9  and  C_10 
REMARK    2  A    between atoms: C_10  and  C_12 
REMARK    3  A    between atoms: C_15  and  O_16 
ROOT
ATOM      1  N   UNL d   1      23.725 -17.470  -1.135  0.00  0.00    -0.322 N 
ATOM      2  C   UNL d   1      23.127 -18.182  -0.103  0.00  0.00     0.256 C 
ATOM      3  O   UNL d   1      23.576 -18.567   0.974  0.00  0.00    -0.267 OA
ATOM      4  H   UNL d   1      23.157 -17.315  -1.962  0.00  0.00     0.169 HD
ENDROOT
BRANCH   2   5
ATOM      5  C   UNL d   1      21.746 -18.635  -0.195  0.00  0.00     0.034 A 
ATOM      6  C   UNL d   1      21.184 -18.951  -1.425  0.00  0.00     0.020 A 
ATOM      7  C   UNL d   1      19.977 -19.650  -1.444  0.00  0.00     0.039 A 
ATOM      8  C   UNL d   1      19.364 -20.037  -0.243  0.00  0.00     0.087 A 
ATOM      9  C   UNL d   1      19.956 -19.756   0.988  0.00  0.00     0.068 A 
ATOM     10 CL   UNL d   1      19.255 -20.255   2.483  0.00  0.00    -0.081 Cl
ATOM     11  C   UNL d   1      21.154 -19.066   1.011  0.00  0.00     0.043 A 
BRANCH   8  12
ATOM     12  O   UNL d   1      18.175 -20.710  -0.268  0.00  0.00    -0.359 OA
ATOM     13  H   UNL d   1      17.577 -20.290  -0.905  0.00  0.00     0.217 HD
ENDBRANCH   8  12
ENDBRANCH   2   5
BRANCH   1  14
ATOM     14  C   UNL d   1      25.044 -16.878  -1.173  0.00  0.00     0.042 A 
ATOM     15  C   UNL d   1      26.078 -17.567  -0.494  0.00  0.00     0.030 A 
ATOM     16  C   UNL d   1      27.399 -17.082  -0.477  0.00  0.00     0.004 A 
ATOM     17  C   UNL d   1      27.721 -15.907  -1.142  0.00  0.00     0.024 A 
ATOM     18  C   UNL d   1      26.732 -15.213  -1.822  0.00  0.00     0.042 A 
ATOM     19  C   UNL d   1      25.399 -15.675  -1.845  0.00  0.00    -0.013 A 
ATOM     20 CL   UNL d   1      27.231 -13.764  -2.637  0.00  0.00    -0.084 Cl
ATOM     21  C   UNL d   1      24.408 -14.850  -2.596  0.00  0.00     0.052 C 
ENDBRANCH   1  14
TORSDOF 3
ENDMDL
MODEL 4
REMARK VINA RESULT:    -6.836     10.517     12.971
REMARK INTER + INTRA:          -8.181
REMARK INTER:                  -7.731
REMARK INTRA:                  -0.450
REMARK CONF_INDEPENDENT:        0.895
REMARK UNBOUND:                -0.450
REMARK  3 active torsions:
REMARK  status: ('A' for Active; 'I' for Inactive)
REMARK    1  A    between atoms: C_8  and  N_9 
REMARK       I    between atoms: N_9  and  C_10 
REMARK    2  A    between atoms: C_10  and  C_12 
REMARK    3  A    between atoms: C_15  and  O_16 
ROOT
ATOM      1  N   UNL d   1      33.126 -22.002   5.874  0.00  0.00    -0.322 N 
ATOM      2  C   UNL d   1      31.821 -21.544   5.747  0.00  0.00     0.256 C 
ATOM      3  O   UNL d   1      31.114 -20.905   6.522  0.00  0.00    -0.267 OA
ATOM      4  H   UNL d   1      33.481 -22.565   5.108  0.00  0.00     0.169 HD
ENDROOT
BRANCH   2   5
ATOM      5  C   UNL d   1      31.032 -21.823   4.555  0.00  0.00     0.034 A 
ATOM      6  C   UNL d   1      29.654 -21.977   4.637  0.00  0.00     0.020 A 
ATOM      7  C   UNL d   1      28.912 -21.950   3.456  0.00  0.00     0.039 A 
ATOM      8  C   UNL d   1      29.550 -21.751   2.222  0.00  0.00     0.087 A 
ATOM      9  C   UNL d   1      30.928 -21.552   2.151  0.00  0.00     0.068 A 
ATOM     10 CL   UNL d   1      31.741 -21.259   0.659  0.00  0.00    -0.081 Cl
ATOM     11  C   UNL d   1      31.667 -21.575   3.320  0.00  0.00     0.043 A 
BRANCH   8  12
ATOM     12  O   UNL d   1      28.819 -21.739   1.068  0.00  0.00    -0.359 OA
ATOM     13  H   UNL d   1      28.877 -20.864   0.655  0.00  0.00     0.217 HD
ENDBRANCH   8  12
ENDBRANCH   2   5
BRANCH   1  14
ATOM     14  C   UNL d   1      34.069 -21.748   6.941  0.00  0.00     0.042 A 
ATOM     15  C   UNL d   1      34.530 -20.417   7.088  0.00  0.00     0.030 A 
ATOM     16  C   UNL d   1      35.441 -20.060   8.097  0.00  0.00     0.004 A 
ATOM     17  C   UNL d   1      35.909 -21.016   8.988  0.00  0.00     0.024 A 
ATOM     18  C   UNL d   1      35.472 -22.327   8.875  0.00  0.00     0.042 A 
ATOM     19  C   UNL d   1      34.564 -22.710   7.864  0.00  0.00    -0.013 A 
ATOM     20 CL   UNL d   1      36.096 -23.450  10.041  0.00  0.00    -0.084 Cl
ATOM     21  C   UNL d   1      34.165 -24.147   7.821  0.00  0.00     0.052 C 
ENDBRANCH   1  14
TORSDOF 3
ENDMDL
MODEL 5
REMARK VINA RESULT:    -6.384      2.337      7.336
REMARK INTER + INTRA:          -7.721
REMARK INTER:                  -7.279
REMARK INTRA:                  -0.442
REMARK CONF_INDEPENDENT:        0.895
REMARK UNBOUND:                -0.442
REMARK  3 active torsions:
REMARK  status: ('A' for Active; 'I' for Inactive)
REMARK    1  A    between atoms: C_8  and  N_9 
REMARK       I    between atoms: N_9  and  C_10 
REMARK    2  A    between atoms: C_10  and  C_12 
REMARK    3  A    between atoms: C_15  and  O_16 
ROOT
ATOM      1  N   UNL d   1      22.164 -18.666   0.600  0.00  0.00    -0.322 N 
ATOM      2  C   UNL d   1      22.356 -17.556  -0.213  0.00  0.00     0.256 C 
ATOM      3  O   UNL d   1      21.563 -16.912  -0.895  0.00  0.00    -0.267 OA
ATOM      4  H   UNL d   1      22.997 -19.061   1.026  0.00  0.00     0.169 HD
ENDROOT
BRANCH   2   5
ATOM      5  C   UNL d   1      23.677 -16.973  -0.400  0.00  0.00     0.034 A 
ATOM      6  C   UNL d   1      24.798 -17.558   0.174  0.00  0.00     0.020 A 
ATOM      7  C   UNL d   1      26.059 -17.147  -0.263  0.00  0.00     0.039 A 
ATOM      8  C   UNL d   1      26.178 -16.179  -1.272  0.00  0.00     0.087 A 
ATOM      9  C   UNL d   1      25.048 -15.628  -1.874  0.00  0.00     0.068 A 
ATOM     10 CL   UNL d   1      25.156 -14.470  -3.148  0.00  0.00    -0.081 Cl
ATOM     11  C   UNL d   1      23.797 -16.034  -1.447  0.00  0.00     0.043 A 
BRANCH   8  12
ATOM     12  O   UNL d   1      27.415 -15.772  -1.686  0.00  0.00    -0.359 OA
ATOM     13  H   UNL d   1      28.055 -16.487  -1.550  0.00  0.00     0.217 HD
ENDBRANCH   8  12
ENDBRANCH   2   5
BRANCH   1  14
ATOM     14  C   UNL d   1      20.922 -19.314   0.960  0.00  0.00     0.042 A 
ATOM     15  C   UNL d   1      20.655 -19.468   2.342  0.00  0.00     0.030 A 
ATOM     16  C   UNL d   1      19.473 -20.077   2.801  0.00  0.00     0.004 A 
ATOM     17  C   UNL d   1      18.527 -20.538   1.896  0.00  0.00     0.024 A 
ATOM     18  C   UNL d   1      18.756 -20.395   0.536  0.00  0.00     0.042 A 
ATOM     19  C   UNL d   1      19.938 -19.796   0.053  0.00  0.00    -0.013 A 
ATOM     20 CL   UNL d   1      17.511 -20.985  -0.520  0.00  0.00    -0.084 Cl
ATOM     21  C   UNL d   1      20.094 -19.700  -1.428  0.00  0.00     0.052 C 
ENDBRANCH   1  14
TORSDOF 3
ENDMDL
MODEL 6
REMARK VINA RESULT:    -6.367      4.257      6.524
REMARK INTER + INTRA:          -7.687
REMARK INTER:                  -7.262
REMARK INTRA:                  -0.426
REMARK CONF_INDEPENDENT:        0.895
REMARK UNBOUND:                -0.426
REMARK  3 active torsions:
REMARK  status: ('A' for Active; 'I' for Inactive)
REMARK    1  A    between atoms: C_8  and  N_9 
REMARK       I    between atoms: N_9  and  C_10 
REMARK    2  A    between atoms: C_10  and  C_12 
REMARK    3  A    between atoms: C_15  and  O_16 
ROOT
ATOM      1  N   UNL d   1      27.312 -15.559  -3.571  0.00  0.00    -0.322 N 
ATOM      2  C   UNL d   1      25.968 -15.413  -3.251  0.00  0.00     0.256 C 
ATOM      3  O   UNL d   1      25.066 -14.809  -3.826  0.00  0.00    -0.267 OA
ATOM      4  H   UNL d   1      27.881 -16.066  -2.900  0.00  0.00     0.169 HD
ENDROOT
BRANCH   2   5
ATOM      5  C   UNL d   1      25.409 -15.998  -2.041  0.00  0.00     0.034 A 
ATOM      6  C   UNL d   1      24.035 -16.044  -1.846  0.00  0.00     0.020 A 
ATOM      7  C   UNL d   1      23.535 -16.862  -0.831  0.00  0.00     0.039 A 
ATOM      8  C   UNL d   1      24.408 -17.630  -0.046  0.00  0.00     0.087 A 
ATOM      9  C   UNL d   1      25.783 -17.613  -0.276  0.00  0.00     0.068 A 
ATOM     10 CL   UNL d   1      26.883 -18.577   0.638  0.00  0.00    -0.081 Cl
ATOM     11  C   UNL d   1      26.282 -16.806  -1.283  0.00  0.00     0.043 A 
BRANCH   8  12
ATOM     12  O   UNL d   1      23.914 -18.418   0.955  0.00  0.00    -0.359 OA
ATOM     13  H   UNL d   1      23.649 -19.276   0.591  0.00  0.00     0.217 HD
ENDBRANCH   8  12
ENDBRANCH   2   5
BRANCH   1  14
ATOM     14  C   UNL d   1      28.007 -15.120  -4.761  0.00  0.00     0.042 A 
ATOM     15  C   UNL d   1      27.515 -13.957  -5.402  0.00  0.00     0.030 A 
ATOM     16  C   UNL d   1      28.122 -13.441  -6.560  0.00  0.00     0.004 A 
ATOM     17  C   UNL d   1      29.238 -14.064  -7.102  0.00  0.00     0.024 A 
ATOM     18  C   UNL d   1      29.748 -15.201  -6.494  0.00  0.00     0.042 A 
ATOM     19  C   UNL d   1      29.150 -15.742  -5.337  0.00  0.00    -0.013 A 
ATOM     20 CL   UNL d   1      31.154 -15.902  -7.232  0.00  0.00    -0.084 Cl
ATOM     21  C   UNL d   1      29.769 -16.974  -4.766  0.00  0.00     0.052 C 
ENDBRANCH   1  14
TORSDOF 3
ENDMDL
MODEL 7
REMARK VINA RESULT:    -6.366      4.754      7.175
REMARK INTER + INTRA:          -7.684
REMARK INTER:                  -7.261
REMARK INTRA:                  -0.422
REMARK CONF_INDEPENDENT:        0.895
REMARK UNBOUND:                -0.422
REMARK  3 active torsions:
REMARK  status: ('A' for Active; 'I' for Inactive)
REMARK    1  A    between atoms: C_8  and  N_9 
REMARK       I    between atoms: N_9  and  C_10 
REMARK    2  A    between atoms: C_10  and  C_12 
REMARK    3  A    between atoms: C_15  and  O_16 
ROOT
ATOM      1  N   UNL d   1      26.987 -14.511  -3.931  0.00  0.00    -0.322 N 
ATOM      2  C   UNL d   1      25.863 -15.077  -3.344  0.00  0.00     0.256 C 
ATOM      3  O   UNL d   1      24.669 -14.824  -3.484  0.00  0.00    -0.267 OA
ATOM      4  H   UNL d   1      27.886 -14.857  -3.610  0.00  0.00     0.169 HD
ENDROOT
BRANCH   2   5
ATOM      5  C   UNL d   1      25.977 -16.140  -2.357  0.00  0.00     0.034 A 
ATOM      6  C   UNL d   1      27.153 -16.318  -1.639  0.00  0.00     0.020 A 
ATOM      7  C   UNL d   1      27.126 -17.143  -0.514  0.00  0.00     0.039 A 
ATOM      8  C   UNL d   1      25.930 -17.758  -0.114  0.00  0.00     0.087 A 
ATOM      9  C   UNL d   1      24.743 -17.540  -0.814  0.00  0.00     0.068 A 
ATOM     10 CL   UNL d   1      23.245 -18.242  -0.327  0.00  0.00    -0.081 Cl
ATOM     11  C   UNL d   1      24.765 -16.721  -1.928  0.00  0.00     0.043 A 
BRANCH   8  12
ATOM     12  O   UNL d   1      25.913 -18.575   0.980  0.00  0.00    -0.359 OA
ATOM     13  H   UNL d   1      26.819 -18.715   1.295  0.00  0.00     0.217 HD
ENDBRANCH   8  12
ENDBRANCH   2   5
BRANCH   1  14
ATOM     14  C   UNL d   1      27.051 -13.516  -4.980  0.00  0.00     0.042 A 
ATOM     15  C   UNL d   1      26.241 -12.365  -4.824  0.00  0.00     0.030 A 
ATOM     16  C   UNL d   1      26.235 -11.333  -5.780  0.00  0.00     0.004 A 
ATOM     17  C   UNL d   1      27.040 -11.420  -6.908  0.00  0.00     0.024 A 
ATOM     18  C   UNL d   1      27.851 -12.531  -7.085  0.00  0.00     0.042 A 
ATOM     19  C   UNL d   1      27.867 -13.582  -6.144  0.00  0.00    -0.013 A 
ATOM     20 CL   UNL d   1      28.835 -12.544  -8.514  0.00  0.00    -0.084 Cl
ATOM     21  C   UNL d   1      28.764 -14.738  -6.433  0.00  0.00     0.052 C 
ENDBRANCH   1  14
TORSDOF 3
ENDMDL
MODEL 8
REMARK VINA RESULT:    -6.345      4.751      7.205
REMARK INTER + INTRA:          -7.669
REMARK INTER:                  -7.240
REMARK INTRA:                  -0.429
REMARK CONF_INDEPENDENT:        0.895
REMARK UNBOUND:                -0.429
REMARK  3 active torsions:
REMARK  status: ('A' for Active; 'I' for Inactive)
REMARK    1  A    between atoms: C_8  and  N_9 
REMARK       I    between atoms: N_9  and  C_10 
REMARK    2  A    between atoms: C_10  and  C_12 
REMARK    3  A    between atoms: C_15  and  O_16 
ROOT
ATOM      1  N   UNL d   1      27.059 -14.535  -3.922  0.00  0.00    -0.322 N 
ATOM      2  C   UNL d   1      25.920 -15.089  -3.353  0.00  0.00     0.256 C 
ATOM      3  O   UNL d   1      24.731 -14.825  -3.515  0.00  0.00    -0.267 OA
ATOM      4  H   UNL d   1      27.949 -14.890  -3.583  0.00  0.00     0.169 HD
ENDROOT
BRANCH   2   5
ATOM      5  C   UNL d   1      26.007 -16.151  -2.361  0.00  0.00     0.034 A 
ATOM      6  C   UNL d   1      27.168 -16.337  -1.621  0.00  0.00     0.020 A 
ATOM      7  C   UNL d   1      27.113 -17.159  -0.495  0.00  0.00     0.039 A 
ATOM      8  C   UNL d   1      25.904 -17.761  -0.115  0.00  0.00     0.087 A 
ATOM      9  C   UNL d   1      24.732 -17.534  -0.836  0.00  0.00     0.068 A 
ATOM     10 CL   UNL d   1      23.219 -18.221  -0.374  0.00  0.00    -0.081 Cl
ATOM     11  C   UNL d   1      24.781 -16.718  -1.952  0.00  0.00     0.043 A 
BRANCH   8  12
ATOM     12  O   UNL d   1      25.860 -18.575   0.981  0.00  0.00    -0.359 OA
ATOM     13  H   UNL d   1      26.761 -18.767   1.280  0.00  0.00     0.217 HD
ENDBRANCH   8  12
ENDBRANCH   2   5
BRANCH   1  14
ATOM     14  C   UNL d   1      27.152 -13.545  -4.971  0.00  0.00     0.042 A 
ATOM     15  C   UNL d   1      28.002 -13.843  -6.064  0.00  0.00     0.030 A 
ATOM     16  C   UNL d   1      28.158 -12.953  -7.141  0.00  0.00     0.004 A 
ATOM     17  C   UNL d   1      27.464 -11.750  -7.161  0.00  0.00     0.024 A 
ATOM     18  C   UNL d   1      26.619 -11.432  -6.109  0.00  0.00     0.042 A 
ATOM     19  C   UNL d   1      26.454 -12.305  -5.013  0.00  0.00    -0.013 A 
ATOM     20 CL   UNL d   1      25.782  -9.916  -6.227  0.00  0.00    -0.084 Cl
ATOM     21  C   UNL d   1      25.530 -11.865  -3.928  0.00  0.00     0.052 C 
ENDBRANCH   1  14
TORSDOF 3
ENDMDL
MODEL 9
REMARK VINA RESULT:    -6.331      5.543      9.978
REMARK INTER + INTRA:          -7.654
REMARK INTER:                  -7.225
REMARK INTRA:                  -0.428
REMARK CONF_INDEPENDENT:        0.895
REMARK UNBOUND:                -0.428
REMARK  3 active torsions:
REMARK  status: ('A' for Active; 'I' for Inactive)
REMARK    1  A    between atoms: C_8  and  N_9 
REMARK       I    between atoms: N_9  and  C_10 
REMARK    2  A    between atoms: C_10  and  C_12 
REMARK    3  A    between atoms: C_15  and  O_16 
ROOT
ATOM      1  N   UNL d   1      27.462 -15.320  -3.358  0.00  0.00    -0.322 N 
ATOM      2  C   UNL d   1      27.270 -15.184  -4.727  0.00  0.00     0.256 C 
ATOM      3  O   UNL d   1      26.362 -15.578  -5.454  0.00  0.00    -0.267 OA
ATOM      4  H   UNL d   1      28.332 -14.951  -2.987  0.00  0.00     0.169 HD
ENDROOT
BRANCH   2   5
ATOM      5  C   UNL d   1      28.249 -14.509  -5.566  0.00  0.00     0.034 A 
ATOM      6  C   UNL d   1      29.447 -15.129  -5.898  0.00  0.00     0.020 A 
ATOM      7  C   UNL d   1      30.216 -14.581  -6.926  0.00  0.00     0.039 A 
ATOM      8  C   UNL d   1      29.771 -13.442  -7.614  0.00  0.00     0.087 A 
ATOM      9  C   UNL d   1      28.547 -12.850  -7.305  0.00  0.00     0.068 A 
ATOM     10 CL   UNL d   1      27.946 -11.477  -8.158  0.00  0.00    -0.081 Cl
ATOM     11  C   UNL d   1      27.780 -13.392  -6.289  0.00  0.00     0.043 A 
BRANCH   8  12
ATOM     12  O   UNL d   1      30.535 -12.903  -8.610  0.00  0.00    -0.359 OA
ATOM     13  H   UNL d   1      30.392 -13.395  -9.432  0.00  0.00     0.217 HD
ENDBRANCH   8  12
ENDBRANCH   2   5
BRANCH   1  14
ATOM     14  C   UNL d   1      26.562 -15.881  -2.374  0.00  0.00     0.042 A 
ATOM     15  C   UNL d   1      25.181 -15.612  -2.538  0.00  0.00     0.030 A 
ATOM     16  C   UNL d   1      24.220 -16.116  -1.644  0.00  0.00     0.004 A 
ATOM     17  C   UNL d   1      24.610 -16.906  -0.570  0.00  0.00     0.024 A 
ATOM     18  C   UNL d   1      25.954 -17.193  -0.386  0.00  0.00     0.042 A 
ATOM     19  C   UNL d   1      26.936 -16.690  -1.266  0.00  0.00    -0.013 A 
ATOM     20 CL   UNL d   1      26.347 -18.200   0.972  0.00  0.00    -0.084 Cl
ATOM     21  C   UNL d   1      28.355 -17.047  -0.973  0.00  0.00     0.052 C 
ENDBRANCH   1  14
TORSDOF 3
ENDMDL
