MODEL 1
REMARK VINA RESULT:   -29.755      0.000      0.000
REMARK INTER + INTRA:         -31.427
REMARK INTER:                 -30.948
REMARK INTRA:                  -0.479
REMARK CONF_INDEPENDENT:        1.193
REMARK UNBOUND:                -0.479
REMARK  4 active torsions:
REMARK  status: ('A' for Active; 'I' for Inactive)
REMARK    1  A    between atoms: C_2  and  C_3 
REMARK    2  A    between atoms: C_3  and  N_4 
REMARK       I    between atoms: N_4  and  C_5 
REMARK       I    between atoms: C_5  and  N_7 
REMARK    3  A    between atoms: N_7  and  N_8 
REMARK    4  A    between atoms: N_8  and  C_9 
ROOT
ATOM      1  C   UNL d   1      24.396 -16.684  -1.159  0.00  0.00     0.049 A 
ATOM      2  C   UNL d   1      25.190 -17.683  -0.586  0.00  0.00     0.031 A 
ATOM      3  C   UNL d   1      24.635 -18.896  -0.142  0.00  0.00     0.004 A 
ATOM      4  C   UNL d   1      23.270 -19.141  -0.275  0.00  0.00     0.023 A 
ATOM      5  C   UNL d   1      22.447 -18.155  -0.818  0.00  0.00     0.046 A 
ATOM      6  C   UNL d   1      21.026 -18.379  -0.880  0.00  0.00     0.099 C 
ATOM      7  N   UNL d   1      19.886 -18.575  -0.895  0.00  0.00    -0.191 NA
ATOM      8  C   UNL d   1      23.012 -16.943  -1.265  0.00  0.00     0.053 A 
ENDROOT
BRANCH   1   9
ATOM      9  N   UNL d   1      24.917 -15.474  -1.651  0.00  0.00    -0.297 N 
ATOM     10  H   UNL d   1      24.419 -14.595  -1.507  0.00  0.00     0.187 HD
BRANCH   9  11
ATOM     11  N   UNL d   1      26.161 -15.402  -2.326  0.00  0.00    -0.251 N 
ATOM     12  C   UNL d   1      26.138 -15.091  -3.692  0.00  0.00     0.334 C 
ATOM     13  N   UNL d   1      27.364 -15.189  -4.329  0.00  0.00    -0.341 N 
ATOM     14  O   UNL d   1      25.119 -14.727  -4.275  0.00  0.00    -0.246 OA
ATOM     15  H   UNL d   1      28.164 -15.507  -3.805  0.00  0.00     0.164 HD
ATOM     16  H   UNL d   1      26.947 -15.855  -1.878  0.00  0.00     0.191 HD
BRANCH  13  17
ATOM     17  C   UNL d   1      27.559 -14.808  -5.745  0.00  0.00     0.133 C 
BRANCH  17  18
ATOM     18  C   UNL d   1      28.991 -14.302  -6.082  0.00  0.00    -0.028 C 
ATOM     19  C   UNL d   1      29.546 -13.557  -4.856  0.00  0.00     0.016 C 
ATOM     20  C   UNL d   1      29.058 -13.367  -7.315  0.00  0.00     0.011 C 
ATOM     21  C   UNL d   1      30.535 -13.371  -7.726  0.00  0.00     0.001 C 
ATOM     22  C   UNL d   1      31.089 -14.718  -7.260  0.00  0.00     0.001 C 
ATOM     23  C   UNL d   1      29.946 -15.423  -6.521  0.00  0.00     0.011 C 
ENDBRANCH  17  18
ENDBRANCH  13  17
ENDBRANCH   9  11
ENDBRANCH   1   9
TORSDOF 4
ENDMDL
MODEL 2
REMARK VINA RESULT:   -29.650      1.405      1.710
REMARK INTER + INTRA:         -31.570
REMARK INTER:                 -30.843
REMARK INTRA:                  -0.727
REMARK CONF_INDEPENDENT:        1.193
REMARK UNBOUND:                -0.727
REMARK  4 active torsions:
REMARK  status: ('A' for Active; 'I' for Inactive)
REMARK    1  A    between atoms: C_2  and  C_3 
REMARK    2  A    between atoms: C_3  and  N_4 
REMARK       I    between atoms: N_4  and  C_5 
REMARK       I    between atoms: C_5  and  N_7 
REMARK    3  A    between atoms: N_7  and  N_8 
REMARK    4  A    between atoms: N_8  and  C_9 
ROOT
ATOM      1  C   UNL d   1      24.340 -16.513  -1.065  0.00  0.00     0.049 A 
ATOM      2  C   UNL d   1      25.170 -17.506  -0.533  0.00  0.00     0.031 A 
ATOM      3  C   UNL d   1      24.659 -18.758  -0.145  0.00  0.00     0.004 A 
ATOM      4  C   UNL d   1      23.304 -19.046  -0.291  0.00  0.00     0.023 A 
ATOM      5  C   UNL d   1      22.447 -18.067  -0.793  0.00  0.00     0.046 A 
ATOM      6  C   UNL d   1      21.035 -18.340  -0.869  0.00  0.00     0.099 C 
ATOM      7  N   UNL d   1      19.903 -18.578  -0.895  0.00  0.00    -0.191 NA
ATOM      8  C   UNL d   1      22.967 -16.817  -1.186  0.00  0.00     0.053 A 
ENDROOT
BRANCH   1   9
ATOM      9  N   UNL d   1      24.818 -15.265  -1.502  0.00  0.00    -0.297 N 
ATOM     10  H   UNL d   1      25.385 -14.680  -0.888  0.00  0.00     0.187 HD
BRANCH   9  11
ATOM     11  N   UNL d   1      24.578 -14.776  -2.810  0.00  0.00    -0.251 N 
ATOM     12  C   UNL d   1      25.449 -13.795  -3.304  0.00  0.00     0.334 C 
ATOM     13  N   UNL d   1      25.073 -13.245  -4.518  0.00  0.00    -0.341 N 
ATOM     14  O   UNL d   1      26.482 -13.470  -2.724  0.00  0.00    -0.246 OA
ATOM     15  H   UNL d   1      24.207 -13.538  -4.941  0.00  0.00     0.164 HD
ATOM     16  H   UNL d   1      23.653 -14.931  -3.190  0.00  0.00     0.191 HD
BRANCH  13  17
ATOM     17  C   UNL d   1      25.913 -12.267  -5.244  0.00  0.00     0.133 C 
BRANCH  17  18
ATOM     18  C   UNL d   1      27.330 -12.789  -5.615  0.00  0.00    -0.028 C 
ATOM     19  C   UNL d   1      28.336 -12.248  -4.584  0.00  0.00     0.016 C 
ATOM     20  C   UNL d   1      27.799 -12.390  -7.037  0.00  0.00     0.011 C 
ATOM     21  C   UNL d   1      28.950 -13.353  -7.351  0.00  0.00     0.001 C 
ATOM     22  C   UNL d   1      28.668 -14.614  -6.534  0.00  0.00     0.001 C 
ATOM     23  C   UNL d   1      27.411 -14.322  -5.708  0.00  0.00     0.011 C 
ENDBRANCH  17  18
ENDBRANCH  13  17
ENDBRANCH   9  11
ENDBRANCH   1   9
TORSDOF 4
ENDMDL
MODEL 3
REMARK VINA RESULT:   -29.509      1.286      1.890
REMARK INTER + INTRA:         -31.304
REMARK INTER:                 -30.702
REMARK INTRA:                  -0.603
REMARK CONF_INDEPENDENT:        1.193
REMARK UNBOUND:                -0.603
REMARK  4 active torsions:
REMARK  status: ('A' for Active; 'I' for Inactive)
REMARK    1  A    between atoms: C_2  and  C_3 
REMARK    2  A    between atoms: C_3  and  N_4 
REMARK       I    between atoms: N_4  and  C_5 
REMARK       I    between atoms: C_5  and  N_7 
REMARK    3  A    between atoms: N_7  and  N_8 
REMARK    4  A    between atoms: N_8  and  C_9 
ROOT
ATOM      1  C   UNL d   1      24.407 -16.726  -1.165  0.00  0.00     0.049 A 
ATOM      2  C   UNL d   1      25.192 -17.731  -0.590  0.00  0.00     0.031 A 
ATOM      3  C   UNL d   1      24.626 -18.939  -0.145  0.00  0.00     0.004 A 
ATOM      4  C   UNL d   1      23.259 -19.172  -0.277  0.00  0.00     0.023 A 
ATOM      5  C   UNL d   1      22.445 -18.179  -0.822  0.00  0.00     0.046 A 
ATOM      6  C   UNL d   1      21.023 -18.390  -0.884  0.00  0.00     0.099 C 
ATOM      7  N   UNL d   1      19.881 -18.576  -0.898  0.00  0.00    -0.191 NA
ATOM      8  C   UNL d   1      23.021 -16.973  -1.271  0.00  0.00     0.053 A 
ENDROOT
BRANCH   1   9
ATOM      9  N   UNL d   1      24.940 -15.522  -1.659  0.00  0.00    -0.297 N 
ATOM     10  H   UNL d   1      24.477 -14.632  -1.471  0.00  0.00     0.187 HD
BRANCH   9  11
ATOM     11  N   UNL d   1      26.148 -15.473  -2.397  0.00  0.00    -0.251 N 
ATOM     12  C   UNL d   1      26.084 -14.989  -3.711  0.00  0.00     0.334 C 
ATOM     13  N   UNL d   1      27.261 -15.111  -4.431  0.00  0.00    -0.341 N 
ATOM     14  O   UNL d   1      25.075 -14.467  -4.179  0.00  0.00    -0.246 OA
ATOM     15  H   UNL d   1      28.053 -15.561  -4.001  0.00  0.00     0.164 HD
ATOM     16  H   UNL d   1      26.910 -16.045  -2.058  0.00  0.00     0.191 HD
BRANCH  13  17
ATOM     17  C   UNL d   1      27.417 -14.570  -5.799  0.00  0.00     0.133 C 
BRANCH  17  18
ATOM     18  C   UNL d   1      27.712 -13.045  -5.856  0.00  0.00    -0.028 C 
ATOM     19  C   UNL d   1      28.660 -12.687  -4.698  0.00  0.00     0.016 C 
ATOM     20  C   UNL d   1      26.449 -12.152  -5.769  0.00  0.00     0.011 C 
ATOM     21  C   UNL d   1      26.902 -10.784  -6.292  0.00  0.00     0.001 C 
ATOM     22  C   UNL d   1      28.054 -11.072  -7.254  0.00  0.00     0.001 C 
ATOM     23  C   UNL d   1      28.293 -12.585  -7.203  0.00  0.00     0.011 C 
ENDBRANCH  17  18
ENDBRANCH  13  17
ENDBRANCH   9  11
ENDBRANCH   1   9
TORSDOF 4
ENDMDL
MODEL 4
REMARK VINA RESULT:   -29.466      2.913      3.681
REMARK INTER + INTRA:         -31.357
REMARK INTER:                 -30.659
REMARK INTRA:                  -0.698
REMARK CONF_INDEPENDENT:        1.193
REMARK UNBOUND:                -0.698
REMARK  4 active torsions:
REMARK  status: ('A' for Active; 'I' for Inactive)
REMARK    1  A    between atoms: C_2  and  C_3 
REMARK    2  A    between atoms: C_3  and  N_4 
REMARK       I    between atoms: N_4  and  C_5 
REMARK       I    between atoms: C_5  and  N_7 
REMARK    3  A    between atoms: N_7  and  N_8 
REMARK    4  A    between atoms: N_8  and  C_9 
ROOT
ATOM      1  C   UNL d   1      24.328 -16.563  -1.061  0.00  0.00     0.049 A 
ATOM      2  C   UNL d   1      25.161 -17.560  -0.542  0.00  0.00     0.031 A 
ATOM      3  C   UNL d   1      24.654 -18.816  -0.164  0.00  0.00     0.004 A 
ATOM      4  C   UNL d   1      23.299 -19.105  -0.309  0.00  0.00     0.023 A 
ATOM      5  C   UNL d   1      22.438 -18.123  -0.798  0.00  0.00     0.046 A 
ATOM      6  C   UNL d   1      21.026 -18.397  -0.871  0.00  0.00     0.099 C 
ATOM      7  N   UNL d   1      19.894 -18.635  -0.895  0.00  0.00    -0.191 NA
ATOM      8  C   UNL d   1      22.955 -16.868  -1.180  0.00  0.00     0.053 A 
ENDROOT
BRANCH   1   9
ATOM      9  N   UNL d   1      24.802 -15.310  -1.488  0.00  0.00    -0.297 N 
ATOM     10  H   UNL d   1      25.414 -14.753  -0.890  0.00  0.00     0.187 HD
BRANCH   9  11
ATOM     11  N   UNL d   1      24.498 -14.778  -2.765  0.00  0.00    -0.251 N 
ATOM     12  C   UNL d   1      25.470 -13.977  -3.381  0.00  0.00     0.334 C 
ATOM     13  N   UNL d   1      25.057 -13.360  -4.549  0.00  0.00    -0.341 N 
ATOM     14  O   UNL d   1      26.611 -13.857  -2.939  0.00  0.00    -0.246 OA
ATOM     15  H   UNL d   1      24.105 -13.482  -4.857  0.00  0.00     0.164 HD
ATOM     16  H   UNL d   1      23.521 -14.753  -3.025  0.00  0.00     0.191 HD
BRANCH  13  17
ATOM     17  C   UNL d   1      25.970 -12.556  -5.392  0.00  0.00     0.133 C 
BRANCH  17  18
ATOM     18  C   UNL d   1      26.216 -11.111  -4.873  0.00  0.00    -0.028 C 
ATOM     19  C   UNL d   1      27.734 -10.893  -4.737  0.00  0.00     0.016 C 
ATOM     20  C   UNL d   1      25.538 -10.802  -3.515  0.00  0.00     0.011 C 
ATOM     21  C   UNL d   1      25.518  -9.272  -3.430  0.00  0.00     0.001 C 
ATOM     22  C   UNL d   1      25.494  -8.779  -4.876  0.00  0.00     0.001 C 
ATOM     23  C   UNL d   1      25.584 -10.027  -5.761  0.00  0.00     0.011 C 
ENDBRANCH  17  18
ENDBRANCH  13  17
ENDBRANCH   9  11
ENDBRANCH   1   9
TORSDOF 4
ENDMDL
MODEL 5
REMARK VINA RESULT:   -29.298      3.352      3.981
REMARK INTER + INTRA:         -31.061
REMARK INTER:                 -30.491
REMARK INTRA:                  -0.570
REMARK CONF_INDEPENDENT:        1.193
REMARK UNBOUND:                -0.570
REMARK  4 active torsions:
REMARK  status: ('A' for Active; 'I' for Inactive)
REMARK    1  A    between atoms: C_2  and  C_3 
REMARK    2  A    between atoms: C_3  and  N_4 
REMARK       I    between atoms: N_4  and  C_5 
REMARK       I    between atoms: C_5  and  N_7 
REMARK    3  A    between atoms: N_7  and  N_8 
REMARK    4  A    between atoms: N_8  and  C_9 
ROOT
ATOM      1  C   UNL d   1      24.568 -18.019  -0.334  0.00  0.00     0.049 A 
ATOM      2  C   UNL d   1      24.540 -16.633  -0.527  0.00  0.00     0.031 A 
ATOM      3  C   UNL d   1      23.341 -15.956  -0.811  0.00  0.00     0.004 A 
ATOM      4  C   UNL d   1      22.137 -16.652  -0.895  0.00  0.00     0.023 A 
ATOM      5  C   UNL d   1      22.135 -18.038  -0.734  0.00  0.00     0.046 A 
ATOM      6  C   UNL d   1      20.904 -18.764  -0.902  0.00  0.00     0.099 C 
ATOM      7  N   UNL d   1      19.905 -19.325  -1.066  0.00  0.00    -0.191 NA
ATOM      8  C   UNL d   1      23.341 -18.709  -0.445  0.00  0.00     0.053 A 
ENDROOT
BRANCH   1   9
ATOM      9  N   UNL d   1      25.738 -18.727  -0.010  0.00  0.00    -0.297 N 
ATOM     10  H   UNL d   1      25.789 -19.738  -0.141  0.00  0.00     0.187 HD
BRANCH   9  11
ATOM     11  N   UNL d   1      26.906 -18.084   0.470  0.00  0.00    -0.251 N 
ATOM     12  C   UNL d   1      27.638 -17.308  -0.440  0.00  0.00     0.334 C 
ATOM     13  N   UNL d   1      28.847 -16.837   0.043  0.00  0.00    -0.341 N 
ATOM     14  O   UNL d   1      27.226 -17.038  -1.566  0.00  0.00    -0.246 OA
ATOM     15  H   UNL d   1      29.141 -17.102   0.969  0.00  0.00     0.164 HD
ATOM     16  H   UNL d   1      27.303 -18.446   1.328  0.00  0.00     0.191 HD
BRANCH  13  17
ATOM     17  C   UNL d   1      29.713 -15.922  -0.734  0.00  0.00     0.133 C 
BRANCH  17  18
ATOM     18  C   UNL d   1      30.490 -16.605  -1.894  0.00  0.00    -0.028 C 
ATOM     19  C   UNL d   1      31.766 -15.791  -2.172  0.00  0.00     0.016 C 
ATOM     20  C   UNL d   1      29.679 -16.738  -3.208  0.00  0.00     0.011 C 
ATOM     21  C   UNL d   1      30.426 -17.802  -4.020  0.00  0.00     0.001 C 
ATOM     22  C   UNL d   1      31.121 -18.693  -2.991  0.00  0.00     0.001 C 
ATOM     23  C   UNL d   1      30.829 -18.079  -1.618  0.00  0.00     0.011 C 
ENDBRANCH  17  18
ENDBRANCH  13  17
ENDBRANCH   9  11
ENDBRANCH   1   9
TORSDOF 4
ENDMDL
MODEL 6
REMARK VINA RESULT:   -29.262      3.302      4.192
REMARK INTER + INTRA:         -31.075
REMARK INTER:                 -30.456
REMARK INTRA:                  -0.619
REMARK CONF_INDEPENDENT:        1.193
REMARK UNBOUND:                -0.619
REMARK  4 active torsions:
REMARK  status: ('A' for Active; 'I' for Inactive)
REMARK    1  A    between atoms: C_2  and  C_3 
REMARK    2  A    between atoms: C_3  and  N_4 
REMARK       I    between atoms: N_4  and  C_5 
REMARK       I    between atoms: C_5  and  N_7 
REMARK    3  A    between atoms: N_7  and  N_8 
REMARK    4  A    between atoms: N_8  and  C_9 
ROOT
ATOM      1  C   UNL d   1      24.577 -18.162  -0.369  0.00  0.00     0.049 A 
ATOM      2  C   UNL d   1      24.580 -16.767  -0.479  0.00  0.00     0.031 A 
ATOM      3  C   UNL d   1      23.400 -16.049  -0.742  0.00  0.00     0.004 A 
ATOM      4  C   UNL d   1      22.185 -16.713  -0.892  0.00  0.00     0.023 A 
ATOM      5  C   UNL d   1      22.153 -18.106  -0.815  0.00  0.00     0.046 A 
ATOM      6  C   UNL d   1      20.910 -18.795  -1.049  0.00  0.00     0.099 C 
ATOM      7  N   UNL d   1      19.904 -19.324  -1.265  0.00  0.00    -0.191 NA
ATOM      8  C   UNL d   1      23.339 -18.818  -0.544  0.00  0.00     0.053 A 
ENDROOT
BRANCH   1   9
ATOM      9  N   UNL d   1      25.726 -18.912  -0.067  0.00  0.00    -0.297 N 
ATOM     10  H   UNL d   1      25.720 -19.929  -0.148  0.00  0.00     0.187 HD
BRANCH   9  11
ATOM     11  N   UNL d   1      26.948 -18.308   0.320  0.00  0.00    -0.251 N 
ATOM     12  C   UNL d   1      27.570 -17.457  -0.603  0.00  0.00     0.334 C 
ATOM     13  N   UNL d   1      28.831 -17.023  -0.233  0.00  0.00    -0.341 N 
ATOM     14  O   UNL d   1      27.028 -17.096  -1.646  0.00  0.00    -0.246 OA
ATOM     15  H   UNL d   1      29.233 -17.363   0.627  0.00  0.00     0.164 HD
ATOM     16  H   UNL d   1      27.442 -18.737   1.092  0.00  0.00     0.191 HD
BRANCH  13  17
ATOM     17  C   UNL d   1      29.604 -16.044  -1.030  0.00  0.00     0.133 C 
BRANCH  17  18
ATOM     18  C   UNL d   1      28.878 -14.689  -1.261  0.00  0.00    -0.028 C 
ATOM     19  C   UNL d   1      29.921 -13.560  -1.199  0.00  0.00     0.016 C 
ATOM     20  C   UNL d   1      27.751 -14.393  -0.240  0.00  0.00     0.011 C 
ATOM     21  C   UNL d   1      26.905 -13.298  -0.901  0.00  0.00     0.001 C 
ATOM     22  C   UNL d   1      27.085 -13.492  -2.407  0.00  0.00     0.001 C 
ATOM     23  C   UNL d   1      28.090 -14.636  -2.579  0.00  0.00     0.011 C 
ENDBRANCH  17  18
ENDBRANCH  13  17
ENDBRANCH   9  11
ENDBRANCH   1   9
TORSDOF 4
ENDMDL
MODEL 7
REMARK VINA RESULT:   -28.772      4.147      5.148
REMARK INTER + INTRA:         -30.325
REMARK INTER:                 -29.966
REMARK INTRA:                  -0.359
REMARK CONF_INDEPENDENT:        1.193
REMARK UNBOUND:                -0.359
REMARK  4 active torsions:
REMARK  status: ('A' for Active; 'I' for Inactive)
REMARK    1  A    between atoms: C_2  and  C_3 
REMARK    2  A    between atoms: C_3  and  N_4 
REMARK       I    between atoms: N_4  and  C_5 
REMARK       I    between atoms: C_5  and  N_7 
REMARK    3  A    between atoms: N_7  and  N_8 
REMARK    4  A    between atoms: N_8  and  C_9 
ROOT
ATOM      1  C   UNL d   1      24.608 -18.094  -0.351  0.00  0.00     0.049 A 
ATOM      2  C   UNL d   1      24.609 -16.710  -0.559  0.00  0.00     0.031 A 
ATOM      3  C   UNL d   1      23.421 -16.007  -0.828  0.00  0.00     0.004 A 
ATOM      4  C   UNL d   1      22.200 -16.676  -0.883  0.00  0.00     0.023 A 
ATOM      5  C   UNL d   1      22.169 -18.059  -0.707  0.00  0.00     0.046 A 
ATOM      6  C   UNL d   1      20.917 -18.758  -0.844  0.00  0.00     0.099 C 
ATOM      7  N   UNL d   1      19.903 -19.297  -0.984  0.00  0.00    -0.191 NA
ATOM      8  C   UNL d   1      23.363 -18.756  -0.432  0.00  0.00     0.053 A 
ENDROOT
BRANCH   1   9
ATOM      9  N   UNL d   1      25.767 -18.826  -0.040  0.00  0.00    -0.297 N 
ATOM     10  H   UNL d   1      25.800 -19.835  -0.186  0.00  0.00     0.187 HD
BRANCH   9  11
ATOM     11  N   UNL d   1      26.947 -18.210   0.445  0.00  0.00    -0.251 N 
ATOM     12  C   UNL d   1      27.664 -17.396  -0.443  0.00  0.00     0.334 C 
ATOM     13  N   UNL d   1      28.884 -16.951   0.037  0.00  0.00    -0.341 N 
ATOM     14  O   UNL d   1      27.231 -17.073  -1.547  0.00  0.00    -0.246 OA
ATOM     15  H   UNL d   1      29.196 -17.259   0.944  0.00  0.00     0.164 HD
ATOM     16  H   UNL d   1      27.358 -18.611   1.278  0.00  0.00     0.191 HD
BRANCH  13  17
ATOM     17  C   UNL d   1      29.739 -16.004  -0.714  0.00  0.00     0.133 C 
BRANCH  17  18
ATOM     18  C   UNL d   1      31.227 -15.987  -0.264  0.00  0.00    -0.028 C 
ATOM     19  C   UNL d   1      32.108 -15.738  -1.500  0.00  0.00     0.016 C 
ATOM     20  C   UNL d   1      31.692 -17.290   0.434  0.00  0.00     0.011 C 
ATOM     21  C   UNL d   1      32.976 -16.897   1.174  0.00  0.00     0.001 C 
ATOM     22  C   UNL d   1      32.837 -15.405   1.477  0.00  0.00     0.001 C 
ATOM     23  C   UNL d   1      31.520 -14.954   0.836  0.00  0.00     0.011 C 
ENDBRANCH  17  18
ENDBRANCH  13  17
ENDBRANCH   9  11
ENDBRANCH   1   9
TORSDOF 4
ENDMDL
MODEL 8
REMARK VINA RESULT:   -27.570      2.224      2.802
REMARK INTER + INTRA:         -29.331
REMARK INTER:                 -28.764
REMARK INTRA:                  -0.568
REMARK CONF_INDEPENDENT:        1.193
REMARK UNBOUND:                -0.568
REMARK  4 active torsions:
REMARK  status: ('A' for Active; 'I' for Inactive)
REMARK    1  A    between atoms: C_2  and  C_3 
REMARK    2  A    between atoms: C_3  and  N_4 
REMARK       I    between atoms: N_4  and  C_5 
REMARK       I    between atoms: C_5  and  N_7 
REMARK    3  A    between atoms: N_7  and  N_8 
REMARK    4  A    between atoms: N_8  and  C_9 
ROOT
ATOM      1  C   UNL d   1      24.265 -16.603  -1.158  0.00  0.00     0.049 A 
ATOM      2  C   UNL d   1      25.072 -17.571  -0.551  0.00  0.00     0.031 A 
ATOM      3  C   UNL d   1      24.536 -18.784  -0.083  0.00  0.00     0.004 A 
ATOM      4  C   UNL d   1      23.178 -19.060  -0.224  0.00  0.00     0.023 A 
ATOM      5  C   UNL d   1      22.342 -18.104  -0.801  0.00  0.00     0.046 A 
ATOM      6  C   UNL d   1      20.927 -18.358  -0.873  0.00  0.00     0.099 C 
ATOM      7  N   UNL d   1      19.790 -18.577  -0.896  0.00  0.00    -0.191 NA
ATOM      8  C   UNL d   1      22.888 -16.892  -1.273  0.00  0.00     0.053 A 
ENDROOT
BRANCH   1   9
ATOM      9  N   UNL d   1      24.768 -15.397  -1.675  0.00  0.00    -0.297 N 
ATOM     10  H   UNL d   1      24.166 -14.766  -2.206  0.00  0.00     0.187 HD
BRANCH   9  11
ATOM     11  N   UNL d   1      26.103 -14.975  -1.458  0.00  0.00    -0.251 N 
ATOM     12  C   UNL d   1      26.971 -14.985  -2.558  0.00  0.00     0.334 C 
ATOM     13  N   UNL d   1      28.295 -14.716  -2.253  0.00  0.00    -0.341 N 
ATOM     14  O   UNL d   1      26.586 -15.183  -3.708  0.00  0.00    -0.246 OA
ATOM     15  H   UNL d   1      28.557 -14.576  -1.290  0.00  0.00     0.164 HD
ATOM     16  H   UNL d   1      26.429 -14.977  -0.500  0.00  0.00     0.191 HD
BRANCH  13  17
ATOM     17  C   UNL d   1      29.342 -14.586  -3.292  0.00  0.00     0.133 C 
BRANCH  17  18
ATOM     18  C   UNL d   1      30.350 -15.768  -3.338  0.00  0.00    -0.028 C 
ATOM     19  C   UNL d   1      29.635 -16.997  -3.926  0.00  0.00     0.016 C 
ATOM     20  C   UNL d   1      30.949 -16.143  -1.960  0.00  0.00     0.011 C 
ATOM     21  C   UNL d   1      32.199 -16.967  -2.290  0.00  0.00     0.001 C 
ATOM     22  C   UNL d   1      32.663 -16.480  -3.662  0.00  0.00     0.001 C 
ATOM     23  C   UNL d   1      31.630 -15.448  -4.128  0.00  0.00     0.011 C 
ENDBRANCH  17  18
ENDBRANCH  13  17
ENDBRANCH   9  11
ENDBRANCH   1   9
TORSDOF 4
ENDMDL
MODEL 9
REMARK VINA RESULT:   -26.819      4.052      5.179
REMARK INTER + INTRA:         -28.791
REMARK INTER:                 -28.012
REMARK INTRA:                  -0.779
REMARK CONF_INDEPENDENT:        1.193
REMARK UNBOUND:                -0.779
REMARK  4 active torsions:
REMARK  status: ('A' for Active; 'I' for Inactive)
REMARK    1  A    between atoms: C_2  and  C_3 
REMARK    2  A    between atoms: C_3  and  N_4 
REMARK       I    between atoms: N_4  and  C_5 
REMARK       I    between atoms: C_5  and  N_7 
REMARK    3  A    between atoms: N_7  and  N_8 
REMARK    4  A    between atoms: N_8  and  C_9 
ROOT
ATOM      1  C   UNL d   1      24.414 -16.696  -0.698  0.00  0.00     0.049 A 
ATOM      2  C   UNL d   1      25.185 -17.796  -0.305  0.00  0.00     0.031 A 
ATOM      3  C   UNL d   1      24.614 -19.072  -0.146  0.00  0.00     0.004 A 
ATOM      4  C   UNL d   1      23.258 -19.277  -0.389  0.00  0.00     0.023 A 
ATOM      5  C   UNL d   1      22.458 -18.194  -0.756  0.00  0.00     0.046 A 
ATOM      6  C   UNL d   1      21.042 -18.393  -0.928  0.00  0.00     0.099 C 
ATOM      7  N   UNL d   1      19.904 -18.575  -1.035  0.00  0.00    -0.191 NA
ATOM      8  C   UNL d   1      23.038 -16.920  -0.919  0.00  0.00     0.053 A 
ENDROOT
BRANCH   1   9
ATOM      9  N   UNL d   1      24.954 -15.415  -0.907  0.00  0.00    -0.297 N 
ATOM     10  H   UNL d   1      24.449 -14.721  -1.459  0.00  0.00     0.187 HD
BRANCH   9  11
ATOM     11  N   UNL d   1      26.187 -15.008  -0.340  0.00  0.00    -0.251 N 
ATOM     12  C   UNL d   1      26.781 -13.846  -0.850  0.00  0.00     0.334 C 
ATOM     13  N   UNL d   1      28.053 -13.587  -0.369  0.00  0.00    -0.341 N 
ATOM     14  O   UNL d   1      26.207 -13.095  -1.636  0.00  0.00    -0.246 OA
ATOM     15  H   UNL d   1      28.481 -14.245   0.263  0.00  0.00     0.164 HD
ATOM     16  H   UNL d   1      26.704 -15.711   0.172  0.00  0.00     0.191 HD
BRANCH  13  17
ATOM     17  C   UNL d   1      28.801 -12.358  -0.715  0.00  0.00     0.133 C 
BRANCH  17  18
ATOM     18  C   UNL d   1      29.501 -11.672   0.492  0.00  0.00    -0.028 C 
ATOM     19  C   UNL d   1      29.629 -10.168   0.192  0.00  0.00     0.016 C 
ATOM     20  C   UNL d   1      30.904 -12.242   0.819  0.00  0.00     0.011 C 
ATOM     21  C   UNL d   1      31.191 -11.773   2.250  0.00  0.00     0.001 C 
ATOM     22  C   UNL d   1      29.823 -11.608   2.912  0.00  0.00     0.001 C 
ATOM     23  C   UNL d   1      28.780 -11.905   1.830  0.00  0.00     0.011 C 
ENDBRANCH  17  18
ENDBRANCH  13  17
ENDBRANCH   9  11
ENDBRANCH   1   9
TORSDOF 4
ENDMDL
