MODEL 1
REMARK VINA RESULT:    -8.625      0.000      0.000
REMARK INTER + INTRA:         -15.735
REMARK INTER:                 -12.503
REMARK INTRA:                  -3.233
REMARK CONF_INDEPENDENT:        3.878
REMARK UNBOUND:                -3.233
REMARK  13 active torsions:
REMARK  status: ('A' for Active; 'I' for Inactive)
REMARK    1  A    between atoms: C_2  and  C_3 
REMARK    2  A    between atoms: C_3  and  C_4 
REMARK    3  A    between atoms: C_4  and  N_5 
REMARK       I    between atoms: N_5  and  C_6 
REMARK    4  A    between atoms: C_8  and  C_6 
REMARK    5  A    between atoms: C_8  and  N_16 
REMARK    6  A    between atoms: C_8  and  C_9 
REMARK    7  A    between atoms: C_12  and  O_13 
REMARK    8  A    between atoms: N_16  and  C_17 
REMARK       I    between atoms: N_16  and  C_20 
REMARK    9  A    between atoms: C_17  and  C_18 
REMARK   10  A    between atoms: C_20  and  C_22 
REMARK   11  A    between atoms: C_22  and  O_23 
REMARK   12  A    between atoms: C_22  and  C_24 
REMARK   13  A    between atoms: C_22  and  C_30 
ROOT
ATOM      1  N   UNL d   1      27.005 -14.824  -3.467  0.00  0.00    -0.331 N 
ATOM      2  C   UNL d   1      25.931 -15.256  -2.597  0.00  0.00     0.265 C 
ATOM      3  O   UNL d   1      24.771 -15.079  -2.999  0.00  0.00    -0.269 OA
ENDROOT
BRANCH   1   4
ATOM      4  C   UNL d   1      26.610 -14.015  -4.728  0.00  0.00     0.212 C 
BRANCH   4   5
ATOM      5  C   UNL d   1      26.448 -12.483  -4.531  0.00  0.00    -0.026 C 
ATOM      6  C   UNL d   1      27.001 -11.923  -3.384  0.00  0.00     0.012 C 
ATOM      7  C   UNL d   1      26.485 -10.728  -2.847  0.00  0.00     0.037 C 
ATOM      8  C   UNL d   1      25.755  -9.890  -3.648  0.00  0.00     0.065 C 
ATOM      9  C   UNL d   1      25.628 -10.230  -4.985  0.00  0.00     0.037 C 
ATOM     10  C   UNL d   1      25.928 -11.547  -5.426  0.00  0.00     0.012 C 
BRANCH   8  11
ATOM     11  O   UNL d   1      25.212  -8.742  -3.158  0.00  0.00    -0.361 OA
ATOM     12  H   UNL d   1      24.240  -8.824  -3.148  0.00  0.00     0.217 HD
ENDBRANCH   8  11
ENDBRANCH   4   5
BRANCH   4  13
ATOM     13  C   UNL d   1      27.680 -14.140  -5.860  0.00  0.00     0.245 C 
ATOM     14  N   UNL d   1      28.457 -13.049  -6.183  0.00  0.00    -0.359 N 
ATOM     15  H   UNL d   1      28.613 -12.352  -5.463  0.00  0.00     0.162 HD
ATOM     16  O   UNL d   1      27.779 -15.200  -6.520  0.00  0.00    -0.271 OA
BRANCH  14  17
ATOM     17  C   UNL d   1      29.448 -13.209  -7.216  0.00  0.00     0.122 C 
BRANCH  17  18
ATOM     18  C   UNL d   1      29.227 -12.307  -8.419  0.00  0.00     0.019 C 
BRANCH  18  19
ATOM     19  C   UNL d   1      27.769 -11.847  -8.463  0.00  0.00    -0.003 C 
ATOM     20  C   UNL d   1      27.383 -11.382  -9.854  0.00  0.00     0.005 C 
ENDBRANCH  18  19
ENDBRANCH  17  18
ENDBRANCH  14  17
ENDBRANCH   4  13
ENDBRANCH   1   4
BRANCH   1  21
ATOM     21  C   UNL d   1      28.293 -14.690  -2.817  0.00  0.00     0.127 C 
BRANCH  21  22
ATOM     22  C   UNL d   1      29.583 -15.433  -3.016  0.00  0.00     0.015 C 
ATOM     23  C   UNL d   1      29.984 -16.787  -2.493  0.00  0.00     0.006 C 
ENDBRANCH  21  22
ENDBRANCH   1  21
BRANCH   2  24
ATOM     24  C   UNL d   1      26.203 -16.173  -1.180  0.00  0.00     0.194 C 
BRANCH  24  25
ATOM     25  O   UNL d   1      27.130 -17.238  -1.427  0.00  0.00    -0.371 OA
ATOM     26  H   UNL d   1      27.475 -17.567  -0.592  0.00  0.00     0.212 HD
ENDBRANCH  24  25
BRANCH  24  27
ATOM     27  C   UNL d   1      26.724 -15.321   0.045  0.00  0.00    -0.010 C 
ATOM     28  C   UNL d   1      26.280 -14.051   0.402  0.00  0.00     0.011 C 
ATOM     29  C   UNL d   1      27.122 -13.102   0.989  0.00  0.00     0.001 C 
ATOM     30  C   UNL d   1      28.370 -13.483   1.437  0.00  0.00     0.000 C 
ATOM     31  C   UNL d   1      28.678 -14.824   1.402  0.00  0.00     0.001 C 
ATOM     32  C   UNL d   1      27.754 -15.735   0.875  0.00  0.00     0.011 C 
ENDBRANCH  24  27
BRANCH  24  33
ATOM     33  C   UNL d   1      24.846 -16.911  -0.925  0.00  0.00    -0.010 C 
ATOM     34  C   UNL d   1      23.620 -16.224  -0.902  0.00  0.00     0.011 C 
ATOM     35  C   UNL d   1      22.443 -16.885  -0.515  0.00  0.00     0.001 C 
ATOM     36  C   UNL d   1      22.432 -18.265  -0.317  0.00  0.00     0.000 C 
ATOM     37  C   UNL d   1      23.616 -18.968  -0.370  0.00  0.00     0.001 C 
ATOM     38  C   UNL d   1      24.796 -18.261  -0.530  0.00  0.00     0.011 C 
ENDBRANCH  24  33
ENDBRANCH   2  24
TORSDOF 13
ENDMDL
MODEL 2
REMARK VINA RESULT:    -8.428      1.127      1.780
REMARK INTER + INTRA:         -15.637
REMARK INTER:                 -12.306
REMARK INTRA:                  -3.331
REMARK CONF_INDEPENDENT:        3.878
REMARK UNBOUND:                -3.331
REMARK  13 active torsions:
REMARK  status: ('A' for Active; 'I' for Inactive)
REMARK    1  A    between atoms: C_2  and  C_3 
REMARK    2  A    between atoms: C_3  and  C_4 
REMARK    3  A    between atoms: C_4  and  N_5 
REMARK       I    between atoms: N_5  and  C_6 
REMARK    4  A    between atoms: C_8  and  C_6 
REMARK    5  A    between atoms: C_8  and  N_16 
REMARK    6  A    between atoms: C_8  and  C_9 
REMARK    7  A    between atoms: C_12  and  O_13 
REMARK    8  A    between atoms: N_16  and  C_17 
REMARK       I    between atoms: N_16  and  C_20 
REMARK    9  A    between atoms: C_17  and  C_18 
REMARK   10  A    between atoms: C_20  and  C_22 
REMARK   11  A    between atoms: C_22  and  O_23 
REMARK   12  A    between atoms: C_22  and  C_24 
REMARK   13  A    between atoms: C_22  and  C_30 
ROOT
ATOM      1  N   UNL d   1      27.084 -15.029  -3.483  0.00  0.00    -0.331 N 
ATOM      2  C   UNL d   1      25.969 -15.401  -2.638  0.00  0.00     0.265 C 
ATOM      3  O   UNL d   1      24.830 -15.245  -3.103  0.00  0.00    -0.269 OA
ENDROOT
BRANCH   1   4
ATOM      4  C   UNL d   1      26.753 -14.298  -4.808  0.00  0.00     0.212 C 
BRANCH   4   5
ATOM      5  C   UNL d   1      26.521 -12.766  -4.701  0.00  0.00    -0.026 C 
ATOM      6  C   UNL d   1      26.599 -12.193  -3.436  0.00  0.00     0.012 C 
ATOM      7  C   UNL d   1      25.913 -10.998  -3.144  0.00  0.00     0.037 C 
ATOM      8  C   UNL d   1      25.533 -10.173  -4.169  0.00  0.00     0.065 C 
ATOM      9  C   UNL d   1      25.919 -10.523  -5.453  0.00  0.00     0.037 C 
ATOM     10  C   UNL d   1      26.370 -11.840  -5.736  0.00  0.00     0.012 C 
BRANCH   8  11
ATOM     11  O   UNL d   1      24.839  -9.026  -3.930  0.00  0.00    -0.361 OA
ATOM     12  H   UNL d   1      24.405  -9.087  -3.059  0.00  0.00     0.217 HD
ENDBRANCH   8  11
ENDBRANCH   4   5
BRANCH   4  13
ATOM     13  C   UNL d   1      27.907 -14.433  -5.854  0.00  0.00     0.245 C 
ATOM     14  N   UNL d   1      29.029 -13.644  -5.732  0.00  0.00    -0.359 N 
ATOM     15  H   UNL d   1      29.271 -13.307  -4.806  0.00  0.00     0.162 HD
ATOM     16  O   UNL d   1      27.780 -15.199  -6.837  0.00  0.00    -0.271 OA
BRANCH  14  17
ATOM     17  C   UNL d   1      30.081 -13.813  -6.702  0.00  0.00     0.122 C 
BRANCH  17  18
ATOM     18  C   UNL d   1      31.077 -14.902  -6.337  0.00  0.00     0.019 C 
BRANCH  18  19
ATOM     19  C   UNL d   1      30.474 -16.277  -6.627  0.00  0.00    -0.003 C 
ATOM     20  C   UNL d   1      31.540 -17.258  -7.077  0.00  0.00     0.005 C 
ENDBRANCH  18  19
ENDBRANCH  17  18
ENDBRANCH  14  17
ENDBRANCH   4  13
ENDBRANCH   1   4
BRANCH   1  21
ATOM     21  C   UNL d   1      28.343 -14.859  -2.784  0.00  0.00     0.127 C 
BRANCH  21  22
ATOM     22  C   UNL d   1      29.364 -15.862  -2.330  0.00  0.00     0.015 C 
ATOM     23  C   UNL d   1      30.055 -16.936  -3.128  0.00  0.00     0.006 C 
ENDBRANCH  21  22
ENDBRANCH   1  21
BRANCH   2  24
ATOM     24  C   UNL d   1      26.171 -16.229  -1.156  0.00  0.00     0.194 C 
BRANCH  24  25
ATOM     25  O   UNL d   1      27.091 -17.319  -1.297  0.00  0.00    -0.371 OA
ATOM     26  H   UNL d   1      27.245 -17.725  -0.439  0.00  0.00     0.212 HD
ENDBRANCH  24  25
BRANCH  24  27
ATOM     27  C   UNL d   1      26.653 -15.308   0.034  0.00  0.00    -0.010 C 
ATOM     28  C   UNL d   1      26.280 -13.983   0.242  0.00  0.00     0.011 C 
ATOM     29  C   UNL d   1      27.141 -13.045   0.818  0.00  0.00     0.001 C 
ATOM     30  C   UNL d   1      28.315 -13.468   1.405  0.00  0.00     0.000 C 
ATOM     31  C   UNL d   1      28.523 -14.825   1.511  0.00  0.00     0.001 C 
ATOM     32  C   UNL d   1      27.577 -15.714   0.983  0.00  0.00     0.011 C 
ENDBRANCH  24  27
BRANCH  24  33
ATOM     33  C   UNL d   1      24.794 -16.934  -0.911  0.00  0.00    -0.010 C 
ATOM     34  C   UNL d   1      23.585 -16.217  -0.895  0.00  0.00     0.011 C 
ATOM     35  C   UNL d   1      22.390 -16.849  -0.517  0.00  0.00     0.001 C 
ATOM     36  C   UNL d   1      22.343 -18.228  -0.322  0.00  0.00     0.000 C 
ATOM     37  C   UNL d   1      23.509 -18.961  -0.369  0.00  0.00     0.001 C 
ATOM     38  C   UNL d   1      24.708 -18.283  -0.519  0.00  0.00     0.011 C 
ENDBRANCH  24  33
ENDBRANCH   2  24
TORSDOF 13
ENDMDL
MODEL 3
REMARK VINA RESULT:    -8.230      2.420      5.059
REMARK INTER + INTRA:         -16.106
REMARK INTER:                 -12.108
REMARK INTRA:                  -3.998
REMARK CONF_INDEPENDENT:        3.878
REMARK UNBOUND:                -3.998
REMARK  13 active torsions:
REMARK  status: ('A' for Active; 'I' for Inactive)
REMARK    1  A    between atoms: C_2  and  C_3 
REMARK    2  A    between atoms: C_3  and  C_4 
REMARK    3  A    between atoms: C_4  and  N_5 
REMARK       I    between atoms: N_5  and  C_6 
REMARK    4  A    between atoms: C_8  and  C_6 
REMARK    5  A    between atoms: C_8  and  N_16 
REMARK    6  A    between atoms: C_8  and  C_9 
REMARK    7  A    between atoms: C_12  and  O_13 
REMARK    8  A    between atoms: N_16  and  C_17 
REMARK       I    between atoms: N_16  and  C_20 
REMARK    9  A    between atoms: C_17  and  C_18 
REMARK   10  A    between atoms: C_20  and  C_22 
REMARK   11  A    between atoms: C_22  and  O_23 
REMARK   12  A    between atoms: C_22  and  C_24 
REMARK   13  A    between atoms: C_22  and  C_30 
ROOT
ATOM      1  N   UNL d   1      28.940 -16.355  -2.668  0.00  0.00    -0.331 N 
ATOM      2  C   UNL d   1      28.374 -15.386  -1.752  0.00  0.00     0.265 C 
ATOM      3  O   UNL d   1      28.054 -14.284  -2.222  0.00  0.00    -0.269 OA
ENDROOT
BRANCH   1   4
ATOM      4  C   UNL d   1      29.267 -15.865  -4.101  0.00  0.00     0.212 C 
BRANCH   4   5
ATOM      5  C   UNL d   1      29.962 -16.896  -5.031  0.00  0.00    -0.026 C 
ATOM      6  C   UNL d   1      30.714 -16.399  -6.090  0.00  0.00     0.012 C 
ATOM      7  C   UNL d   1      30.925 -17.173  -7.248  0.00  0.00     0.037 C 
ATOM      8  C   UNL d   1      30.780 -18.534  -7.184  0.00  0.00     0.065 C 
ATOM      9  C   UNL d   1      30.508 -19.093  -5.946  0.00  0.00     0.037 C 
ATOM     10  C   UNL d   1      30.049 -18.281  -4.874  0.00  0.00     0.012 C 
BRANCH   8  11
ATOM     11  O   UNL d   1      30.943 -19.312  -8.288  0.00  0.00    -0.361 OA
ATOM     12  H   UNL d   1      30.136 -19.270  -8.834  0.00  0.00     0.217 HD
ENDBRANCH   8  11
ENDBRANCH   4   5
BRANCH   4  13
ATOM     13  C   UNL d   1      27.979 -15.456  -4.886  0.00  0.00     0.245 C 
ATOM     14  N   UNL d   1      26.761 -15.461  -4.242  0.00  0.00    -0.359 N 
ATOM     15  H   UNL d   1      26.760 -15.332  -3.236  0.00  0.00     0.162 HD
ATOM     16  O   UNL d   1      28.042 -15.199  -6.110  0.00  0.00    -0.271 OA
BRANCH  14  17
ATOM     17  C   UNL d   1      25.600 -15.056  -4.993  0.00  0.00     0.122 C 
BRANCH  17  18
ATOM     18  C   UNL d   1      24.723 -14.052  -4.264  0.00  0.00     0.019 C 
BRANCH  18  19
ATOM     19  C   UNL d   1      25.596 -13.056  -3.500  0.00  0.00    -0.003 C 
ATOM     20  C   UNL d   1      26.454 -12.239  -4.449  0.00  0.00     0.005 C 
ENDBRANCH  18  19
ENDBRANCH  17  18
ENDBRANCH  14  17
ENDBRANCH   4  13
ENDBRANCH   1   4
BRANCH   1  21
ATOM     21  C   UNL d   1      29.644 -17.450  -2.032  0.00  0.00     0.127 C 
BRANCH  21  22
ATOM     22  C   UNL d   1      31.084 -17.600  -1.633  0.00  0.00     0.015 C 
ATOM     23  C   UNL d   1      31.686 -17.618  -0.252  0.00  0.00     0.006 C 
ENDBRANCH  21  22
ENDBRANCH   1  21
BRANCH   2  24
ATOM     24  C   UNL d   1      27.943 -15.779  -0.145  0.00  0.00     0.194 C 
BRANCH  24  25
ATOM     25  O   UNL d   1      28.814 -16.783   0.391  0.00  0.00    -0.371 OA
ATOM     26  H   UNL d   1      29.340 -16.408   1.102  0.00  0.00     0.212 HD
ENDBRANCH  24  25
BRANCH  24  27
ATOM     27  C   UNL d   1      27.930 -14.540   0.836  0.00  0.00    -0.010 C 
ATOM     28  C   UNL d   1      28.620 -14.448   2.042  0.00  0.00     0.011 C 
ATOM     29  C   UNL d   1      28.123 -13.733   3.135  0.00  0.00     0.001 C 
ATOM     30  C   UNL d   1      27.031 -12.907   2.969  0.00  0.00     0.000 C 
ATOM     31  C   UNL d   1      26.557 -12.724   1.689  0.00  0.00     0.001 C 
ATOM     32  C   UNL d   1      27.155 -13.411   0.625  0.00  0.00     0.011 C 
ENDBRANCH  24  27
BRANCH  24  33
ATOM     33  C   UNL d   1      26.566 -16.513  -0.279  0.00  0.00    -0.010 C 
ATOM     34  C   UNL d   1      26.392 -17.846   0.133  0.00  0.00     0.011 C 
ATOM     35  C   UNL d   1      25.196 -18.525  -0.144  0.00  0.00     0.001 C 
ATOM     36  C   UNL d   1      24.097 -17.847  -0.671  0.00  0.00     0.000 C 
ATOM     37  C   UNL d   1      24.230 -16.529  -1.049  0.00  0.00     0.001 C 
ATOM     38  C   UNL d   1      25.484 -15.945  -0.976  0.00  0.00     0.011 C 
ENDBRANCH  24  33
ENDBRANCH   2  24
TORSDOF 13
ENDMDL
MODEL 4
REMARK VINA RESULT:    -8.183      3.327      7.692
REMARK INTER + INTRA:         -16.214
REMARK INTER:                 -12.061
REMARK INTRA:                  -4.154
REMARK CONF_INDEPENDENT:        3.878
REMARK UNBOUND:                -4.154
REMARK  13 active torsions:
REMARK  status: ('A' for Active; 'I' for Inactive)
REMARK    1  A    between atoms: C_2  and  C_3 
REMARK    2  A    between atoms: C_3  and  C_4 
REMARK    3  A    between atoms: C_4  and  N_5 
REMARK       I    between atoms: N_5  and  C_6 
REMARK    4  A    between atoms: C_8  and  C_6 
REMARK    5  A    between atoms: C_8  and  N_16 
REMARK    6  A    between atoms: C_8  and  C_9 
REMARK    7  A    between atoms: C_12  and  O_13 
REMARK    8  A    between atoms: N_16  and  C_17 
REMARK       I    between atoms: N_16  and  C_20 
REMARK    9  A    between atoms: C_17  and  C_18 
REMARK   10  A    between atoms: C_20  and  C_22 
REMARK   11  A    between atoms: C_22  and  O_23 
REMARK   12  A    between atoms: C_22  and  C_24 
REMARK   13  A    between atoms: C_22  and  C_30 
ROOT
ATOM      1  N   UNL d   1      27.393 -14.062   0.862  0.00  0.00    -0.331 N 
ATOM      2  C   UNL d   1      28.072 -15.301   0.544  0.00  0.00     0.265 C 
ATOM      3  O   UNL d   1      29.086 -15.575   1.202  0.00  0.00    -0.269 OA
ENDROOT
BRANCH   1   4
ATOM      4  C   UNL d   1      28.096 -13.107   1.858  0.00  0.00     0.212 C 
BRANCH   4   5
ATOM      5  C   UNL d   1      27.588 -11.639   1.868  0.00  0.00    -0.026 C 
ATOM      6  C   UNL d   1      28.543 -10.630   1.821  0.00  0.00     0.012 C 
ATOM      7  C   UNL d   1      28.266  -9.352   2.345  0.00  0.00     0.037 C 
ATOM      8  C   UNL d   1      26.964  -8.957   2.503  0.00  0.00     0.065 C 
ATOM      9  C   UNL d   1      25.973  -9.818   2.058  0.00  0.00     0.037 C 
ATOM     10  C   UNL d   1      26.272 -11.180   1.785  0.00  0.00     0.012 C 
BRANCH   8  11
ATOM     11  O   UNL d   1      26.655  -7.744   3.037  0.00  0.00    -0.361 OA
ATOM     12  H   UNL d   1      27.428  -7.154   2.967  0.00  0.00     0.217 HD
ENDBRANCH   8  11
ENDBRANCH   4   5
BRANCH   4  13
ATOM     13  C   UNL d   1      27.925 -13.577   3.338  0.00  0.00     0.245 C 
ATOM     14  N   UNL d   1      28.405 -14.811   3.718  0.00  0.00    -0.359 N 
ATOM     15  H   UNL d   1      29.177 -15.200   3.188  0.00  0.00     0.162 HD
ATOM     16  O   UNL d   1      27.289 -12.871   4.154  0.00  0.00    -0.271 OA
BRANCH  14  17
ATOM     17  C   UNL d   1      28.249 -15.200   5.097  0.00  0.00     0.122 C 
BRANCH  17  18
ATOM     18  C   UNL d   1      29.223 -14.513   6.038  0.00  0.00     0.019 C 
BRANCH  18  19
ATOM     19  C   UNL d   1      28.530 -13.349   6.746  0.00  0.00    -0.003 C 
ATOM     20  C   UNL d   1      28.905 -13.299   8.215  0.00  0.00     0.005 C 
ENDBRANCH  18  19
ENDBRANCH  17  18
ENDBRANCH  14  17
ENDBRANCH   4  13
ENDBRANCH   1   4
BRANCH   1  21
ATOM     21  C   UNL d   1      26.472 -13.598  -0.157  0.00  0.00     0.127 C 
BRANCH  21  22
ATOM     22  C   UNL d   1      26.673 -12.674  -1.324  0.00  0.00     0.015 C 
ATOM     23  C   UNL d   1      27.881 -11.847  -1.678  0.00  0.00     0.006 C 
ENDBRANCH  21  22
ENDBRANCH   1  21
BRANCH   2  24
ATOM     24  C   UNL d   1      27.415 -16.466  -0.522  0.00  0.00     0.194 C 
BRANCH  24  25
ATOM     25  O   UNL d   1      28.204 -17.662  -0.526  0.00  0.00    -0.371 OA
ATOM     26  H   UNL d   1      28.828 -17.640   0.205  0.00  0.00     0.212 HD
ENDBRANCH  24  25
BRANCH  24  27
ATOM     27  C   UNL d   1      25.914 -16.849  -0.207  0.00  0.00    -0.010 C 
ATOM     28  C   UNL d   1      25.470 -18.075   0.280  0.00  0.00     0.011 C 
ATOM     29  C   UNL d   1      24.225 -18.609  -0.063  0.00  0.00     0.001 C 
ATOM     30  C   UNL d   1      23.303 -17.822  -0.721  0.00  0.00     0.000 C 
ATOM     31  C   UNL d   1      23.610 -16.491  -0.895  0.00  0.00     0.001 C 
ATOM     32  C   UNL d   1      24.846 -16.001  -0.454  0.00  0.00     0.011 C 
ENDBRANCH  24  27
BRANCH  24  33
ATOM     33  C   UNL d   1      27.643 -15.863  -1.949  0.00  0.00    -0.010 C 
ATOM     34  C   UNL d   1      26.574 -15.588  -2.819  0.00  0.00     0.011 C 
ATOM     35  C   UNL d   1      26.820 -15.200  -4.145  0.00  0.00     0.001 C 
ATOM     36  C   UNL d   1      28.114 -14.910  -4.575  0.00  0.00     0.000 C 
ATOM     37  C   UNL d   1      29.177 -15.135  -3.729  0.00  0.00     0.001 C 
ATOM     38  C   UNL d   1      28.930 -15.733  -2.504  0.00  0.00     0.011 C 
ENDBRANCH  24  33
ENDBRANCH   2  24
TORSDOF 13
ENDMDL
MODEL 5
REMARK VINA RESULT:    -7.523      3.040      7.149
REMARK INTER + INTRA:         -16.010
REMARK INTER:                 -11.401
REMARK INTRA:                  -4.609
REMARK CONF_INDEPENDENT:        3.878
REMARK UNBOUND:                -4.609
REMARK  13 active torsions:
REMARK  status: ('A' for Active; 'I' for Inactive)
REMARK    1  A    between atoms: C_2  and  C_3 
REMARK    2  A    between atoms: C_3  and  C_4 
REMARK    3  A    between atoms: C_4  and  N_5 
REMARK       I    between atoms: N_5  and  C_6 
REMARK    4  A    between atoms: C_8  and  C_6 
REMARK    5  A    between atoms: C_8  and  N_16 
REMARK    6  A    between atoms: C_8  and  C_9 
REMARK    7  A    between atoms: C_12  and  O_13 
REMARK    8  A    between atoms: N_16  and  C_17 
REMARK       I    between atoms: N_16  and  C_20 
REMARK    9  A    between atoms: C_17  and  C_18 
REMARK   10  A    between atoms: C_20  and  C_22 
REMARK   11  A    between atoms: C_22  and  O_23 
REMARK   12  A    between atoms: C_22  and  C_24 
REMARK   13  A    between atoms: C_22  and  C_30 
ROOT
ATOM      1  N   UNL d   1      27.299 -14.165   0.490  0.00  0.00    -0.331 N 
ATOM      2  C   UNL d   1      27.737 -15.526   0.264  0.00  0.00     0.265 C 
ATOM      3  O   UNL d   1      28.654 -15.953   0.981  0.00  0.00    -0.269 OA
ENDROOT
BRANCH   1   4
ATOM      4  C   UNL d   1      28.137 -13.308   1.473  0.00  0.00     0.212 C 
BRANCH   4   5
ATOM      5  C   UNL d   1      27.952 -13.627   2.982  0.00  0.00    -0.026 C 
ATOM      6  C   UNL d   1      27.803 -12.551   3.850  0.00  0.00     0.012 C 
ATOM      7  C   UNL d   1      28.157 -12.669   5.208  0.00  0.00     0.037 C 
ATOM      8  C   UNL d   1      28.233 -13.912   5.779  0.00  0.00     0.065 C 
ATOM      9  C   UNL d   1      27.874 -14.999   4.999  0.00  0.00     0.037 C 
ATOM     10  C   UNL d   1      27.780 -14.874   3.587  0.00  0.00     0.012 C 
BRANCH   8  11
ATOM     11  O   UNL d   1      28.604 -14.069   7.079  0.00  0.00    -0.361 OA
ATOM     12  H   UNL d   1      29.211 -14.828   7.152  0.00  0.00     0.217 HD
ENDBRANCH   8  11
ENDBRANCH   4   5
BRANCH   4  13
ATOM     13  C   UNL d   1      29.672 -13.480   1.235  0.00  0.00     0.245 C 
ATOM     14  N   UNL d   1      30.376 -14.399   1.983  0.00  0.00    -0.359 N 
ATOM     15  H   UNL d   1      29.866 -15.191   2.357  0.00  0.00     0.162 HD
ATOM     16  O   UNL d   1      30.271 -12.737   0.425  0.00  0.00    -0.271 OA
BRANCH  14  17
ATOM     17  C   UNL d   1      31.785 -14.545   1.719  0.00  0.00     0.122 C 
BRANCH  17  18
ATOM     18  C   UNL d   1      32.145 -15.854   1.037  0.00  0.00     0.019 C 
BRANCH  18  19
ATOM     19  C   UNL d   1      31.651 -15.840  -0.410  0.00  0.00    -0.003 C 
ATOM     20  C   UNL d   1      30.895 -17.112  -0.743  0.00  0.00     0.005 C 
ENDBRANCH  18  19
ENDBRANCH  17  18
ENDBRANCH  14  17
ENDBRANCH   4  13
ENDBRANCH   1   4
BRANCH   1  21
ATOM     21  C   UNL d   1      26.525 -13.590  -0.591  0.00  0.00     0.127 C 
BRANCH  21  22
ATOM     22  C   UNL d   1      26.877 -12.547  -1.612  0.00  0.00     0.015 C 
ATOM     23  C   UNL d   1      26.167 -12.202  -2.895  0.00  0.00     0.006 C 
ENDBRANCH  21  22
ENDBRANCH   1  21
BRANCH   2  24
ATOM     24  C   UNL d   1      26.906 -16.601  -0.775  0.00  0.00     0.194 C 
BRANCH  24  25
ATOM     25  O   UNL d   1      27.608 -17.845  -0.895  0.00  0.00    -0.371 OA
ATOM     26  H   UNL d   1      28.316 -17.880  -0.247  0.00  0.00     0.212 HD
ENDBRANCH  24  25
BRANCH  24  27
ATOM     27  C   UNL d   1      25.418 -16.897  -0.336  0.00  0.00    -0.010 C 
ATOM     28  C   UNL d   1      24.951 -18.089   0.212  0.00  0.00     0.011 C 
ATOM     29  C   UNL d   1      23.656 -18.562  -0.019  0.00  0.00     0.001 C 
ATOM     30  C   UNL d   1      22.728 -17.738  -0.621  0.00  0.00     0.000 C 
ATOM     31  C   UNL d   1      23.088 -16.429  -0.849  0.00  0.00     0.001 C 
ATOM     32  C   UNL d   1      24.379 -15.998  -0.517  0.00  0.00     0.011 C 
ENDBRANCH  24  27
BRANCH  24  33
ATOM     33  C   UNL d   1      27.046 -15.957  -2.196  0.00  0.00    -0.010 C 
ATOM     34  C   UNL d   1      25.927 -15.702  -3.009  0.00  0.00     0.011 C 
ATOM     35  C   UNL d   1      26.096 -15.274  -4.335  0.00  0.00     0.001 C 
ATOM     36  C   UNL d   1      27.357 -14.924  -4.816  0.00  0.00     0.000 C 
ATOM     37  C   UNL d   1      28.466 -15.129  -4.025  0.00  0.00     0.001 C 
ATOM     38  C   UNL d   1      28.299 -15.765  -2.806  0.00  0.00     0.011 C 
ENDBRANCH  24  33
ENDBRANCH   2  24
TORSDOF 13
ENDMDL
MODEL 6
REMARK VINA RESULT:    -7.268      2.388      5.658
REMARK INTER + INTRA:         -15.458
REMARK INTER:                 -11.146
REMARK INTRA:                  -4.312
REMARK CONF_INDEPENDENT:        3.878
REMARK UNBOUND:                -4.312
REMARK  13 active torsions:
REMARK  status: ('A' for Active; 'I' for Inactive)
REMARK    1  A    between atoms: C_2  and  C_3 
REMARK    2  A    between atoms: C_3  and  C_4 
REMARK    3  A    between atoms: C_4  and  N_5 
REMARK       I    between atoms: N_5  and  C_6 
REMARK    4  A    between atoms: C_8  and  C_6 
REMARK    5  A    between atoms: C_8  and  N_16 
REMARK    6  A    between atoms: C_8  and  C_9 
REMARK    7  A    between atoms: C_12  and  O_13 
REMARK    8  A    between atoms: N_16  and  C_17 
REMARK       I    between atoms: N_16  and  C_20 
REMARK    9  A    between atoms: C_17  and  C_18 
REMARK   10  A    between atoms: C_20  and  C_22 
REMARK   11  A    between atoms: C_22  and  O_23 
REMARK   12  A    between atoms: C_22  and  C_24 
REMARK   13  A    between atoms: C_22  and  C_30 
ROOT
ATOM      1  N   UNL d   1      27.578 -15.975  -1.705  0.00  0.00    -0.331 N 
ATOM      2  C   UNL d   1      27.508 -15.001  -0.636  0.00  0.00     0.265 C 
ATOM      3  O   UNL d   1      26.379 -14.654  -0.259  0.00  0.00    -0.269 OA
ENDROOT
BRANCH   1   4
ATOM      4  C   UNL d   1      26.248 -16.353  -2.404  0.00  0.00     0.212 C 
BRANCH   4   5
ATOM      5  C   UNL d   1      25.074 -16.748  -1.467  0.00  0.00    -0.026 C 
ATOM      6  C   UNL d   1      25.279 -17.817  -0.601  0.00  0.00     0.012 C 
ATOM      7  C   UNL d   1      24.191 -18.576  -0.126  0.00  0.00     0.037 C 
ATOM      8  C   UNL d   1      22.933 -18.034  -0.146  0.00  0.00     0.065 C 
ATOM      9  C   UNL d   1      22.806 -16.720  -0.565  0.00  0.00     0.037 C 
ATOM     10  C   UNL d   1      23.861 -16.084  -1.273  0.00  0.00     0.012 C 
BRANCH   8  11
ATOM     11  O   UNL d   1      21.852 -18.748   0.272  0.00  0.00    -0.361 OA
ATOM     12  H   UNL d   1      22.149 -19.476   0.848  0.00  0.00     0.217 HD
ENDBRANCH   8  11
ENDBRANCH   4   5
BRANCH   4  13
ATOM     13  C   UNL d   1      25.675 -15.169  -3.249  0.00  0.00     0.245 C 
ATOM     14  N   UNL d   1      25.671 -13.897  -2.720  0.00  0.00    -0.359 N 
ATOM     15  H   UNL d   1      26.366 -13.678  -2.014  0.00  0.00     0.162 HD
ATOM     16  O   UNL d   1      25.155 -15.387  -4.367  0.00  0.00    -0.271 OA
BRANCH  14  17
ATOM     17  C   UNL d   1      25.156 -12.829  -3.537  0.00  0.00     0.122 C 
BRANCH  17  18
ATOM     18  C   UNL d   1      26.133 -12.346  -4.597  0.00  0.00     0.019 C 
BRANCH  18  19
ATOM     19  C   UNL d   1      26.304 -10.830  -4.495  0.00  0.00    -0.003 C 
ATOM     20  C   UNL d   1      26.304 -10.374  -3.048  0.00  0.00     0.005 C 
ENDBRANCH  18  19
ENDBRANCH  17  18
ENDBRANCH  14  17
ENDBRANCH   4  13
ENDBRANCH   1   4
BRANCH   1  21
ATOM     21  C   UNL d   1      28.865 -16.057  -2.366  0.00  0.00     0.127 C 
BRANCH  21  22
ATOM     22  C   UNL d   1      29.333 -15.522  -3.689  0.00  0.00     0.015 C 
ATOM     23  C   UNL d   1      28.519 -15.151  -4.900  0.00  0.00     0.006 C 
ENDBRANCH  21  22
ENDBRANCH   1  21
BRANCH   2  24
ATOM     24  C   UNL d   1      28.885 -14.497   0.244  0.00  0.00     0.194 C 
BRANCH  24  25
ATOM     25  O   UNL d   1      29.682 -15.620   0.639  0.00  0.00    -0.371 OA
ATOM     26  H   UNL d   1      29.366 -15.960   1.482  0.00  0.00     0.212 HD
ENDBRANCH  24  25
BRANCH  24  27
ATOM     27  C   UNL d   1      29.802 -13.471  -0.532  0.00  0.00    -0.010 C 
ATOM     28  C   UNL d   1      29.360 -12.367  -1.256  0.00  0.00     0.011 C 
ATOM     29  C   UNL d   1      30.021 -11.908  -2.399  0.00  0.00     0.001 C 
ATOM     30  C   UNL d   1      31.269 -12.407  -2.710  0.00  0.00     0.000 C 
ATOM     31  C   UNL d   1      31.866 -13.248  -1.798  0.00  0.00     0.001 C 
ATOM     32  C   UNL d   1      31.178 -13.605  -0.631  0.00  0.00     0.011 C 
ENDBRANCH  24  27
BRANCH  24  33
ATOM     33  C   UNL d   1      28.308 -13.956   1.596  0.00  0.00    -0.010 C 
ATOM     34  C   UNL d   1      27.466 -12.831   1.647  0.00  0.00     0.011 C 
ATOM     35  C   UNL d   1      27.095 -12.277   2.882  0.00  0.00     0.001 C 
ATOM     36  C   UNL d   1      27.405 -12.926   4.076  0.00  0.00     0.000 C 
ATOM     37  C   UNL d   1      28.199 -14.052   4.051  0.00  0.00     0.001 C 
ATOM     38  C   UNL d   1      28.741 -14.450   2.840  0.00  0.00     0.011 C 
ENDBRANCH  24  33
ENDBRANCH   2  24
TORSDOF 13
ENDMDL
MODEL 7
REMARK VINA RESULT:    -6.952      2.649      6.628
REMARK INTER + INTRA:         -15.256
REMARK INTER:                 -10.830
REMARK INTRA:                  -4.426
REMARK CONF_INDEPENDENT:        3.878
REMARK UNBOUND:                -4.426
REMARK  13 active torsions:
REMARK  status: ('A' for Active; 'I' for Inactive)
REMARK    1  A    between atoms: C_2  and  C_3 
REMARK    2  A    between atoms: C_3  and  C_4 
REMARK    3  A    between atoms: C_4  and  N_5 
REMARK       I    between atoms: N_5  and  C_6 
REMARK    4  A    between atoms: C_8  and  C_6 
REMARK    5  A    between atoms: C_8  and  N_16 
REMARK    6  A    between atoms: C_8  and  C_9 
REMARK    7  A    between atoms: C_12  and  O_13 
REMARK    8  A    between atoms: N_16  and  C_17 
REMARK       I    between atoms: N_16  and  C_20 
REMARK    9  A    between atoms: C_17  and  C_18 
REMARK   10  A    between atoms: C_20  and  C_22 
REMARK   11  A    between atoms: C_22  and  O_23 
REMARK   12  A    between atoms: C_22  and  C_24 
REMARK   13  A    between atoms: C_22  and  C_30 
ROOT
ATOM      1  N   UNL d   1      28.302 -13.436  -0.299  0.00  0.00    -0.331 N 
ATOM      2  C   UNL d   1      27.709 -14.749  -0.432  0.00  0.00     0.265 C 
ATOM      3  O   UNL d   1      27.996 -15.590   0.434  0.00  0.00    -0.269 OA
ENDROOT
BRANCH   1   4
ATOM      4  C   UNL d   1      29.382 -13.255   0.797  0.00  0.00     0.212 C 
BRANCH   4   5
ATOM      5  C   UNL d   1      28.927 -13.543   2.254  0.00  0.00    -0.026 C 
ATOM      6  C   UNL d   1      29.917 -13.657   3.224  0.00  0.00     0.012 C 
ATOM      7  C   UNL d   1      29.695 -14.409   4.394  0.00  0.00     0.037 C 
ATOM      8  C   UNL d   1      28.411 -14.666   4.795  0.00  0.00     0.065 C 
ATOM      9  C   UNL d   1      27.383 -14.096   4.062  0.00  0.00     0.037 C 
ATOM     10  C   UNL d   1      27.627 -13.574   2.763  0.00  0.00     0.012 C 
BRANCH   8  11
ATOM     11  O   UNL d   1      28.155 -15.418   5.900  0.00  0.00    -0.361 OA
ATOM     12  H   UNL d   1      28.943 -15.949   6.119  0.00  0.00     0.217 HD
ENDBRANCH   8  11
ENDBRANCH   4   5
BRANCH   4  13
ATOM     13  C   UNL d   1      30.597 -14.214   0.584  0.00  0.00     0.245 C 
ATOM     14  N   UNL d   1      30.590 -15.460   1.174  0.00  0.00    -0.359 N 
ATOM     15  H   UNL d   1      29.690 -15.879   1.379  0.00  0.00     0.162 HD
ATOM     16  O   UNL d   1      31.602 -13.827  -0.054  0.00  0.00    -0.271 OA
BRANCH  14  17
ATOM     17  C   UNL d   1      31.717 -16.325   0.936  0.00  0.00     0.122 C 
BRANCH  17  18
ATOM     18  C   UNL d   1      31.839 -16.784  -0.507  0.00  0.00     0.019 C 
BRANCH  18  19
ATOM     19  C   UNL d   1      30.517 -17.394  -0.973  0.00  0.00    -0.003 C 
ATOM     20  C   UNL d   1      30.638 -17.959  -2.376  0.00  0.00     0.005 C 
ENDBRANCH  18  19
ENDBRANCH  17  18
ENDBRANCH  14  17
ENDBRANCH   4  13
ENDBRANCH   1   4
BRANCH   1  21
ATOM     21  C   UNL d   1      28.261 -12.629  -1.502  0.00  0.00     0.127 C 
BRANCH  21  22
ATOM     22  C   UNL d   1      27.260 -11.616  -1.979  0.00  0.00     0.015 C 
ATOM     23  C   UNL d   1      26.476 -11.593  -3.265  0.00  0.00     0.006 C 
ENDBRANCH  21  22
ENDBRANCH   1  21
BRANCH   2  24
ATOM     24  C   UNL d   1      26.492 -15.100  -1.580  0.00  0.00     0.194 C 
BRANCH  24  25
ATOM     25  O   UNL d   1      25.534 -14.037  -1.655  0.00  0.00    -0.371 OA
ATOM     26  H   UNL d   1      25.732 -13.376  -0.986  0.00  0.00     0.212 HD
ENDBRANCH  24  25
BRANCH  24  27
ATOM     27  C   UNL d   1      27.044 -15.391  -3.032  0.00  0.00    -0.010 C 
ATOM     28  C   UNL d   1      28.340 -15.790  -3.347  0.00  0.00     0.011 C 
ATOM     29  C   UNL d   1      28.971 -15.413  -4.536  0.00  0.00     0.001 C 
ATOM     30  C   UNL d   1      28.234 -14.815  -5.537  0.00  0.00     0.000 C 
ATOM     31  C   UNL d   1      26.870 -14.735  -5.366  0.00  0.00     0.001 C 
ATOM     32  C   UNL d   1      26.292 -15.207  -4.181  0.00  0.00     0.011 C 
ENDBRANCH  24  27
BRANCH  24  33
ATOM     33  C   UNL d   1      25.685 -16.284  -0.946  0.00  0.00    -0.010 C 
ATOM     34  C   UNL d   1      26.309 -17.480  -0.551  0.00  0.00     0.011 C 
ATOM     35  C   UNL d   1      25.540 -18.578  -0.134  0.00  0.00     0.001 C 
ATOM     36  C   UNL d   1      24.165 -18.451   0.064  0.00  0.00     0.000 C 
ATOM     37  C   UNL d   1      23.535 -17.276  -0.281  0.00  0.00     0.001 C 
ATOM     38  C   UNL d   1      24.279 -16.286  -0.902  0.00  0.00     0.011 C 
ENDBRANCH  24  33
ENDBRANCH   2  24
TORSDOF 13
ENDMDL
MODEL 8
REMARK VINA RESULT:    -6.640      2.340      5.924
REMARK INTER + INTRA:         -15.372
REMARK INTER:                 -10.518
REMARK INTRA:                  -4.854
REMARK CONF_INDEPENDENT:        3.878
REMARK UNBOUND:                -4.854
REMARK  13 active torsions:
REMARK  status: ('A' for Active; 'I' for Inactive)
REMARK    1  A    between atoms: C_2  and  C_3 
REMARK    2  A    between atoms: C_3  and  C_4 
REMARK    3  A    between atoms: C_4  and  N_5 
REMARK       I    between atoms: N_5  and  C_6 
REMARK    4  A    between atoms: C_8  and  C_6 
REMARK    5  A    between atoms: C_8  and  N_16 
REMARK    6  A    between atoms: C_8  and  C_9 
REMARK    7  A    between atoms: C_12  and  O_13 
REMARK    8  A    between atoms: N_16  and  C_17 
REMARK       I    between atoms: N_16  and  C_20 
REMARK    9  A    between atoms: C_17  and  C_18 
REMARK   10  A    between atoms: C_20  and  C_22 
REMARK   11  A    between atoms: C_22  and  O_23 
REMARK   12  A    between atoms: C_22  and  C_24 
REMARK   13  A    between atoms: C_22  and  C_30 
ROOT
ATOM      1  N   UNL d   1      29.094 -14.803  -3.868  0.00  0.00    -0.331 N 
ATOM      2  C   UNL d   1      27.914 -15.011  -4.681  0.00  0.00     0.265 C 
ATOM      3  O   UNL d   1      28.072 -15.574  -5.774  0.00  0.00    -0.269 OA
ENDROOT
BRANCH   1   4
ATOM      4  C   UNL d   1      30.464 -15.130  -4.515  0.00  0.00     0.212 C 
BRANCH   4   5
ATOM      5  C   UNL d   1      30.622 -16.567  -5.083  0.00  0.00    -0.026 C 
ATOM      6  C   UNL d   1      31.089 -16.692  -6.387  0.00  0.00     0.012 C 
ATOM      7  C   UNL d   1      30.776 -17.829  -7.158  0.00  0.00     0.037 C 
ATOM      8  C   UNL d   1      30.398 -18.985  -6.528  0.00  0.00     0.065 C 
ATOM      9  C   UNL d   1      30.420 -18.999  -5.142  0.00  0.00     0.037 C 
ATOM     10  C   UNL d   1      30.484 -17.783  -4.411  0.00  0.00     0.012 C 
BRANCH   8  11
ATOM     11  O   UNL d   1      30.055 -20.094  -7.238  0.00  0.00    -0.361 OA
ATOM     12  H   UNL d   1      29.689 -19.825  -8.101  0.00  0.00     0.217 HD
ENDBRANCH   8  11
ENDBRANCH   4   5
BRANCH   4  13
ATOM     13  C   UNL d   1      30.769 -14.205  -5.736  0.00  0.00     0.245 C 
ATOM     14  N   UNL d   1      29.885 -14.161  -6.792  0.00  0.00    -0.359 N 
ATOM     15  H   UNL d   1      28.914 -14.387  -6.604  0.00  0.00     0.162 HD
ATOM     16  O   UNL d   1      31.844 -13.565  -5.789  0.00  0.00    -0.271 OA
BRANCH  14  17
ATOM     17  C   UNL d   1      30.189 -13.278  -7.889  0.00  0.00     0.122 C 
BRANCH  17  18
ATOM     18  C   UNL d   1      29.300 -12.047  -7.946  0.00  0.00     0.019 C 
BRANCH  18  19
ATOM     19  C   UNL d   1      28.336 -12.155  -9.128  0.00  0.00    -0.003 C 
ATOM     20  C   UNL d   1      27.017 -11.469  -8.823  0.00  0.00     0.005 C 
ENDBRANCH  18  19
ENDBRANCH  17  18
ENDBRANCH  14  17
ENDBRANCH   4  13
ENDBRANCH   1   4
BRANCH   1  21
ATOM     21  C   UNL d   1      28.937 -13.824  -2.811  0.00  0.00     0.127 C 
BRANCH  21  22
ATOM     22  C   UNL d   1      29.204 -12.346  -2.786  0.00  0.00     0.015 C 
ATOM     23  C   UNL d   1      29.604 -11.438  -3.918  0.00  0.00     0.006 C 
ENDBRANCH  21  22
ENDBRANCH   1  21
BRANCH   2  24
ATOM     24  C   UNL d   1      26.332 -14.715  -4.102  0.00  0.00     0.194 C 
BRANCH  24  25
ATOM     25  O   UNL d   1      25.349 -15.192  -5.029  0.00  0.00    -0.371 OA
ATOM     26  H   UNL d   1      25.781 -15.488  -5.835  0.00  0.00     0.212 HD
ENDBRANCH  24  25
BRANCH  24  27
ATOM     27  C   UNL d   1      26.040 -15.345  -2.683  0.00  0.00    -0.010 C 
ATOM     28  C   UNL d   1      26.960 -16.020  -1.885  0.00  0.00     0.011 C 
ATOM     29  C   UNL d   1      26.590 -17.073  -1.044  0.00  0.00     0.001 C 
ATOM     30  C   UNL d   1      25.253 -17.324  -0.814  0.00  0.00     0.000 C 
ATOM     31  C   UNL d   1      24.339 -16.431  -1.328  0.00  0.00     0.001 C 
ATOM     32  C   UNL d   1      24.784 -15.348  -2.097  0.00  0.00     0.011 C 
ENDBRANCH  24  27
BRANCH  24  33
ATOM     33  C   UNL d   1      26.178 -13.158  -4.164  0.00  0.00    -0.010 C 
ATOM     34  C   UNL d   1      25.876 -12.396  -3.022  0.00  0.00     0.011 C 
ATOM     35  C   UNL d   1      25.588 -11.027  -3.138  0.00  0.00     0.001 C 
ATOM     36  C   UNL d   1      25.765 -10.361  -4.350  0.00  0.00     0.000 C 
ATOM     37  C   UNL d   1      26.098 -11.080  -5.478  0.00  0.00     0.001 C 
ATOM     38  C   UNL d   1      26.155 -12.461  -5.386  0.00  0.00     0.011 C 
ENDBRANCH  24  33
ENDBRANCH   2  24
TORSDOF 13
ENDMDL
MODEL 9
REMARK VINA RESULT:    -6.439      3.126      6.488
REMARK INTER + INTRA:         -15.256
REMARK INTER:                 -10.317
REMARK INTRA:                  -4.939
REMARK CONF_INDEPENDENT:        3.878
REMARK UNBOUND:                -4.939
REMARK  13 active torsions:
REMARK  status: ('A' for Active; 'I' for Inactive)
REMARK    1  A    between atoms: C_2  and  C_3 
REMARK    2  A    between atoms: C_3  and  C_4 
REMARK    3  A    between atoms: C_4  and  N_5 
REMARK       I    between atoms: N_5  and  C_6 
REMARK    4  A    between atoms: C_8  and  C_6 
REMARK    5  A    between atoms: C_8  and  N_16 
REMARK    6  A    between atoms: C_8  and  C_9 
REMARK    7  A    between atoms: C_12  and  O_13 
REMARK    8  A    between atoms: N_16  and  C_17 
REMARK       I    between atoms: N_16  and  C_20 
REMARK    9  A    between atoms: C_17  and  C_18 
REMARK   10  A    between atoms: C_20  and  C_22 
REMARK   11  A    between atoms: C_22  and  O_23 
REMARK   12  A    between atoms: C_22  and  C_24 
REMARK   13  A    between atoms: C_22  and  C_30 
ROOT
ATOM      1  N   UNL d   1      27.095 -14.397   0.192  0.00  0.00    -0.331 N 
ATOM      2  C   UNL d   1      28.116 -15.419   0.102  0.00  0.00     0.265 C 
ATOM      3  O   UNL d   1      29.091 -15.314   0.862  0.00  0.00    -0.269 OA
ENDROOT
BRANCH   1   4
ATOM      4  C   UNL d   1      27.400 -13.171   1.089  0.00  0.00     0.212 C 
BRANCH   4   5
ATOM      5  C   UNL d   1      27.980 -13.485   2.496  0.00  0.00    -0.026 C 
ATOM      6  C   UNL d   1      29.261 -13.021   2.779  0.00  0.00     0.012 C 
ATOM      7  C   UNL d   1      30.061 -13.665   3.742  0.00  0.00     0.037 C 
ATOM      8  C   UNL d   1      29.468 -14.448   4.697  0.00  0.00     0.065 C 
ATOM      9  C   UNL d   1      28.083 -14.504   4.711  0.00  0.00     0.037 C 
ATOM     10  C   UNL d   1      27.332 -14.066   3.588  0.00  0.00     0.012 C 
BRANCH   8  11
ATOM     11  O   UNL d   1      30.210 -15.113   5.624  0.00  0.00    -0.361 OA
ATOM     12  H   UNL d   1      31.155 -14.928   5.474  0.00  0.00     0.217 HD
ENDBRANCH   8  11
ENDBRANCH   4   5
BRANCH   4  13
ATOM     13  C   UNL d   1      28.464 -12.225   0.444  0.00  0.00     0.245 C 
ATOM     14  N   UNL d   1      29.582 -12.767  -0.151  0.00  0.00    -0.359 N 
ATOM     15  H   UNL d   1      29.512 -13.712  -0.512  0.00  0.00     0.162 HD
ATOM     16  O   UNL d   1      28.339 -10.982   0.534  0.00  0.00    -0.271 OA
BRANCH  14  17
ATOM     17  C   UNL d   1      30.528 -11.865  -0.755  0.00  0.00     0.122 C 
BRANCH  17  18
ATOM     18  C   UNL d   1      30.726 -12.094  -2.244  0.00  0.00     0.019 C 
BRANCH  18  19
ATOM     19  C   UNL d   1      29.552 -12.896  -2.807  0.00  0.00    -0.003 C 
ATOM     20  C   UNL d   1      28.705 -12.048  -3.737  0.00  0.00     0.005 C 
ENDBRANCH  18  19
ENDBRANCH  17  18
ENDBRANCH  14  17
ENDBRANCH   4  13
ENDBRANCH   1   4
BRANCH   1  21
ATOM     21  C   UNL d   1      26.197 -14.336  -0.944  0.00  0.00     0.127 C 
BRANCH  21  22
ATOM     22  C   UNL d   1      26.030 -13.299  -2.017  0.00  0.00     0.015 C 
ATOM     23  C   UNL d   1      25.306 -13.408  -3.333  0.00  0.00     0.006 C 
ENDBRANCH  21  22
ENDBRANCH   1  21
BRANCH   2  24
ATOM     24  C   UNL d   1      27.920 -16.839  -0.830  0.00  0.00     0.194 C 
BRANCH  24  25
ATOM     25  O   UNL d   1      28.814 -17.870  -0.391  0.00  0.00    -0.371 OA
ATOM     26  H   UNL d   1      29.279 -17.579   0.398  0.00  0.00     0.212 HD
ENDBRANCH  24  25
BRANCH  24  27
ATOM     27  C   UNL d   1      26.446 -17.409  -0.828  0.00  0.00    -0.010 C 
ATOM     28  C   UNL d   1      25.441 -17.076  -1.731  0.00  0.00     0.011 C 
ATOM     29  C   UNL d   1      24.092 -17.034  -1.368  0.00  0.00     0.001 C 
ATOM     30  C   UNL d   1      23.699 -17.546  -0.149  0.00  0.00     0.000 C 
ATOM     31  C   UNL d   1      24.648 -18.199   0.605  0.00  0.00     0.001 C 
ATOM     32  C   UNL d   1      25.968 -18.275   0.143  0.00  0.00     0.011 C 
ENDBRANCH  24  27
BRANCH  24  33
ATOM     33  C   UNL d   1      28.463 -16.454  -2.248  0.00  0.00    -0.010 C 
ATOM     34  C   UNL d   1      27.698 -15.704  -3.158  0.00  0.00     0.011 C 
ATOM     35  C   UNL d   1      28.147 -15.512  -4.474  0.00  0.00     0.001 C 
ATOM     36  C   UNL d   1      29.429 -15.905  -4.854  0.00  0.00     0.000 C 
ATOM     37  C   UNL d   1      30.214 -16.611  -3.968  0.00  0.00     0.001 C 
ATOM     38  C   UNL d   1      29.663 -16.986  -2.754  0.00  0.00     0.011 C 
ENDBRANCH  24  33
ENDBRANCH   2  24
TORSDOF 13
ENDMDL
