MODEL 1
REMARK VINA RESULT:    -9.070      0.000      0.000
REMARK INTER + INTRA:         -11.304
REMARK INTER:                 -10.264
REMARK INTRA:                  -1.040
REMARK CONF_INDEPENDENT:        1.193
REMARK UNBOUND:                -1.040
REMARK  4 active torsions:
REMARK  status: ('A' for Active; 'I' for Inactive)
REMARK    1  A    between atoms: C_7  and  C_8 
REMARK    2  A    between atoms: C_8  and  N_9 
REMARK    3  A    between atoms: C_13  and  C_14 
REMARK    4  A    between atoms: C_17  and  O_18 
ROOT
ATOM      1  C   UNL d   1      26.017 -14.952  -1.988  0.00  0.00     0.175 C 
ENDROOT
BRANCH   1   2
ATOM      2  C   UNL d   1      27.059 -15.262  -3.044  0.00  0.00     0.033 A 
ATOM      3  N   UNL d   1      28.194 -15.980  -2.709  0.00  0.00    -0.344 N 
ATOM      4  C   UNL d   1      29.043 -16.318  -3.669  0.00  0.00     0.114 A 
ATOM      5  H   UNL d   1      28.346 -16.313  -1.759  0.00  0.00     0.167 HD
ATOM      6  C   UNL d   1      30.159 -17.249  -3.335  0.00  0.00     0.050 C 
ATOM      7  N   UNL d   1      28.889 -15.945  -4.938  0.00  0.00    -0.274 N 
ATOM      8  C   UNL d   1      30.874 -17.779  -4.341  0.00  0.00     0.012 C 
ATOM      9  C   UNL d   1      30.734 -17.232  -5.673  0.00  0.00    -0.046 C 
ATOM     10  C   UNL d   1      31.723 -17.593  -6.730  0.00  0.00     0.049 C 
ATOM     11  C   UNL d   1      29.776 -16.333  -5.922  0.00  0.00     0.108 C 
ATOM     12  C   UNL d   1      27.800 -15.163  -5.357  0.00  0.00     0.255 A 
ATOM     13  C   UNL d   1      26.890 -14.847  -4.301  0.00  0.00     0.101 A 
ATOM     14  O   UNL d   1      27.618 -14.825  -6.520  0.00  0.00    -0.268 OA
ENDBRANCH   1   2
BRANCH   1  15
ATOM     15  N   UNL d   1      26.120 -15.742  -0.780  0.00  0.00    -0.399 N 
ATOM     16  C   UNL d   1      26.693 -15.403   0.509  0.00  0.00     0.118 C 
ATOM     17  C   UNL d   1      27.493 -16.667   0.840  0.00  0.00     0.022 C 
ATOM     18  C   UNL d   1      26.632 -17.791   0.282  0.00  0.00     0.031 C 
ATOM     19  C   UNL d   1      25.861 -17.162  -0.886  0.00  0.00     0.112 C 
BRANCH  19  20
ATOM     20  C   UNL d   1      24.377 -17.399  -0.806  0.00  0.00    -0.036 C 
ATOM     21  C   UNL d   1      23.864 -18.698  -0.624  0.00  0.00     0.012 C 
ATOM     22  C   UNL d   1      22.507 -18.949  -0.748  0.00  0.00     0.037 C 
ATOM     23  C   UNL d   1      21.644 -17.876  -0.895  0.00  0.00     0.065 C 
ATOM     24  C   UNL d   1      22.117 -16.568  -0.889  0.00  0.00     0.037 C 
ATOM     25  C   UNL d   1      23.488 -16.328  -0.902  0.00  0.00     0.012 C 
BRANCH  23  26
ATOM     26  O   UNL d   1      20.306 -18.068  -1.060  0.00  0.00    -0.361 OA
ATOM     27  H   UNL d   1      19.977 -17.422  -1.708  0.00  0.00     0.217 HD
ENDBRANCH  23  26
ENDBRANCH  19  20
ENDBRANCH   1  15
TORSDOF 4
ENDMDL
MODEL 2
REMARK VINA RESULT:    -8.777      2.534      3.700
REMARK INTER + INTRA:         -10.753
REMARK INTER:                  -9.970
REMARK INTRA:                  -0.783
REMARK CONF_INDEPENDENT:        1.193
REMARK UNBOUND:                -0.783
REMARK  4 active torsions:
REMARK  status: ('A' for Active; 'I' for Inactive)
REMARK    1  A    between atoms: C_7  and  C_8 
REMARK    2  A    between atoms: C_8  and  N_9 
REMARK    3  A    between atoms: C_13  and  C_14 
REMARK    4  A    between atoms: C_17  and  O_18 
ROOT
ATOM      1  C   UNL d   1      24.768 -14.461  -2.677  0.00  0.00     0.175 C 
ENDROOT
BRANCH   1   2
ATOM      2  C   UNL d   1      25.579 -14.014  -3.878  0.00  0.00     0.033 A 
ATOM      3  N   UNL d   1      25.406 -12.742  -4.397  0.00  0.00    -0.344 N 
ATOM      4  C   UNL d   1      26.192 -12.343  -5.387  0.00  0.00     0.114 A 
ATOM      5  H   UNL d   1      24.743 -12.089  -3.984  0.00  0.00     0.167 HD
ATOM      6  C   UNL d   1      26.131 -10.915  -5.812  0.00  0.00     0.050 C 
ATOM      7  N   UNL d   1      27.103 -13.133  -5.953  0.00  0.00    -0.274 N 
ATOM      8  C   UNL d   1      27.081 -10.452  -6.641  0.00  0.00     0.012 C 
ATOM      9  C   UNL d   1      27.955 -11.391  -7.310  0.00  0.00    -0.046 C 
ATOM     10  C   UNL d   1      28.802 -10.933  -8.448  0.00  0.00     0.049 C 
ATOM     11  C   UNL d   1      27.925 -12.683  -6.966  0.00  0.00     0.108 C 
ATOM     12  C   UNL d   1      27.304 -14.458  -5.532  0.00  0.00     0.255 A 
ATOM     13  C   UNL d   1      26.462 -14.840  -4.441  0.00  0.00     0.101 A 
ATOM     14  O   UNL d   1      28.149 -15.200  -6.016  0.00  0.00    -0.268 OA
ENDBRANCH   1   2
BRANCH   1  15
ATOM     15  N   UNL d   1      25.542 -15.048  -1.604  0.00  0.00    -0.399 N 
ATOM     16  C   UNL d   1      26.367 -14.413  -0.595  0.00  0.00     0.118 C 
ATOM     17  C   UNL d   1      27.613 -15.304  -0.600  0.00  0.00     0.022 C 
ATOM     18  C   UNL d   1      27.054 -16.699  -0.844  0.00  0.00     0.031 C 
ATOM     19  C   UNL d   1      25.765 -16.478  -1.647  0.00  0.00     0.112 C 
BRANCH  19  20
ATOM     20  C   UNL d   1      24.574 -17.180  -1.050  0.00  0.00    -0.036 C 
ATOM     21  C   UNL d   1      24.698 -18.475  -0.512  0.00  0.00     0.012 C 
ATOM     22  C   UNL d   1      23.575 -19.201  -0.145  0.00  0.00     0.037 C 
ATOM     23  C   UNL d   1      22.341 -18.572  -0.168  0.00  0.00     0.065 C 
ATOM     24  C   UNL d   1      22.225 -17.232  -0.520  0.00  0.00     0.037 C 
ATOM     25  C   UNL d   1      23.331 -16.548  -1.016  0.00  0.00     0.012 C 
BRANCH  23  26
ATOM     26  O   UNL d   1      21.202 -19.250   0.145  0.00  0.00    -0.361 OA
ATOM     27  H   UNL d   1      21.405 -19.890   0.848  0.00  0.00     0.217 HD
ENDBRANCH  23  26
ENDBRANCH  19  20
ENDBRANCH   1  15
TORSDOF 4
ENDMDL
MODEL 3
REMARK VINA RESULT:    -8.500      1.376      2.024
REMARK INTER + INTRA:         -10.502
REMARK INTER:                  -9.693
REMARK INTRA:                  -0.808
REMARK CONF_INDEPENDENT:        1.193
REMARK UNBOUND:                -0.808
REMARK  4 active torsions:
REMARK  status: ('A' for Active; 'I' for Inactive)
REMARK    1  A    between atoms: C_7  and  C_8 
REMARK    2  A    between atoms: C_8  and  N_9 
REMARK    3  A    between atoms: C_13  and  C_14 
REMARK    4  A    between atoms: C_17  and  O_18 
ROOT
ATOM      1  C   UNL d   1      26.005 -15.232  -2.360  0.00  0.00     0.175 C 
ENDROOT
BRANCH   1   2
ATOM      2  C   UNL d   1      27.203 -15.481  -3.256  0.00  0.00     0.033 A 
ATOM      3  N   UNL d   1      27.213 -14.993  -4.552  0.00  0.00    -0.344 N 
ATOM      4  C   UNL d   1      28.309 -15.143  -5.283  0.00  0.00     0.114 A 
ATOM      5  H   UNL d   1      26.428 -14.460  -4.921  0.00  0.00     0.167 HD
ATOM      6  C   UNL d   1      28.383 -14.452  -6.602  0.00  0.00     0.050 C 
ATOM      7  N   UNL d   1      29.383 -15.800  -4.851  0.00  0.00    -0.274 N 
ATOM      8  C   UNL d   1      29.567 -14.404  -7.235  0.00  0.00     0.012 C 
ATOM      9  C   UNL d   1      30.651 -15.244  -6.772  0.00  0.00    -0.046 C 
ATOM     10  C   UNL d   1      31.858 -15.433  -7.626  0.00  0.00     0.049 C 
ATOM     11  C   UNL d   1      30.521 -15.920  -5.625  0.00  0.00     0.108 C 
ATOM     12  C   UNL d   1      29.438 -16.382  -3.574  0.00  0.00     0.255 A 
ATOM     13  C   UNL d   1      28.252 -16.170  -2.804  0.00  0.00     0.101 A 
ATOM     14  O   UNL d   1      30.420 -16.970  -3.140  0.00  0.00    -0.268 OA
ENDBRANCH   1   2
BRANCH   1  15
ATOM     15  N   UNL d   1      26.093 -15.832  -1.046  0.00  0.00    -0.399 N 
ATOM     16  C   UNL d   1      26.655 -15.306   0.182  0.00  0.00     0.118 C 
ATOM     17  C   UNL d   1      27.443 -16.510   0.709  0.00  0.00     0.022 C 
ATOM     18  C   UNL d   1      26.581 -17.700   0.317  0.00  0.00     0.031 C 
ATOM     19  C   UNL d   1      25.825 -17.250  -0.941  0.00  0.00     0.112 C 
BRANCH  19  20
ATOM     20  C   UNL d   1      24.338 -17.465  -0.841  0.00  0.00    -0.036 C 
ATOM     21  C   UNL d   1      23.809 -18.756  -0.653  0.00  0.00     0.012 C 
ATOM     22  C   UNL d   1      22.446 -18.986  -0.759  0.00  0.00     0.037 C 
ATOM     23  C   UNL d   1      21.598 -17.900  -0.894  0.00  0.00     0.065 C 
ATOM     24  C   UNL d   1      22.091 -16.600  -0.894  0.00  0.00     0.037 C 
ATOM     25  C   UNL d   1      23.465 -16.380  -0.924  0.00  0.00     0.012 C 
BRANCH  23  26
ATOM     26  O   UNL d   1      20.255 -18.072  -1.042  0.00  0.00    -0.361 OA
ATOM     27  H   UNL d   1      19.937 -17.458  -1.725  0.00  0.00     0.217 HD
ENDBRANCH  23  26
ENDBRANCH  19  20
ENDBRANCH   1  15
TORSDOF 4
ENDMDL
MODEL 4
REMARK VINA RESULT:    -8.404      2.628      3.598
REMARK INTER + INTRA:         -10.339
REMARK INTER:                  -9.597
REMARK INTRA:                  -0.741
REMARK CONF_INDEPENDENT:        1.193
REMARK UNBOUND:                -0.741
REMARK  4 active torsions:
REMARK  status: ('A' for Active; 'I' for Inactive)
REMARK    1  A    between atoms: C_7  and  C_8 
REMARK    2  A    between atoms: C_8  and  N_9 
REMARK    3  A    between atoms: C_13  and  C_14 
REMARK    4  A    between atoms: C_17  and  O_18 
ROOT
ATOM      1  C   UNL d   1      25.830 -16.129  -3.041  0.00  0.00     0.175 C 
ENDROOT
BRANCH   1   2
ATOM      2  C   UNL d   1      26.154 -14.785  -3.662  0.00  0.00     0.033 A 
ATOM      3  N   UNL d   1      27.089 -14.698  -4.680  0.00  0.00    -0.344 N 
ATOM      4  C   UNL d   1      27.286 -13.526  -5.269  0.00  0.00     0.114 A 
ATOM      5  H   UNL d   1      27.568 -15.526  -5.029  0.00  0.00     0.167 HD
ATOM      6  C   UNL d   1      28.148 -13.478  -6.484  0.00  0.00     0.050 C 
ATOM      7  N   UNL d   1      26.670 -12.410  -4.885  0.00  0.00    -0.274 N 
ATOM      8  C   UNL d   1      28.161 -12.353  -7.217  0.00  0.00     0.012 C 
ATOM      9  C   UNL d   1      27.573 -11.148  -6.673  0.00  0.00    -0.046 C 
ATOM     10  C   UNL d   1      27.838  -9.834  -7.326  0.00  0.00     0.049 C 
ATOM     11  C   UNL d   1      26.875 -11.208  -5.534  0.00  0.00     0.108 C 
ATOM     12  C   UNL d   1      25.753 -12.393  -3.822  0.00  0.00     0.255 A 
ATOM     13  C   UNL d   1      25.543 -13.679  -3.234  0.00  0.00     0.101 A 
ATOM     14  O   UNL d   1      25.153 -11.387  -3.462  0.00  0.00    -0.268 OA
ENDBRANCH   1   2
BRANCH   1  15
ATOM     15  N   UNL d   1      25.878 -16.159  -1.595  0.00  0.00    -0.399 N 
ATOM     16  C   UNL d   1      26.356 -15.161  -0.658  0.00  0.00     0.118 C 
ATOM     17  C   UNL d   1      27.167 -16.015   0.323  0.00  0.00     0.022 C 
ATOM     18  C   UNL d   1      26.374 -17.311   0.409  0.00  0.00     0.031 C 
ATOM     19  C   UNL d   1      25.664 -17.435  -0.946  0.00  0.00     0.112 C 
BRANCH  19  20
ATOM     20  C   UNL d   1      24.184 -17.678  -0.812  0.00  0.00    -0.036 C 
ATOM     21  C   UNL d   1      23.689 -18.966  -0.531  0.00  0.00     0.012 C 
ATOM     22  C   UNL d   1      22.331 -19.235  -0.604  0.00  0.00     0.037 C 
ATOM     23  C   UNL d   1      21.455 -18.181  -0.801  0.00  0.00     0.065 C 
ATOM     24  C   UNL d   1      21.915 -16.873  -0.895  0.00  0.00     0.037 C 
ATOM     25  C   UNL d   1      23.283 -16.623  -0.957  0.00  0.00     0.012 C 
BRANCH  23  26
ATOM     26  O   UNL d   1      20.115 -18.394  -0.919  0.00  0.00    -0.361 OA
ATOM     27  H   UNL d   1      19.770 -17.819  -1.623  0.00  0.00     0.217 HD
ENDBRANCH  23  26
ENDBRANCH  19  20
ENDBRANCH   1  15
TORSDOF 4
ENDMDL
MODEL 5
REMARK VINA RESULT:    -8.327      3.405      6.464
REMARK INTER + INTRA:         -10.301
REMARK INTER:                  -9.520
REMARK INTRA:                  -0.781
REMARK CONF_INDEPENDENT:        1.193
REMARK UNBOUND:                -0.781
REMARK  4 active torsions:
REMARK  status: ('A' for Active; 'I' for Inactive)
REMARK    1  A    between atoms: C_7  and  C_8 
REMARK    2  A    between atoms: C_8  and  N_9 
REMARK    3  A    between atoms: C_13  and  C_14 
REMARK    4  A    between atoms: C_17  and  O_18 
ROOT
ATOM      1  C   UNL d   1      27.640 -16.171  -0.125  0.00  0.00     0.175 C 
ENDROOT
BRANCH   1   2
ATOM      2  C   UNL d   1      27.593 -15.050   0.895  0.00  0.00     0.033 A 
ATOM      3  N   UNL d   1      27.780 -15.326   2.239  0.00  0.00    -0.344 N 
ATOM      4  C   UNL d   1      27.827 -14.317   3.098  0.00  0.00     0.114 A 
ATOM      5  H   UNL d   1      27.955 -16.275   2.563  0.00  0.00     0.167 HD
ATOM      6  C   UNL d   1      28.217 -14.603   4.508  0.00  0.00     0.050 C 
ATOM      7  N   UNL d   1      27.639 -13.049   2.738  0.00  0.00    -0.274 N 
ATOM      8  C   UNL d   1      28.495 -13.569   5.318  0.00  0.00     0.012 C 
ATOM      9  C   UNL d   1      28.147 -12.228   4.899  0.00  0.00    -0.046 C 
ATOM     10  C   UNL d   1      28.167 -11.113   5.889  0.00  0.00     0.049 C 
ATOM     11  C   UNL d   1      27.718 -12.016   3.650  0.00  0.00     0.108 C 
ATOM     12  C   UNL d   1      27.381 -12.683   1.406  0.00  0.00     0.255 A 
ATOM     13  C   UNL d   1      27.372 -13.793   0.505  0.00  0.00     0.101 A 
ATOM     14  O   UNL d   1      27.229 -11.524   1.041  0.00  0.00    -0.268 OA
ENDBRANCH   1   2
BRANCH   1  15
ATOM     15  N   UNL d   1      26.833 -15.955  -1.306  0.00  0.00    -0.399 N 
ATOM     16  C   UNL d   1      27.211 -15.950  -2.705  0.00  0.00     0.118 C 
ATOM     17  C   UNL d   1      26.470 -14.714  -3.227  0.00  0.00     0.022 C 
ATOM     18  C   UNL d   1      25.166 -14.722  -2.442  0.00  0.00     0.031 C 
ATOM     19  C   UNL d   1      25.503 -15.416  -1.116  0.00  0.00     0.112 C 
BRANCH  19  20
ATOM     20  C   UNL d   1      24.558 -16.541  -0.785  0.00  0.00    -0.036 C 
ATOM     21  C   UNL d   1      25.047 -17.826  -0.485  0.00  0.00     0.012 C 
ATOM     22  C   UNL d   1      24.184 -18.906  -0.376  0.00  0.00     0.037 C 
ATOM     23  C   UNL d   1      22.820 -18.672  -0.411  0.00  0.00     0.065 C 
ATOM     24  C   UNL d   1      22.316 -17.381  -0.520  0.00  0.00     0.037 C 
ATOM     25  C   UNL d   1      23.181 -16.318  -0.765  0.00  0.00     0.012 C 
BRANCH  23  26
ATOM     26  O   UNL d   1      21.929 -19.700  -0.348  0.00  0.00    -0.361 OA
ATOM     27  H   UNL d   1      22.020 -20.137   0.516  0.00  0.00     0.217 HD
ENDBRANCH  23  26
ENDBRANCH  19  20
ENDBRANCH   1  15
TORSDOF 4
ENDMDL
MODEL 6
REMARK VINA RESULT:    -8.313      2.171      6.490
REMARK INTER + INTRA:         -11.144
REMARK INTER:                  -9.507
REMARK INTRA:                  -1.638
REMARK CONF_INDEPENDENT:        1.193
REMARK UNBOUND:                -1.638
REMARK  4 active torsions:
REMARK  status: ('A' for Active; 'I' for Inactive)
REMARK    1  A    between atoms: C_7  and  C_8 
REMARK    2  A    between atoms: C_8  and  N_9 
REMARK    3  A    between atoms: C_13  and  C_14 
REMARK    4  A    between atoms: C_17  and  O_18 
ROOT
ATOM      1  C   UNL d   1      29.368 -15.949  -1.636  0.00  0.00     0.175 C 
ENDROOT
BRANCH   1   2
ATOM      2  C   UNL d   1      28.093 -16.543  -1.069  0.00  0.00     0.033 A 
ATOM      3  N   UNL d   1      26.864 -16.011  -1.421  0.00  0.00    -0.344 N 
ATOM      4  C   UNL d   1      25.762 -16.606  -0.985  0.00  0.00     0.114 A 
ATOM      5  H   UNL d   1      26.794 -15.224  -2.063  0.00  0.00     0.167 HD
ATOM      6  C   UNL d   1      24.448 -16.146  -1.520  0.00  0.00     0.050 C 
ATOM      7  N   UNL d   1      25.780 -17.658  -0.170  0.00  0.00    -0.274 N 
ATOM      8  C   UNL d   1      23.359 -16.891  -1.270  0.00  0.00     0.012 C 
ATOM      9  C   UNL d   1      23.432 -17.941  -0.278  0.00  0.00    -0.046 C 
ATOM     10  C   UNL d   1      22.180 -18.571   0.230  0.00  0.00     0.049 C 
ATOM     11  C   UNL d   1      24.617 -18.274   0.248  0.00  0.00     0.108 C 
ATOM     12  C   UNL d   1      26.981 -18.225   0.288  0.00  0.00     0.255 A 
ATOM     13  C   UNL d   1      28.146 -17.578  -0.230  0.00  0.00     0.101 A 
ATOM     14  O   UNL d   1      27.030 -19.207   1.018  0.00  0.00    -0.268 OA
ENDBRANCH   1   2
BRANCH   1  15
ATOM     15  N   UNL d   1      29.470 -15.993  -3.079  0.00  0.00    -0.399 N 
ATOM     16  C   UNL d   1      29.945 -17.052  -3.948  0.00  0.00     0.118 C 
ATOM     17  C   UNL d   1      30.824 -16.278  -4.936  0.00  0.00     0.022 C 
ATOM     18  C   UNL d   1      30.085 -14.960  -5.115  0.00  0.00     0.031 C 
ATOM     19  C   UNL d   1      29.329 -14.743  -3.797  0.00  0.00     0.112 C 
BRANCH  19  20
ATOM     20  C   UNL d   1      27.866 -14.454  -4.000  0.00  0.00    -0.036 C 
ATOM     21  C   UNL d   1      27.262 -13.338  -3.390  0.00  0.00     0.012 C 
ATOM     22  C   UNL d   1      25.885 -13.178  -3.409  0.00  0.00     0.037 C 
ATOM     23  C   UNL d   1      25.126 -14.048  -4.175  0.00  0.00     0.065 C 
ATOM     24  C   UNL d   1      25.726 -15.045  -4.936  0.00  0.00     0.037 C 
ATOM     25  C   UNL d   1      27.091 -15.287  -4.807  0.00  0.00     0.012 C 
BRANCH  23  26
ATOM     26  O   UNL d   1      23.767 -13.960  -4.198  0.00  0.00    -0.361 OA
ATOM     27  H   UNL d   1      23.499 -13.515  -5.020  0.00  0.00     0.217 HD
ENDBRANCH  23  26
ENDBRANCH  19  20
ENDBRANCH   1  15
TORSDOF 4
ENDMDL
MODEL 7
REMARK VINA RESULT:    -8.180      2.012      2.060
REMARK INTER + INTRA:         -10.228
REMARK INTER:                  -9.373
REMARK INTRA:                  -0.855
REMARK CONF_INDEPENDENT:        1.193
REMARK UNBOUND:                -0.855
REMARK  4 active torsions:
REMARK  status: ('A' for Active; 'I' for Inactive)
REMARK    1  A    between atoms: C_7  and  C_8 
REMARK    2  A    between atoms: C_8  and  N_9 
REMARK    3  A    between atoms: C_13  and  C_14 
REMARK    4  A    between atoms: C_17  and  O_18 
ROOT
ATOM      1  C   UNL d   1      26.033 -14.608  -1.015  0.00  0.00     0.175 C 
ENDROOT
BRANCH   1   2
ATOM      2  C   UNL d   1      26.617 -14.485  -2.409  0.00  0.00     0.033 A 
ATOM      3  N   UNL d   1      27.757 -13.728  -2.619  0.00  0.00    -0.344 N 
ATOM      4  C   UNL d   1      28.300 -13.712  -3.829  0.00  0.00     0.114 A 
ATOM      5  H   UNL d   1      28.221 -13.249  -1.850  0.00  0.00     0.167 HD
ATOM      6  C   UNL d   1      29.626 -13.054  -4.003  0.00  0.00     0.050 C 
ATOM      7  N   UNL d   1      27.764 -14.341  -4.872  0.00  0.00    -0.274 N 
ATOM      8  C   UNL d   1      30.286 -13.238  -5.158  0.00  0.00     0.012 C 
ATOM      9  C   UNL d   1      29.591 -13.822  -6.284  0.00  0.00    -0.046 C 
ATOM     10  C   UNL d   1      30.199 -13.759  -7.644  0.00  0.00     0.049 C 
ATOM     11  C   UNL d   1      28.365 -14.329  -6.115  0.00  0.00     0.108 C 
ATOM     12  C   UNL d   1      26.575 -15.082  -4.764  0.00  0.00     0.255 A 
ATOM     13  C   UNL d   1      26.038 -15.103  -3.440  0.00  0.00     0.101 A 
ATOM     14  O   UNL d   1      26.072 -15.691  -5.700  0.00  0.00    -0.268 OA
ENDBRANCH   1   2
BRANCH   1  15
ATOM     15  N   UNL d   1      26.261 -15.883  -0.370  0.00  0.00    -0.399 N 
ATOM     16  C   UNL d   1      27.030 -16.202   0.817  0.00  0.00     0.118 C 
ATOM     17  C   UNL d   1      27.793 -17.454   0.371  0.00  0.00     0.022 C 
ATOM     18  C   UNL d   1      26.796 -18.181  -0.520  0.00  0.00     0.031 C 
ATOM     19  C   UNL d   1      25.905 -17.077  -1.107  0.00  0.00     0.112 C 
BRANCH  19  20
ATOM     20  C   UNL d   1      24.436 -17.350  -0.924  0.00  0.00    -0.036 C 
ATOM     21  C   UNL d   1      23.974 -18.654  -0.662  0.00  0.00     0.012 C 
ATOM     22  C   UNL d   1      22.618 -18.944  -0.690  0.00  0.00     0.037 C 
ATOM     23  C   UNL d   1      21.718 -17.901  -0.822  0.00  0.00     0.065 C 
ATOM     24  C   UNL d   1      22.153 -16.582  -0.895  0.00  0.00     0.037 C 
ATOM     25  C   UNL d   1      23.513 -16.307  -1.003  0.00  0.00     0.012 C 
BRANCH  23  26
ATOM     26  O   UNL d   1      20.378 -18.134  -0.895  0.00  0.00    -0.361 OA
ATOM     27  H   UNL d   1      19.977 -17.459  -1.468  0.00  0.00     0.217 HD
ENDBRANCH  23  26
ENDBRANCH  19  20
ENDBRANCH   1  15
TORSDOF 4
ENDMDL
MODEL 8
REMARK VINA RESULT:    -8.152      4.312      7.196
REMARK INTER + INTRA:         -10.276
REMARK INTER:                  -9.345
REMARK INTRA:                  -0.931
REMARK CONF_INDEPENDENT:        1.193
REMARK UNBOUND:                -0.931
REMARK  4 active torsions:
REMARK  status: ('A' for Active; 'I' for Inactive)
REMARK    1  A    between atoms: C_7  and  C_8 
REMARK    2  A    between atoms: C_8  and  N_9 
REMARK    3  A    between atoms: C_13  and  C_14 
REMARK    4  A    between atoms: C_17  and  O_18 
ROOT
ATOM      1  C   UNL d   1      26.760 -13.906   0.394  0.00  0.00     0.175 C 
ENDROOT
BRANCH   1   2
ATOM      2  C   UNL d   1      27.081 -13.483   1.814  0.00  0.00     0.033 A 
ATOM      3  N   UNL d   1      27.409 -14.436   2.764  0.00  0.00    -0.344 N 
ATOM      4  C   UNL d   1      27.775 -14.033   3.973  0.00  0.00     0.114 A 
ATOM      5  H   UNL d   1      27.445 -15.425   2.528  0.00  0.00     0.167 HD
ATOM      6  C   UNL d   1      28.308 -15.047   4.928  0.00  0.00     0.050 C 
ATOM      7  N   UNL d   1      27.782 -12.753   4.340  0.00  0.00    -0.274 N 
ATOM      8  C   UNL d   1      28.897 -14.617   6.056  0.00  0.00     0.012 C 
ATOM      9  C   UNL d   1      28.754 -13.231   6.445  0.00  0.00    -0.046 C 
ATOM     10  C   UNL d   1      29.134 -12.804   7.822  0.00  0.00     0.049 C 
ATOM     11  C   UNL d   1      28.193 -12.361   5.598  0.00  0.00     0.108 C 
ATOM     12  C   UNL d   1      27.405 -11.725   3.461  0.00  0.00     0.255 A 
ATOM     13  C   UNL d   1      27.049 -12.195   2.158  0.00  0.00     0.101 A 
ATOM     14  O   UNL d   1      27.425 -10.538   3.761  0.00  0.00    -0.268 OA
ENDBRANCH   1   2
BRANCH   1  15
ATOM     15  N   UNL d   1      27.334 -15.172  -0.008  0.00  0.00    -0.399 N 
ATOM     16  C   UNL d   1      28.560 -15.817   0.420  0.00  0.00     0.118 C 
ATOM     17  C   UNL d   1      29.143 -16.301  -0.913  0.00  0.00     0.022 C 
ATOM     18  C   UNL d   1      27.914 -16.700  -1.716  0.00  0.00     0.031 C 
ATOM     19  C   UNL d   1      26.781 -15.812  -1.183  0.00  0.00     0.112 C 
BRANCH  19  20
ATOM     20  C   UNL d   1      25.558 -16.595  -0.788  0.00  0.00    -0.036 C 
ATOM     21  C   UNL d   1      25.668 -17.742   0.021  0.00  0.00     0.012 C 
ATOM     22  C   UNL d   1      24.578 -18.575   0.223  0.00  0.00     0.037 C 
ATOM     23  C   UNL d   1      23.341 -18.176  -0.254  0.00  0.00     0.065 C 
ATOM     24  C   UNL d   1      23.178 -16.954  -0.895  0.00  0.00     0.037 C 
ATOM     25  C   UNL d   1      24.294 -16.185  -1.214  0.00  0.00     0.012 C 
BRANCH  23  26
ATOM     26  O   UNL d   1      22.245 -18.974  -0.118  0.00  0.00    -0.361 OA
ATOM     27  H   UNL d   1      22.531 -19.835   0.233  0.00  0.00     0.217 HD
ENDBRANCH  23  26
ENDBRANCH  19  20
ENDBRANCH   1  15
TORSDOF 4
ENDMDL
MODEL 9
REMARK VINA RESULT:    -7.813      4.336      7.026
REMARK INTER + INTRA:         -10.250
REMARK INTER:                  -9.006
REMARK INTRA:                  -1.244
REMARK CONF_INDEPENDENT:        1.193
REMARK UNBOUND:                -1.244
REMARK  4 active torsions:
REMARK  status: ('A' for Active; 'I' for Inactive)
REMARK    1  A    between atoms: C_7  and  C_8 
REMARK    2  A    between atoms: C_8  and  N_9 
REMARK    3  A    between atoms: C_13  and  C_14 
REMARK    4  A    between atoms: C_17  and  O_18 
ROOT
ATOM      1  C   UNL d   1      29.160 -14.136   1.490  0.00  0.00     0.175 C 
ENDROOT
BRANCH   1   2
ATOM      2  C   UNL d   1      28.054 -14.796   0.690  0.00  0.00     0.033 A 
ATOM      3  N   UNL d   1      27.743 -16.129   0.904  0.00  0.00    -0.344 N 
ATOM      4  C   UNL d   1      26.712 -16.656   0.259  0.00  0.00     0.114 A 
ATOM      5  H   UNL d   1      28.242 -16.682   1.598  0.00  0.00     0.167 HD
ATOM      6  C   UNL d   1      26.266 -18.028   0.634  0.00  0.00     0.050 C 
ATOM      7  N   UNL d   1      25.997 -15.981  -0.638  0.00  0.00    -0.274 N 
ATOM      8  C   UNL d   1      25.091 -18.473   0.160  0.00  0.00     0.012 C 
ATOM      9  C   UNL d   1      24.436 -17.742  -0.903  0.00  0.00    -0.046 C 
ATOM     10  C   UNL d   1      23.304 -18.367  -1.645  0.00  0.00     0.049 C 
ATOM     11  C   UNL d   1      24.912 -16.548  -1.277  0.00  0.00     0.108 C 
ATOM     12  C   UNL d   1      26.280 -14.645  -0.964  0.00  0.00     0.255 A 
ATOM     13  C   UNL d   1      27.376 -14.101  -0.224  0.00  0.00     0.101 A 
ATOM     14  O   UNL d   1      25.624 -13.991  -1.766  0.00  0.00    -0.268 OA
ENDBRANCH   1   2
BRANCH   1  15
ATOM     15  N   UNL d   1      28.889 -14.000   2.905  0.00  0.00    -0.399 N 
ATOM     16  C   UNL d   1      29.702 -14.367   4.049  0.00  0.00     0.118 C 
ATOM     17  C   UNL d   1      28.673 -15.039   4.964  0.00  0.00     0.022 C 
ATOM     18  C   UNL d   1      27.405 -14.229   4.731  0.00  0.00     0.031 C 
ATOM     19  C   UNL d   1      27.530 -13.693   3.299  0.00  0.00     0.112 C 
BRANCH  19  20
ATOM     20  C   UNL d   1      27.314 -12.207   3.206  0.00  0.00    -0.036 C 
ATOM     21  C   UNL d   1      27.780 -11.348   4.220  0.00  0.00     0.012 C 
ATOM     22  C   UNL d   1      27.414 -10.011   4.241  0.00  0.00     0.037 C 
ATOM     23  C   UNL d   1      26.714  -9.497   3.163  0.00  0.00     0.065 C 
ATOM     24  C   UNL d   1      26.406 -10.290   2.063  0.00  0.00     0.037 C 
ATOM     25  C   UNL d   1      26.655 -11.659   2.105  0.00  0.00     0.012 C 
BRANCH  23  26
ATOM     26  O   UNL d   1      26.295  -8.201   3.150  0.00  0.00    -0.361 OA
ATOM     27  H   UNL d   1      26.910  -7.682   2.605  0.00  0.00     0.217 HD
ENDBRANCH  23  26
ENDBRANCH  19  20
ENDBRANCH   1  15
TORSDOF 4
ENDMDL
