MODEL 1
REMARK VINA RESULT:    -9.601      0.000      0.000
REMARK INTER + INTRA:         -15.043
REMARK INTER:                 -12.584
REMARK INTRA:                  -2.459
REMARK CONF_INDEPENDENT:        2.983
REMARK UNBOUND:                -2.459
REMARK  10 active torsions:
REMARK  status: ('A' for Active; 'I' for Inactive)
REMARK    1  A    between atoms: C_2  and  C_3 
REMARK    2  A    between atoms: C_3  and  C_4 
REMARK       I    between atoms: C_4  and  N_6 
REMARK    3  A    between atoms: N_6  and  C_7 
REMARK    4  A    between atoms: C_10  and  C_11 
REMARK       I    between atoms: C_11  and  N_13 
REMARK    5  A    between atoms: N_13  and  N_14 
REMARK    6  A    between atoms: N_14  and  C_15 
REMARK    7  A    between atoms: C_15  and  N_17 
REMARK       I    between atoms: N_17  and  C_18 
REMARK    8  A    between atoms: C_18  and  C_20 
REMARK    9  A    between atoms: C_24  and  C_25 
REMARK   10  A    between atoms: C_25  and  O_27 
ROOT
ATOM      1  N   UNL d   1      30.246 -17.809  -0.610  0.00  0.00    -0.273 N 
ATOM      2  H   UNL d   1      30.741 -18.099   0.230  0.00  0.00     0.189 HD
ENDROOT
BRANCH   1   3
ATOM      3  N   UNL d   1      28.795 -17.890  -0.525  0.00  0.00    -0.264 N 
ATOM      4  C   UNL d   1      27.965 -16.775  -0.609  0.00  0.00     0.270 C 
ATOM      5  O   UNL d   1      28.416 -15.644  -0.777  0.00  0.00    -0.266 OA
ATOM      6  H   UNL d   1      28.448 -18.831  -0.357  0.00  0.00     0.190 HD
BRANCH   4   7
ATOM      7  C   UNL d   1      26.459 -16.989  -0.458  0.00  0.00     0.033 A 
ATOM      8  C   UNL d   1      25.968 -17.888   0.513  0.00  0.00     0.019 A 
ATOM      9  C   UNL d   1      24.586 -18.205   0.611  0.00  0.00     0.030 A 
ATOM     10  C   UNL d   1      23.663 -17.597  -0.241  0.00  0.00     0.034 A 
ATOM     11  C   UNL d   1      24.145 -16.675  -1.174  0.00  0.00     0.030 A 
ATOM     12  C   UNL d   1      25.513 -16.366  -1.278  0.00  0.00     0.019 A 
BRANCH  10  13
ATOM     13  N   UNL d   1      22.269 -17.862  -0.146  0.00  0.00    -0.327 N 
ATOM     14  C   UNL d   1      21.613 -18.683  -1.059  0.00  0.00     0.222 C 
ATOM     15  O   UNL d   1      22.193 -19.303  -1.950  0.00  0.00    -0.273 OA
ATOM     16  H   UNL d   1      21.777 -17.552   0.684  0.00  0.00     0.169 HD
BRANCH  14  17
ATOM     17  C   UNL d   1      20.103 -18.819  -0.876  0.00  0.00     0.103 C 
BRANCH  17  18
ATOM     18  C   UNL d   1      19.801 -20.029   0.025  0.00  0.00     0.005 C 
ATOM     19  C   UNL d   1      19.857 -19.698   1.505  0.00  0.00     0.005 C 
ENDBRANCH  17  18
ENDBRANCH  14  17
ENDBRANCH  10  13
ENDBRANCH   4   7
ENDBRANCH   1   3
BRANCH   1  20
ATOM     20  C   UNL d   1      30.822 -17.340  -1.808  0.00  0.00     0.193 C 
ATOM     21  S   UNL d   1      32.390 -17.828  -2.218  0.00  0.00    -0.039 SA
BRANCH  20  22
ATOM     22  N   UNL d   1      30.014 -16.476  -2.586  0.00  0.00    -0.298 N 
ATOM     23  C   UNL d   1      29.626 -16.681  -3.932  0.00  0.00     0.257 C 
ATOM     24  O   UNL d   1      29.951 -17.644  -4.623  0.00  0.00    -0.267 OA
ATOM     25  H   UNL d   1      29.634 -15.660  -2.127  0.00  0.00     0.171 HD
BRANCH  23  26
ATOM     26  C   UNL d   1      28.766 -15.688  -4.647  0.00  0.00     0.033 A 
ATOM     27  C   UNL d   1      29.356 -14.934  -5.686  0.00  0.00     0.017 A 
ATOM     28  C   UNL d   1      28.707 -13.820  -6.228  0.00  0.00     0.002 A 
ATOM     29  C   UNL d   1      27.435 -13.479  -5.776  0.00  0.00     0.017 A 
ATOM     30  C   UNL d   1      26.834 -14.209  -4.735  0.00  0.00     0.040 A 
ATOM     31  C   UNL d   1      27.507 -15.314  -4.167  0.00  0.00     0.034 A 
BRANCH  30  32
ATOM     32  C   UNL d   1      25.512 -13.736  -4.233  0.00  0.00     0.292 C 
ATOM     33  O   UNL d   1      24.510 -14.445  -4.205  0.00  0.00    -0.259 OA
BRANCH  32  34
ATOM     34  O   UNL d   1      25.574 -12.446  -3.826  0.00  0.00    -0.323 OA
ATOM     35  C   UNL d   1      26.490 -12.212  -2.750  0.00  0.00     0.213 C 
ENDBRANCH  32  34
ENDBRANCH  30  32
ENDBRANCH  23  26
ENDBRANCH  20  22
ENDBRANCH   1  20
TORSDOF 10
ENDMDL
MODEL 2
REMARK VINA RESULT:    -9.120      1.959      2.828
REMARK INTER + INTRA:         -14.467
REMARK INTER:                 -12.103
REMARK INTRA:                  -2.364
REMARK CONF_INDEPENDENT:        2.983
REMARK UNBOUND:                -2.364
REMARK  10 active torsions:
REMARK  status: ('A' for Active; 'I' for Inactive)
REMARK    1  A    between atoms: C_2  and  C_3 
REMARK    2  A    between atoms: C_3  and  C_4 
REMARK       I    between atoms: C_4  and  N_6 
REMARK    3  A    between atoms: N_6  and  C_7 
REMARK    4  A    between atoms: C_10  and  C_11 
REMARK       I    between atoms: C_11  and  N_13 
REMARK    5  A    between atoms: N_13  and  N_14 
REMARK    6  A    between atoms: N_14  and  C_15 
REMARK    7  A    between atoms: C_15  and  N_17 
REMARK       I    between atoms: N_17  and  C_18 
REMARK    8  A    between atoms: C_18  and  C_20 
REMARK    9  A    between atoms: C_24  and  C_25 
REMARK   10  A    between atoms: C_25  and  O_27 
ROOT
ATOM      1  N   UNL d   1      29.925 -15.544   0.986  0.00  0.00    -0.273 N 
ATOM      2  H   UNL d   1      30.506 -16.044   1.654  0.00  0.00     0.189 HD
ENDROOT
BRANCH   1   3
ATOM      3  N   UNL d   1      28.527 -15.950   0.965  0.00  0.00    -0.264 N 
ATOM      4  C   UNL d   1      27.914 -16.508  -0.155  0.00  0.00     0.270 C 
ATOM      5  O   UNL d   1      28.531 -16.705  -1.199  0.00  0.00    -0.266 OA
ATOM      6  H   UNL d   1      28.030 -15.750   1.830  0.00  0.00     0.190 HD
BRANCH   4   7
ATOM      7  C   UNL d   1      26.427 -16.848  -0.062  0.00  0.00     0.033 A 
ATOM      8  C   UNL d   1      26.016 -18.074   0.506  0.00  0.00     0.019 A 
ATOM      9  C   UNL d   1      24.656 -18.482   0.507  0.00  0.00     0.030 A 
ATOM     10  C   UNL d   1      23.671 -17.650  -0.030  0.00  0.00     0.034 A 
ATOM     11  C   UNL d   1      24.073 -16.419  -0.554  0.00  0.00     0.030 A 
ATOM     12  C   UNL d   1      25.421 -16.016  -0.563  0.00  0.00     0.019 A 
BRANCH  10  13
ATOM     13  N   UNL d   1      22.295 -18.010  -0.012  0.00  0.00    -0.327 N 
ATOM     14  C   UNL d   1      21.731 -18.806  -1.004  0.00  0.00     0.222 C 
ATOM     15  O   UNL d   1      22.385 -19.324  -1.909  0.00  0.00    -0.273 OA
ATOM     16  H   UNL d   1      21.754 -17.790   0.815  0.00  0.00     0.169 HD
BRANCH  14  17
ATOM     17  C   UNL d   1      20.228 -19.051  -0.894  0.00  0.00     0.103 C 
BRANCH  17  18
ATOM     18  C   UNL d   1      19.927 -19.838   0.393  0.00  0.00     0.005 C 
ATOM     19  C   UNL d   1      18.672 -20.685   0.293  0.00  0.00     0.005 C 
ENDBRANCH  17  18
ENDBRANCH  14  17
ENDBRANCH  10  13
ENDBRANCH   4   7
ENDBRANCH   1   3
BRANCH   1  20
ATOM     20  C   UNL d   1      30.338 -14.518   0.111  0.00  0.00     0.193 C 
ATOM     21  S   UNL d   1      31.781 -13.692   0.428  0.00  0.00    -0.039 SA
BRANCH  20  22
ATOM     22  N   UNL d   1      29.482 -14.260  -0.987  0.00  0.00    -0.298 N 
ATOM     23  C   UNL d   1      28.611 -13.153  -1.126  0.00  0.00     0.257 C 
ATOM     24  O   UNL d   1      28.467 -12.257  -0.297  0.00  0.00    -0.267 OA
ATOM     25  H   UNL d   1      29.530 -14.897  -1.770  0.00  0.00     0.171 HD
BRANCH  23  26
ATOM     26  C   UNL d   1      27.752 -12.994  -2.341  0.00  0.00     0.033 A 
ATOM     27  C   UNL d   1      26.887 -11.878  -2.393  0.00  0.00     0.017 A 
ATOM     28  C   UNL d   1      25.879 -11.791  -3.359  0.00  0.00     0.002 A 
ATOM     29  C   UNL d   1      25.759 -12.794  -4.318  0.00  0.00     0.017 A 
ATOM     30  C   UNL d   1      26.602 -13.918  -4.277  0.00  0.00     0.040 A 
ATOM     31  C   UNL d   1      27.598 -14.018  -3.280  0.00  0.00     0.034 A 
BRANCH  30  32
ATOM     32  C   UNL d   1      26.361 -14.999  -5.275  0.00  0.00     0.292 C 
ATOM     33  O   UNL d   1      25.291 -15.592  -5.381  0.00  0.00    -0.259 OA
BRANCH  32  34
ATOM     34  O   UNL d   1      27.466 -15.230  -6.026  0.00  0.00    -0.323 OA
ATOM     35  C   UNL d   1      28.110 -14.043  -6.502  0.00  0.00     0.213 C 
ENDBRANCH  32  34
ENDBRANCH  30  32
ENDBRANCH  23  26
ENDBRANCH  20  22
ENDBRANCH   1  20
TORSDOF 10
ENDMDL
MODEL 3
REMARK VINA RESULT:    -9.076      4.294      6.379
REMARK INTER + INTRA:         -13.958
REMARK INTER:                 -12.059
REMARK INTRA:                  -1.899
REMARK CONF_INDEPENDENT:        2.983
REMARK UNBOUND:                -1.899
REMARK  10 active torsions:
REMARK  status: ('A' for Active; 'I' for Inactive)
REMARK    1  A    between atoms: C_2  and  C_3 
REMARK    2  A    between atoms: C_3  and  C_4 
REMARK       I    between atoms: C_4  and  N_6 
REMARK    3  A    between atoms: N_6  and  C_7 
REMARK    4  A    between atoms: C_10  and  C_11 
REMARK       I    between atoms: C_11  and  N_13 
REMARK    5  A    between atoms: N_13  and  N_14 
REMARK    6  A    between atoms: N_14  and  C_15 
REMARK    7  A    between atoms: C_15  and  N_17 
REMARK       I    between atoms: N_17  and  C_18 
REMARK    8  A    between atoms: C_18  and  C_20 
REMARK    9  A    between atoms: C_24  and  C_25 
REMARK   10  A    between atoms: C_25  and  O_27 
ROOT
ATOM      1  N   UNL d   1      27.594 -14.638  -1.635  0.00  0.00    -0.273 N 
ATOM      2  H   UNL d   1      27.371 -14.137  -2.492  0.00  0.00     0.189 HD
ENDROOT
BRANCH   1   3
ATOM      3  N   UNL d   1      26.532 -15.501  -1.136  0.00  0.00    -0.264 N 
ATOM      4  C   UNL d   1      25.450 -15.903  -1.916  0.00  0.00     0.270 C 
ATOM      5  O   UNL d   1      25.336 -15.559  -3.090  0.00  0.00    -0.266 OA
ATOM      6  H   UNL d   1      26.634 -15.748  -0.155  0.00  0.00     0.190 HD
BRANCH   4   7
ATOM      7  C   UNL d   1      24.377 -16.771  -1.260  0.00  0.00     0.033 A 
ATOM      8  C   UNL d   1      24.669 -18.105  -0.902  0.00  0.00     0.019 A 
ATOM      9  C   UNL d   1      23.672 -18.982  -0.397  0.00  0.00     0.030 A 
ATOM     10  C   UNL d   1      22.366 -18.527  -0.206  0.00  0.00     0.034 A 
ATOM     11  C   UNL d   1      22.088 -17.194  -0.520  0.00  0.00     0.030 A 
ATOM     12  C   UNL d   1      23.072 -16.326  -1.027  0.00  0.00     0.019 A 
BRANCH  10  13
ATOM     13  N   UNL d   1      21.352 -19.366   0.333  0.00  0.00    -0.327 N 
ATOM     14  C   UNL d   1      20.319 -19.867  -0.453  0.00  0.00     0.222 C 
ATOM     15  O   UNL d   1      20.252 -19.699  -1.671  0.00  0.00    -0.273 OA
ATOM     16  H   UNL d   1      21.468 -19.711   1.279  0.00  0.00     0.169 HD
BRANCH  14  17
ATOM     17  C   UNL d   1      19.262 -20.694   0.275  0.00  0.00     0.103 C 
BRANCH  17  18
ATOM     18  C   UNL d   1      18.812 -19.952   1.545  0.00  0.00     0.005 C 
ATOM     19  C   UNL d   1      19.499 -20.452   2.802  0.00  0.00     0.005 C 
ENDBRANCH  17  18
ENDBRANCH  14  17
ENDBRANCH  10  13
ENDBRANCH   4   7
ENDBRANCH   1   3
BRANCH   1  20
ATOM     20  C   UNL d   1      28.805 -14.581  -0.916  0.00  0.00     0.193 C 
ATOM     21  S   UNL d   1      30.233 -15.102  -1.660  0.00  0.00    -0.039 SA
BRANCH  20  22
ATOM     22  N   UNL d   1      28.716 -14.080   0.405  0.00  0.00    -0.298 N 
ATOM     23  C   UNL d   1      27.532 -13.674   1.066  0.00  0.00     0.257 C 
ATOM     24  O   UNL d   1      26.406 -13.692   0.576  0.00  0.00    -0.267 OA
ATOM     25  H   UNL d   1      29.568 -14.052   0.948  0.00  0.00     0.171 HD
BRANCH  23  26
ATOM     26  C   UNL d   1      27.570 -13.157   2.470  0.00  0.00     0.033 A 
ATOM     27  C   UNL d   1      27.401 -11.768   2.664  0.00  0.00     0.017 A 
ATOM     28  C   UNL d   1      27.675 -11.174   3.901  0.00  0.00     0.002 A 
ATOM     29  C   UNL d   1      28.068 -11.970   4.973  0.00  0.00     0.017 A 
ATOM     30  C   UNL d   1      28.253 -13.353   4.798  0.00  0.00     0.040 A 
ATOM     31  C   UNL d   1      28.008 -13.944   3.539  0.00  0.00     0.034 A 
BRANCH  30  32
ATOM     32  C   UNL d   1      28.764 -14.135   5.961  0.00  0.00     0.292 C 
ATOM     33  O   UNL d   1      29.367 -15.198   5.845  0.00  0.00    -0.259 OA
BRANCH  32  34
ATOM     34  O   UNL d   1      28.472 -13.519   7.132  0.00  0.00    -0.323 OA
ATOM     35  C   UNL d   1      29.312 -13.908   8.225  0.00  0.00     0.213 C 
ENDBRANCH  32  34
ENDBRANCH  30  32
ENDBRANCH  23  26
ENDBRANCH  20  22
ENDBRANCH   1  20
TORSDOF 10
ENDMDL
MODEL 4
REMARK VINA RESULT:    -8.971      1.626      2.357
REMARK INTER + INTRA:         -14.044
REMARK INTER:                 -11.954
REMARK INTRA:                  -2.089
REMARK CONF_INDEPENDENT:        2.983
REMARK UNBOUND:                -2.089
REMARK  10 active torsions:
REMARK  status: ('A' for Active; 'I' for Inactive)
REMARK    1  A    between atoms: C_2  and  C_3 
REMARK    2  A    between atoms: C_3  and  C_4 
REMARK       I    between atoms: C_4  and  N_6 
REMARK    3  A    between atoms: N_6  and  C_7 
REMARK    4  A    between atoms: C_10  and  C_11 
REMARK       I    between atoms: C_11  and  N_13 
REMARK    5  A    between atoms: N_13  and  N_14 
REMARK    6  A    between atoms: N_14  and  C_15 
REMARK    7  A    between atoms: C_15  and  N_17 
REMARK       I    between atoms: N_17  and  C_18 
REMARK    8  A    between atoms: C_18  and  C_20 
REMARK    9  A    between atoms: C_24  and  C_25 
REMARK   10  A    between atoms: C_25  and  O_27 
ROOT
ATOM      1  N   UNL d   1      29.747 -16.161   0.543  0.00  0.00    -0.273 N 
ATOM      2  H   UNL d   1      29.926 -15.430   1.227  0.00  0.00     0.189 HD
ENDROOT
BRANCH   1   3
ATOM      3  N   UNL d   1      28.370 -16.632   0.495  0.00  0.00    -0.264 N 
ATOM      4  C   UNL d   1      27.532 -16.421  -0.598  0.00  0.00     0.270 C 
ATOM      5  O   UNL d   1      27.918 -15.830  -1.604  0.00  0.00    -0.266 OA
ATOM      6  H   UNL d   1      28.065 -17.091   1.350  0.00  0.00     0.190 HD
BRANCH   4   7
ATOM      7  C   UNL d   1      26.092 -16.924  -0.505  0.00  0.00     0.033 A 
ATOM      8  C   UNL d   1      25.023 -16.076  -0.868  0.00  0.00     0.019 A 
ATOM      9  C   UNL d   1      23.667 -16.460  -0.687  0.00  0.00     0.030 A 
ATOM     10  C   UNL d   1      23.355 -17.720  -0.173  0.00  0.00     0.034 A 
ATOM     11  C   UNL d   1      24.413 -18.575   0.146  0.00  0.00     0.030 A 
ATOM     12  C   UNL d   1      25.757 -18.193  -0.024  0.00  0.00     0.019 A 
BRANCH  10  13
ATOM     13  N   UNL d   1      22.009 -18.152  -0.014  0.00  0.00    -0.327 N 
ATOM     14  C   UNL d   1      21.360 -18.906  -0.988  0.00  0.00     0.222 C 
ATOM     15  O   UNL d   1      21.917 -19.326  -2.002  0.00  0.00    -0.273 OA
ATOM     16  H   UNL d   1      21.566 -18.018   0.887  0.00  0.00     0.169 HD
BRANCH  14  17
ATOM     17  C   UNL d   1      19.895 -19.236  -0.715  0.00  0.00     0.103 C 
BRANCH  17  18
ATOM     18  C   UNL d   1      19.786 -20.079   0.567  0.00  0.00     0.005 C 
ATOM     19  C   UNL d   1      18.452 -20.789   0.702  0.00  0.00     0.005 C 
ENDBRANCH  17  18
ENDBRANCH  14  17
ENDBRANCH  10  13
ENDBRANCH   4   7
ENDBRANCH   1   3
BRANCH   1  20
ATOM     20  C   UNL d   1      30.683 -16.736  -0.342  0.00  0.00     0.193 C 
ATOM     21  S   UNL d   1      31.972 -17.633   0.288  0.00  0.00    -0.039 SA
BRANCH  20  22
ATOM     22  N   UNL d   1      30.454 -16.504  -1.719  0.00  0.00    -0.298 N 
ATOM     23  C   UNL d   1      30.858 -17.342  -2.786  0.00  0.00     0.257 C 
ATOM     24  O   UNL d   1      31.482 -18.394  -2.663  0.00  0.00    -0.267 OA
ATOM     25  H   UNL d   1      29.908 -15.691  -1.968  0.00  0.00     0.171 HD
BRANCH  23  26
ATOM     26  C   UNL d   1      30.556 -16.984  -4.207  0.00  0.00     0.033 A 
ATOM     27  C   UNL d   1      31.571 -17.191  -5.168  0.00  0.00     0.017 A 
ATOM     28  C   UNL d   1      31.466 -16.653  -6.455  0.00  0.00     0.002 A 
ATOM     29  C   UNL d   1      30.320 -15.949  -6.814  0.00  0.00     0.017 A 
ATOM     30  C   UNL d   1      29.303 -15.722  -5.869  0.00  0.00     0.040 A 
ATOM     31  C   UNL d   1      29.428 -16.239  -4.561  0.00  0.00     0.034 A 
BRANCH  30  32
ATOM     32  C   UNL d   1      28.145 -14.882  -6.289  0.00  0.00     0.292 C 
ATOM     33  O   UNL d   1      28.221 -14.016  -7.156  0.00  0.00    -0.259 OA
BRANCH  32  34
ATOM     34  O   UNL d   1      27.028 -15.201  -5.592  0.00  0.00    -0.323 OA
ATOM     35  C   UNL d   1      26.490 -14.123  -4.818  0.00  0.00     0.213 C 
ENDBRANCH  32  34
ENDBRANCH  30  32
ENDBRANCH  23  26
ENDBRANCH  20  22
ENDBRANCH   1  20
TORSDOF 10
ENDMDL
MODEL 5
REMARK VINA RESULT:    -8.944      4.488      6.088
REMARK INTER + INTRA:         -13.820
REMARK INTER:                 -11.927
REMARK INTRA:                  -1.892
REMARK CONF_INDEPENDENT:        2.983
REMARK UNBOUND:                -1.892
REMARK  10 active torsions:
REMARK  status: ('A' for Active; 'I' for Inactive)
REMARK    1  A    between atoms: C_2  and  C_3 
REMARK    2  A    between atoms: C_3  and  C_4 
REMARK       I    between atoms: C_4  and  N_6 
REMARK    3  A    between atoms: N_6  and  C_7 
REMARK    4  A    between atoms: C_10  and  C_11 
REMARK       I    between atoms: C_11  and  N_13 
REMARK    5  A    between atoms: N_13  and  N_14 
REMARK    6  A    between atoms: N_14  and  C_15 
REMARK    7  A    between atoms: C_15  and  N_17 
REMARK       I    between atoms: N_17  and  C_18 
REMARK    8  A    between atoms: C_18  and  C_20 
REMARK    9  A    between atoms: C_24  and  C_25 
REMARK   10  A    between atoms: C_25  and  O_27 
ROOT
ATOM      1  N   UNL d   1      27.280 -14.157  -2.130  0.00  0.00    -0.273 N 
ATOM      2  H   UNL d   1      28.147 -14.619  -2.393  0.00  0.00     0.189 HD
ENDROOT
BRANCH   1   3
ATOM      3  N   UNL d   1      26.273 -15.030  -1.543  0.00  0.00    -0.264 N 
ATOM      4  C   UNL d   1      25.466 -15.876  -2.300  0.00  0.00     0.270 C 
ATOM      5  O   UNL d   1      25.569 -15.945  -3.523  0.00  0.00    -0.266 OA
ATOM      6  H   UNL d   1      26.187 -14.934  -0.534  0.00  0.00     0.190 HD
BRANCH   4   7
ATOM      7  C   UNL d   1      24.415 -16.708  -1.567  0.00  0.00     0.033 A 
ATOM      8  C   UNL d   1      24.686 -18.053  -1.231  0.00  0.00     0.019 A 
ATOM      9  C   UNL d   1      23.699 -18.896  -0.655  0.00  0.00     0.030 A 
ATOM     10  C   UNL d   1      22.426 -18.396  -0.370  0.00  0.00     0.034 A 
ATOM     11  C   UNL d   1      22.172 -17.055  -0.664  0.00  0.00     0.030 A 
ATOM     12  C   UNL d   1      23.146 -16.220  -1.242  0.00  0.00     0.019 A 
BRANCH  10  13
ATOM     13  N   UNL d   1      21.426 -19.202   0.241  0.00  0.00    -0.327 N 
ATOM     14  C   UNL d   1      20.373 -19.745  -0.489  0.00  0.00     0.222 C 
ATOM     15  O   UNL d   1      20.276 -19.646  -1.712  0.00  0.00    -0.273 OA
ATOM     16  H   UNL d   1      21.565 -19.492   1.202  0.00  0.00     0.169 HD
BRANCH  14  17
ATOM     17  C   UNL d   1      19.334 -20.527   0.311  0.00  0.00     0.103 C 
BRANCH  17  18
ATOM     18  C   UNL d   1      18.925 -19.718   1.554  0.00  0.00     0.005 C 
ATOM     19  C   UNL d   1      19.190 -20.450   2.855  0.00  0.00     0.005 C 
ENDBRANCH  17  18
ENDBRANCH  14  17
ENDBRANCH  10  13
ENDBRANCH   4   7
ENDBRANCH   1   3
BRANCH   1  20
ATOM     20  C   UNL d   1      26.978 -12.786  -2.271  0.00  0.00     0.193 C 
ATOM     21  S   UNL d   1      26.439 -12.208  -3.767  0.00  0.00    -0.039 SA
BRANCH  20  22
ATOM     22  N   UNL d   1      27.160 -11.991  -1.114  0.00  0.00    -0.298 N 
ATOM     23  C   UNL d   1      26.815 -12.352   0.211  0.00  0.00     0.257 C 
ATOM     24  O   UNL d   1      26.292 -13.415   0.541  0.00  0.00    -0.267 OA
ATOM     25  H   UNL d   1      27.626 -11.102  -1.231  0.00  0.00     0.171 HD
BRANCH  23  26
ATOM     26  C   UNL d   1      27.058 -11.419   1.354  0.00  0.00     0.033 A 
ATOM     27  C   UNL d   1      27.416 -11.983   2.599  0.00  0.00     0.017 A 
ATOM     28  C   UNL d   1      27.411 -11.214   3.768  0.00  0.00     0.002 A 
ATOM     29  C   UNL d   1      27.100  -9.858   3.697  0.00  0.00     0.017 A 
ATOM     30  C   UNL d   1      26.730  -9.280   2.469  0.00  0.00     0.040 A 
ATOM     31  C   UNL d   1      26.704 -10.068   1.297  0.00  0.00     0.034 A 
BRANCH  30  32
ATOM     32  C   UNL d   1      26.319  -7.847   2.477  0.00  0.00     0.292 C 
ATOM     33  O   UNL d   1      25.528  -7.369   1.669  0.00  0.00    -0.259 OA
BRANCH  32  34
ATOM     34  O   UNL d   1      26.931  -7.166   3.476  0.00  0.00    -0.323 OA
ATOM     35  C   UNL d   1      28.306  -6.859   3.220  0.00  0.00     0.213 C 
ENDBRANCH  32  34
ENDBRANCH  30  32
ENDBRANCH  23  26
ENDBRANCH  20  22
ENDBRANCH   1  20
TORSDOF 10
ENDMDL
MODEL 6
REMARK VINA RESULT:    -8.732      5.154      7.205
REMARK INTER + INTRA:         -13.877
REMARK INTER:                 -11.715
REMARK INTRA:                  -2.162
REMARK CONF_INDEPENDENT:        2.983
REMARK UNBOUND:                -2.162
REMARK  10 active torsions:
REMARK  status: ('A' for Active; 'I' for Inactive)
REMARK    1  A    between atoms: C_2  and  C_3 
REMARK    2  A    between atoms: C_3  and  C_4 
REMARK       I    between atoms: C_4  and  N_6 
REMARK    3  A    between atoms: N_6  and  C_7 
REMARK    4  A    between atoms: C_10  and  C_11 
REMARK       I    between atoms: C_11  and  N_13 
REMARK    5  A    between atoms: N_13  and  N_14 
REMARK    6  A    between atoms: N_14  and  C_15 
REMARK    7  A    between atoms: C_15  and  N_17 
REMARK       I    between atoms: N_17  and  C_18 
REMARK    8  A    between atoms: C_18  and  C_20 
REMARK    9  A    between atoms: C_24  and  C_25 
REMARK   10  A    between atoms: C_25  and  O_27 
ROOT
ATOM      1  N   UNL d   1      27.577 -13.390  -1.030  0.00  0.00    -0.273 N 
ATOM      2  H   UNL d   1      28.111 -13.573  -1.877  0.00  0.00     0.189 HD
ENDROOT
BRANCH   1   3
ATOM      3  N   UNL d   1      26.566 -14.389  -0.716  0.00  0.00    -0.264 N 
ATOM      4  C   UNL d   1      26.333 -15.510  -1.510  0.00  0.00     0.270 C 
ATOM      5  O   UNL d   1      26.986 -15.730  -2.527  0.00  0.00    -0.266 OA
ATOM      6  H   UNL d   1      26.019 -14.171   0.113  0.00  0.00     0.190 HD
BRANCH   4   7
ATOM      7  C   UNL d   1      25.209 -16.460  -1.096  0.00  0.00     0.033 A 
ATOM      8  C   UNL d   1      23.861 -16.070  -1.250  0.00  0.00     0.019 A 
ATOM      9  C   UNL d   1      22.789 -16.871  -0.773  0.00  0.00     0.030 A 
ATOM     10  C   UNL d   1      23.047 -18.101  -0.163  0.00  0.00     0.034 A 
ATOM     11  C   UNL d   1      24.379 -18.506  -0.050  0.00  0.00     0.030 A 
ATOM     12  C   UNL d   1      25.443 -17.710  -0.514  0.00  0.00     0.019 A 
BRANCH  10  13
ATOM     13  N   UNL d   1      21.997 -18.945   0.292  0.00  0.00    -0.327 N 
ATOM     14  C   UNL d   1      21.048 -19.473  -0.580  0.00  0.00     0.222 C 
ATOM     15  O   UNL d   1      21.095 -19.324  -1.801  0.00  0.00    -0.273 OA
ATOM     16  H   UNL d   1      22.027 -19.273   1.249  0.00  0.00     0.169 HD
BRANCH  14  17
ATOM     17  C   UNL d   1      19.938 -20.303   0.059  0.00  0.00     0.103 C 
BRANCH  17  18
ATOM     18  C   UNL d   1      19.496 -19.644   1.377  0.00  0.00     0.005 C 
ATOM     19  C   UNL d   1      18.424 -20.431   2.106  0.00  0.00     0.005 C 
ENDBRANCH  17  18
ENDBRANCH  14  17
ENDBRANCH  10  13
ENDBRANCH   4   7
ENDBRANCH   1   3
BRANCH   1  20
ATOM     20  C   UNL d   1      27.730 -12.294  -0.157  0.00  0.00     0.193 C 
ATOM     21  S   UNL d   1      27.404 -10.733  -0.724  0.00  0.00    -0.039 SA
BRANCH  20  22
ATOM     22  N   UNL d   1      28.157 -12.605   1.156  0.00  0.00    -0.298 N 
ATOM     23  C   UNL d   1      27.345 -13.103   2.203  0.00  0.00     0.257 C 
ATOM     24  O   UNL d   1      26.139 -13.326   2.119  0.00  0.00    -0.267 OA
ATOM     25  H   UNL d   1      29.143 -12.513   1.357  0.00  0.00     0.171 HD
BRANCH  23  26
ATOM     26  C   UNL d   1      27.917 -13.393   3.554  0.00  0.00     0.033 A 
ATOM     27  C   UNL d   1      27.961 -14.741   3.975  0.00  0.00     0.017 A 
ATOM     28  C   UNL d   1      28.239 -15.073   5.305  0.00  0.00     0.002 A 
ATOM     29  C   UNL d   1      28.530 -14.064   6.219  0.00  0.00     0.017 A 
ATOM     30  C   UNL d   1      28.481 -12.715   5.823  0.00  0.00     0.040 A 
ATOM     31  C   UNL d   1      28.167 -12.382   4.487  0.00  0.00     0.034 A 
BRANCH  30  32
ATOM     32  C   UNL d   1      28.711 -11.679   6.871  0.00  0.00     0.292 C 
ATOM     33  O   UNL d   1      28.529 -10.479   6.684  0.00  0.00    -0.259 OA
BRANCH  32  34
ATOM     34  O   UNL d   1      29.143 -12.238   8.027  0.00  0.00    -0.323 OA
ATOM     35  C   UNL d   1      28.180 -12.214   9.087  0.00  0.00     0.213 C 
ENDBRANCH  32  34
ENDBRANCH  30  32
ENDBRANCH  23  26
ENDBRANCH  20  22
ENDBRANCH   1  20
TORSDOF 10
ENDMDL
MODEL 7
REMARK VINA RESULT:    -8.718      5.746      7.970
REMARK INTER + INTRA:         -13.739
REMARK INTER:                 -11.701
REMARK INTRA:                  -2.038
REMARK CONF_INDEPENDENT:        2.983
REMARK UNBOUND:                -2.038
REMARK  10 active torsions:
REMARK  status: ('A' for Active; 'I' for Inactive)
REMARK    1  A    between atoms: C_2  and  C_3 
REMARK    2  A    between atoms: C_3  and  C_4 
REMARK       I    between atoms: C_4  and  N_6 
REMARK    3  A    between atoms: N_6  and  C_7 
REMARK    4  A    between atoms: C_10  and  C_11 
REMARK       I    between atoms: C_11  and  N_13 
REMARK    5  A    between atoms: N_13  and  N_14 
REMARK    6  A    between atoms: N_14  and  C_15 
REMARK    7  A    between atoms: C_15  and  N_17 
REMARK       I    between atoms: N_17  and  C_18 
REMARK    8  A    between atoms: C_18  and  C_20 
REMARK    9  A    between atoms: C_24  and  C_25 
REMARK   10  A    between atoms: C_25  and  O_27 
ROOT
ATOM      1  N   UNL d   1      30.294 -14.446   1.298  0.00  0.00    -0.273 N 
ATOM      2  H   UNL d   1      30.457 -13.683   0.645  0.00  0.00     0.189 HD
ENDROOT
BRANCH   1   3
ATOM      3  N   UNL d   1      29.116 -15.253   1.015  0.00  0.00    -0.264 N 
ATOM      4  C   UNL d   1      28.330 -15.079  -0.122  0.00  0.00     0.270 C 
ATOM      5  O   UNL d   1      28.598 -14.231  -0.970  0.00  0.00    -0.266 OA
ATOM      6  H   UNL d   1      28.898 -15.928   1.745  0.00  0.00     0.190 HD
BRANCH   4   7
ATOM      7  C   UNL d   1      27.091 -15.960  -0.279  0.00  0.00     0.033 A 
ATOM      8  C   UNL d   1      27.011 -17.194   0.402  0.00  0.00     0.019 A 
ATOM      9  C   UNL d   1      25.934 -18.097   0.196  0.00  0.00     0.030 A 
ATOM     10  C   UNL d   1      24.893 -17.762  -0.673  0.00  0.00     0.034 A 
ATOM     11  C   UNL d   1      24.951 -16.522  -1.314  0.00  0.00     0.030 A 
ATOM     12  C   UNL d   1      26.022 -15.631  -1.117  0.00  0.00     0.019 A 
BRANCH  10  13
ATOM     13  N   UNL d   1      23.780 -18.625  -0.874  0.00  0.00    -0.327 N 
ATOM     14  C   UNL d   1      22.486 -18.247  -0.527  0.00  0.00     0.222 C 
ATOM     15  O   UNL d   1      22.197 -17.126  -0.110  0.00  0.00    -0.273 OA
ATOM     16  H   UNL d   1      23.923 -19.475  -1.405  0.00  0.00     0.169 HD
BRANCH  14  17
ATOM     17  C   UNL d   1      21.401 -19.302  -0.733  0.00  0.00     0.103 C 
BRANCH  17  18
ATOM     18  C   UNL d   1      20.468 -19.326   0.490  0.00  0.00     0.005 C 
ATOM     19  C   UNL d   1      19.171 -20.070   0.235  0.00  0.00     0.005 C 
ENDBRANCH  17  18
ENDBRANCH  14  17
ENDBRANCH  10  13
ENDBRANCH   4   7
ENDBRANCH   1   3
BRANCH   1  20
ATOM     20  C   UNL d   1      31.089 -14.786   2.412  0.00  0.00     0.193 C 
ATOM     21  S   UNL d   1      32.511 -15.672   2.173  0.00  0.00    -0.039 SA
BRANCH  20  22
ATOM     22  N   UNL d   1      30.611 -14.345   3.669  0.00  0.00    -0.298 N 
ATOM     23  C   UNL d   1      29.257 -14.305   4.081  0.00  0.00     0.257 C 
ATOM     24  O   UNL d   1      28.297 -14.641   3.392  0.00  0.00    -0.267 OA
ATOM     25  H   UNL d   1      31.300 -14.080   4.359  0.00  0.00     0.171 HD
BRANCH  23  26
ATOM     26  C   UNL d   1      28.879 -13.813   5.443  0.00  0.00     0.033 A 
ATOM     27  C   UNL d   1      28.282 -12.536   5.539  0.00  0.00     0.017 A 
ATOM     28  C   UNL d   1      28.133 -11.900   6.776  0.00  0.00     0.002 A 
ATOM     29  C   UNL d   1      28.530 -12.557   7.938  0.00  0.00     0.017 A 
ATOM     30  C   UNL d   1      29.136 -13.824   7.863  0.00  0.00     0.040 A 
ATOM     31  C   UNL d   1      29.315 -14.449   6.609  0.00  0.00     0.034 A 
BRANCH  30  32
ATOM     32  C   UNL d   1      29.623 -14.433   9.135  0.00  0.00     0.292 C 
ATOM     33  O   UNL d   1      28.946 -14.487  10.158  0.00  0.00    -0.259 OA
BRANCH  32  34
ATOM     34  O   UNL d   1      30.886 -14.903   9.002  0.00  0.00    -0.323 OA
ATOM     35  C   UNL d   1      31.887 -13.882   8.919  0.00  0.00     0.213 C 
ENDBRANCH  32  34
ENDBRANCH  30  32
ENDBRANCH  23  26
ENDBRANCH  20  22
ENDBRANCH   1  20
TORSDOF 10
ENDMDL
MODEL 8
REMARK VINA RESULT:    -8.640      1.835      2.089
REMARK INTER + INTRA:         -14.086
REMARK INTER:                 -11.623
REMARK INTRA:                  -2.463
REMARK CONF_INDEPENDENT:        2.983
REMARK UNBOUND:                -2.463
REMARK  10 active torsions:
REMARK  status: ('A' for Active; 'I' for Inactive)
REMARK    1  A    between atoms: C_2  and  C_3 
REMARK    2  A    between atoms: C_3  and  C_4 
REMARK       I    between atoms: C_4  and  N_6 
REMARK    3  A    between atoms: N_6  and  C_7 
REMARK    4  A    between atoms: C_10  and  C_11 
REMARK       I    between atoms: C_11  and  N_13 
REMARK    5  A    between atoms: N_13  and  N_14 
REMARK    6  A    between atoms: N_14  and  C_15 
REMARK    7  A    between atoms: C_15  and  N_17 
REMARK       I    between atoms: N_17  and  C_18 
REMARK    8  A    between atoms: C_18  and  C_20 
REMARK    9  A    between atoms: C_24  and  C_25 
REMARK   10  A    between atoms: C_25  and  O_27 
ROOT
ATOM      1  N   UNL d   1      29.729 -15.206   1.085  0.00  0.00    -0.273 N 
ATOM      2  H   UNL d   1      29.957 -15.223   2.077  0.00  0.00     0.189 HD
ENDROOT
BRANCH   1   3
ATOM      3  N   UNL d   1      28.592 -16.033   0.705  0.00  0.00    -0.264 N 
ATOM      4  C   UNL d   1      27.428 -15.513   0.144  0.00  0.00     0.270 C 
ATOM      5  O   UNL d   1      27.297 -14.312  -0.078  0.00  0.00    -0.266 OA
ATOM      6  H   UNL d   1      28.712 -17.019   0.924  0.00  0.00     0.190 HD
BRANCH   4   7
ATOM      7  C   UNL d   1      26.288 -16.482  -0.168  0.00  0.00     0.033 A 
ATOM      8  C   UNL d   1      25.244 -16.090  -1.034  0.00  0.00     0.019 A 
ATOM      9  C   UNL d   1      24.108 -16.912  -1.260  0.00  0.00     0.030 A 
ATOM     10  C   UNL d   1      24.013 -18.164  -0.649  0.00  0.00     0.034 A 
ATOM     11  C   UNL d   1      25.066 -18.570   0.174  0.00  0.00     0.030 A 
ATOM     12  C   UNL d   1      26.189 -17.754   0.406  0.00  0.00     0.019 A 
BRANCH  10  13
ATOM     13  N   UNL d   1      22.908 -19.029  -0.883  0.00  0.00    -0.327 N 
ATOM     14  C   UNL d   1      21.602 -18.552  -0.947  0.00  0.00     0.222 C 
ATOM     15  O   UNL d   1      21.316 -17.356  -0.895  0.00  0.00    -0.273 OA
ATOM     16  H   UNL d   1      23.098 -19.990  -1.141  0.00  0.00     0.169 HD
BRANCH  14  17
ATOM     17  C   UNL d   1      20.511 -19.604  -1.130  0.00  0.00     0.103 C 
BRANCH  17  18
ATOM     18  C   UNL d   1      19.359 -19.328  -0.149  0.00  0.00     0.005 C 
ATOM     19  C   UNL d   1      19.409 -20.202   1.090  0.00  0.00     0.005 C 
ENDBRANCH  17  18
ENDBRANCH  14  17
ENDBRANCH  10  13
ENDBRANCH   4   7
ENDBRANCH   1   3
BRANCH   1  20
ATOM     20  C   UNL d   1      30.389 -14.471   0.080  0.00  0.00     0.193 C 
ATOM     21  S   UNL d   1      31.829 -13.666   0.455  0.00  0.00    -0.039 SA
BRANCH  20  22
ATOM     22  N   UNL d   1      29.769 -14.470  -1.193  0.00  0.00    -0.298 N 
ATOM     23  C   UNL d   1      30.083 -15.325  -2.277  0.00  0.00     0.257 C 
ATOM     24  O   UNL d   1      30.956 -16.189  -2.265  0.00  0.00    -0.267 OA
ATOM     25  H   UNL d   1      28.995 -13.835  -1.331  0.00  0.00     0.171 HD
BRANCH  23  26
ATOM     26  C   UNL d   1      29.352 -15.223  -3.578  0.00  0.00     0.033 A 
ATOM     27  C   UNL d   1      30.032 -14.640  -4.671  0.00  0.00     0.017 A 
ATOM     28  C   UNL d   1      29.348 -14.277  -5.836  0.00  0.00     0.002 A 
ATOM     29  C   UNL d   1      27.985 -14.543  -5.943  0.00  0.00     0.017 A 
ATOM     30  C   UNL d   1      27.288 -15.113  -4.863  0.00  0.00     0.040 A 
ATOM     31  C   UNL d   1      27.976 -15.447  -3.676  0.00  0.00     0.034 A 
BRANCH  30  32
ATOM     32  C   UNL d   1      25.814 -15.287  -5.007  0.00  0.00     0.292 C 
ATOM     33  O   UNL d   1      25.294 -16.326  -5.404  0.00  0.00    -0.259 OA
BRANCH  32  34
ATOM     34  O   UNL d   1      25.150 -14.161  -4.649  0.00  0.00    -0.323 OA
ATOM     35  C   UNL d   1      25.258 -13.832  -3.260  0.00  0.00     0.213 C 
ENDBRANCH  32  34
ENDBRANCH  30  32
ENDBRANCH  23  26
ENDBRANCH  20  22
ENDBRANCH   1  20
TORSDOF 10
ENDMDL
MODEL 9
REMARK VINA RESULT:    -8.621      3.064      4.809
REMARK INTER + INTRA:         -13.636
REMARK INTER:                 -11.604
REMARK INTRA:                  -2.032
REMARK CONF_INDEPENDENT:        2.983
REMARK UNBOUND:                -2.032
REMARK  10 active torsions:
REMARK  status: ('A' for Active; 'I' for Inactive)
REMARK    1  A    between atoms: C_2  and  C_3 
REMARK    2  A    between atoms: C_3  and  C_4 
REMARK       I    between atoms: C_4  and  N_6 
REMARK    3  A    between atoms: N_6  and  C_7 
REMARK    4  A    between atoms: C_10  and  C_11 
REMARK       I    between atoms: C_11  and  N_13 
REMARK    5  A    between atoms: N_13  and  N_14 
REMARK    6  A    between atoms: N_14  and  C_15 
REMARK    7  A    between atoms: C_15  and  N_17 
REMARK       I    between atoms: N_17  and  C_18 
REMARK    8  A    between atoms: C_18  and  C_20 
REMARK    9  A    between atoms: C_24  and  C_25 
REMARK   10  A    between atoms: C_25  and  O_27 
ROOT
ATOM      1  N   UNL d   1      27.321 -15.355  -3.184  0.00  0.00    -0.273 N 
ATOM      2  H   UNL d   1      28.157 -15.485  -2.620  0.00  0.00     0.189 HD
ENDROOT
BRANCH   1   3
ATOM      3  N   UNL d   1      26.101 -15.901  -2.607  0.00  0.00    -0.264 N 
ATOM      4  C   UNL d   1      26.092 -16.701  -1.466  0.00  0.00     0.270 C 
ATOM      5  O   UNL d   1      27.126 -16.982  -0.865  0.00  0.00    -0.266 OA
ATOM      6  H   UNL d   1      25.262 -15.679  -3.138  0.00  0.00     0.190 HD
BRANCH   4   7
ATOM      7  C   UNL d   1      24.749 -17.251  -0.988  0.00  0.00     0.033 A 
ATOM      8  C   UNL d   1      24.663 -18.570  -0.490  0.00  0.00     0.019 A 
ATOM      9  C   UNL d   1      23.418 -19.162  -0.144  0.00  0.00     0.030 A 
ATOM     10  C   UNL d   1      22.236 -18.427  -0.254  0.00  0.00     0.034 A 
ATOM     11  C   UNL d   1      22.327 -17.109  -0.706  0.00  0.00     0.030 A 
ATOM     12  C   UNL d   1      23.557 -16.524  -1.057  0.00  0.00     0.019 A 
BRANCH  10  13
ATOM     13  N   UNL d   1      20.978 -18.975   0.119  0.00  0.00    -0.327 N 
ATOM     14  C   UNL d   1      20.119 -19.547  -0.815  0.00  0.00     0.222 C 
ATOM     15  O   UNL d   1      20.413 -19.700  -2.000  0.00  0.00    -0.273 OA
ATOM     16  H   UNL d   1      20.769 -19.068   1.106  0.00  0.00     0.169 HD
BRANCH  14  17
ATOM     17  C   UNL d   1      18.771 -20.028  -0.282  0.00  0.00     0.103 C 
BRANCH  17  18
ATOM     18  C   UNL d   1      18.998 -21.058   0.837  0.00  0.00     0.005 C 
ATOM     19  C   UNL d   1      18.947 -20.451   2.226  0.00  0.00     0.005 C 
ENDBRANCH  17  18
ENDBRANCH  14  17
ENDBRANCH  10  13
ENDBRANCH   4   7
ENDBRANCH   1   3
BRANCH   1  20
ATOM     20  C   UNL d   1      27.239 -14.705  -4.433  0.00  0.00     0.193 C 
ATOM     21  S   UNL d   1      25.898 -13.729  -4.771  0.00  0.00    -0.039 SA
BRANCH  20  22
ATOM     22  N   UNL d   1      28.317 -14.935  -5.321  0.00  0.00    -0.298 N 
ATOM     23  C   UNL d   1      29.469 -15.713  -5.052  0.00  0.00     0.257 C 
ATOM     24  O   UNL d   1      29.700 -16.295  -3.994  0.00  0.00    -0.267 OA
ATOM     25  H   UNL d   1      28.241 -14.552  -6.252  0.00  0.00     0.171 HD
BRANCH  23  26
ATOM     26  C   UNL d   1      30.545 -15.880  -6.078  0.00  0.00     0.033 A 
ATOM     27  C   UNL d   1      31.062 -14.713  -6.685  0.00  0.00     0.017 A 
ATOM     28  C   UNL d   1      31.876 -14.790  -7.820  0.00  0.00     0.002 A 
ATOM     29  C   UNL d   1      32.226 -16.037  -8.331  0.00  0.00     0.017 A 
ATOM     30  C   UNL d   1      31.714 -17.210  -7.748  0.00  0.00     0.040 A 
ATOM     31  C   UNL d   1      30.866 -17.127  -6.622  0.00  0.00     0.034 A 
BRANCH  30  32
ATOM     32  C   UNL d   1      32.053 -18.509  -8.398  0.00  0.00     0.292 C 
ATOM     33  O   UNL d   1      32.326 -18.614  -9.590  0.00  0.00    -0.259 OA
BRANCH  32  34
ATOM     34  O   UNL d   1      32.012 -19.529  -7.507  0.00  0.00    -0.323 OA
ATOM     35  C   UNL d   1      30.862 -20.374  -7.634  0.00  0.00     0.213 C 
ENDBRANCH  32  34
ENDBRANCH  30  32
ENDBRANCH  23  26
ENDBRANCH  20  22
ENDBRANCH   1  20
TORSDOF 10
ENDMDL
