MODEL 1
REMARK VINA RESULT:    -7.454      0.000      0.000
REMARK INTER + INTRA:          -9.196
REMARK INTER:                  -8.946
REMARK INTRA:                  -0.250
REMARK CONF_INDEPENDENT:        1.492
REMARK UNBOUND:                -0.250
REMARK  5 active torsions:
REMARK  status: ('A' for Active; 'I' for Inactive)
REMARK    1  A    between atoms: C_2  and  N_5 
REMARK       I    between atoms: N_5  and  C_6 
REMARK    2  A    between atoms: C_6  and  C_8 
REMARK    3  A    between atoms: C_8  and  C_9 
REMARK    4  A    between atoms: C_9  and  C_10 
REMARK    5  A    between atoms: C_14  and  N_15 
ROOT
ATOM      1  C   UNL d   1      23.869 -18.298   0.419  0.00  0.00     0.048 C 
ENDROOT
BRANCH   1   2
ATOM      2  C   UNL d   1      23.137 -19.265  -0.527  0.00  0.00     0.107 C 
BRANCH   2   3
ATOM      3  C   UNL d   1      21.654 -19.081  -0.413  0.00  0.00     0.218 C 
ATOM      4  N   UNL d   1      20.987 -20.097   0.247  0.00  0.00    -0.353 N 
ATOM      5  H   UNL d   1      21.511 -20.883   0.616  0.00  0.00     0.163 HD
ATOM      6  O   UNL d   1      21.093 -18.096  -0.897  0.00  0.00    -0.274 OA
BRANCH   4   7
ATOM      7  C   UNL d   1      19.527 -20.063   0.424  0.00  0.00     0.022 C 
ATOM      8  C   UNL d   1      18.832 -19.526  -0.842  0.00  0.00     0.037 C 
ATOM      9  C   UNL d   1      19.160 -19.132   1.591  0.00  0.00     0.037 C 
ATOM     10  C   UNL d   1      19.001 -21.485   0.680  0.00  0.00     0.037 C 
ENDBRANCH   4   7
ENDBRANCH   2   3
ENDBRANCH   1   2
BRANCH   1  11
ATOM     11  C   UNL d   1      25.015 -17.566  -0.235  0.00  0.00    -0.056 A 
ATOM     12  C   UNL d   1      24.827 -16.842  -1.418  0.00  0.00     0.007 A 
ATOM     13  C   UNL d   1      25.890 -16.198  -2.036  0.00  0.00     0.003 A 
ATOM     14  C   UNL d   1      27.155 -16.247  -1.460  0.00  0.00     0.029 A 
ATOM     15  C   UNL d   1      27.365 -16.909  -0.249  0.00  0.00     0.026 A 
ATOM     16  C   UNL d   1      26.291 -17.575   0.352  0.00  0.00     0.036 A 
BRANCH  15  17
ATOM     17  N   UNL d   1      28.648 -17.018   0.264  0.00  0.00    -0.399 N 
ATOM     18  H   UNL d   1      28.957 -16.352   0.960  0.00  0.00     0.156 HD
ATOM     19  H   UNL d   1      29.135 -17.903   0.212  0.00  0.00     0.156 HD
ENDBRANCH  15  17
ENDBRANCH   1  11
TORSDOF 5
ENDMDL
MODEL 2
REMARK VINA RESULT:    -6.900      1.837      7.295
REMARK INTER + INTRA:          -8.729
REMARK INTER:                  -8.392
REMARK INTRA:                  -0.338
REMARK CONF_INDEPENDENT:        1.492
REMARK UNBOUND:                -0.338
REMARK  5 active torsions:
REMARK  status: ('A' for Active; 'I' for Inactive)
REMARK    1  A    between atoms: C_2  and  N_5 
REMARK       I    between atoms: N_5  and  C_6 
REMARK    2  A    between atoms: C_6  and  C_8 
REMARK    3  A    between atoms: C_8  and  C_9 
REMARK    4  A    between atoms: C_9  and  C_10 
REMARK    5  A    between atoms: C_14  and  N_15 
ROOT
ATOM      1  C   UNL d   1      21.638 -18.782  -0.715  0.00  0.00     0.048 C 
ENDROOT
BRANCH   1   2
ATOM      2  C   UNL d   1      22.960 -18.576   0.043  0.00  0.00     0.107 C 
BRANCH   2   3
ATOM      3  C   UNL d   1      23.710 -17.409  -0.526  0.00  0.00     0.218 C 
ATOM      4  N   UNL d   1      25.081 -17.573  -0.601  0.00  0.00    -0.353 N 
ATOM      5  H   UNL d   1      25.498 -18.442  -0.288  0.00  0.00     0.163 HD
ATOM      6  O   UNL d   1      23.124 -16.382  -0.876  0.00  0.00    -0.274 OA
BRANCH   4   7
ATOM      7  C   UNL d   1      25.950 -16.507  -1.123  0.00  0.00     0.022 C 
ATOM      8  C   UNL d   1      27.413 -16.981  -1.204  0.00  0.00     0.037 C 
ATOM      9  C   UNL d   1      25.905 -15.286  -0.190  0.00  0.00     0.037 C 
ATOM     10  C   UNL d   1      25.503 -16.121  -2.543  0.00  0.00     0.037 C 
ENDBRANCH   4   7
ENDBRANCH   2   3
ENDBRANCH   1   2
BRANCH   1  11
ATOM     11  C   UNL d   1      20.555 -19.416   0.123  0.00  0.00    -0.056 A 
ATOM     12  C   UNL d   1      20.651 -19.453   1.519  0.00  0.00     0.007 A 
ATOM     13  C   UNL d   1      19.671 -20.068   2.284  0.00  0.00     0.003 A 
ATOM     14  C   UNL d   1      18.562 -20.631   1.662  0.00  0.00     0.029 A 
ATOM     15  C   UNL d   1      18.405 -20.559   0.276  0.00  0.00     0.026 A 
ATOM     16  C   UNL d   1      19.412 -19.959  -0.488  0.00  0.00     0.036 A 
BRANCH  15  17
ATOM     17  N   UNL d   1      17.337 -21.200  -0.332  0.00  0.00    -0.399 N 
ATOM     18  H   UNL d   1      17.019 -22.085   0.041  0.00  0.00     0.156 HD
ATOM     19  H   UNL d   1      16.688 -20.667  -0.895  0.00  0.00     0.156 HD
ENDBRANCH  15  17
ENDBRANCH   1  11
TORSDOF 5
ENDMDL
MODEL 3
REMARK VINA RESULT:    -6.007      1.925      6.800
REMARK INTER + INTRA:          -7.834
REMARK INTER:                  -7.498
REMARK INTRA:                  -0.335
REMARK CONF_INDEPENDENT:        1.492
REMARK UNBOUND:                -0.335
REMARK  5 active torsions:
REMARK  status: ('A' for Active; 'I' for Inactive)
REMARK    1  A    between atoms: C_2  and  N_5 
REMARK       I    between atoms: N_5  and  C_6 
REMARK    2  A    between atoms: C_6  and  C_8 
REMARK    3  A    between atoms: C_8  and  C_9 
REMARK    4  A    between atoms: C_9  and  C_10 
REMARK    5  A    between atoms: C_14  and  N_15 
ROOT
ATOM      1  C   UNL d   1      22.192 -18.240  -1.160  0.00  0.00     0.048 C 
ENDROOT
BRANCH   1   2
ATOM      2  C   UNL d   1      22.441 -16.826  -0.606  0.00  0.00     0.107 C 
BRANCH   2   3
ATOM      3  C   UNL d   1      23.847 -16.395  -0.895  0.00  0.00     0.218 C 
ATOM      4  N   UNL d   1      24.817 -16.998  -0.116  0.00  0.00    -0.353 N 
ATOM      5  H   UNL d   1      24.544 -17.683   0.580  0.00  0.00     0.163 HD
ATOM      6  O   UNL d   1      24.092 -15.547  -1.757  0.00  0.00    -0.274 OA
BRANCH   4   7
ATOM      7  C   UNL d   1      26.241 -16.664  -0.274  0.00  0.00     0.022 C 
ATOM      8  C   UNL d   1      26.535 -15.247   0.252  0.00  0.00     0.037 C 
ATOM      9  C   UNL d   1      26.628 -16.702  -1.762  0.00  0.00     0.037 C 
ATOM     10  C   UNL d   1      27.099 -17.652   0.534  0.00  0.00     0.037 C 
ENDBRANCH   4   7
ENDBRANCH   2   3
ENDBRANCH   1   2
BRANCH   1  11
ATOM     11  C   UNL d   1      21.065 -18.967  -0.470  0.00  0.00    -0.056 A 
ATOM     12  C   UNL d   1      19.905 -19.327  -1.166  0.00  0.00     0.007 A 
ATOM     13  C   UNL d   1      18.856 -19.965  -0.519  0.00  0.00     0.003 A 
ATOM     14  C   UNL d   1      18.966 -20.279   0.830  0.00  0.00     0.029 A 
ATOM     15  C   UNL d   1      20.133 -19.990   1.540  0.00  0.00     0.026 A 
ATOM     16  C   UNL d   1      21.175 -19.324   0.885  0.00  0.00     0.036 A 
BRANCH  15  17
ATOM     17  N   UNL d   1      20.191 -20.234   2.903  0.00  0.00    -0.399 N 
ATOM     18  H   UNL d   1      19.327 -20.309   3.426  0.00  0.00     0.156 HD
ATOM     19  H   UNL d   1      21.019 -20.656   3.302  0.00  0.00     0.156 HD
ENDBRANCH  15  17
ENDBRANCH   1  11
TORSDOF 5
ENDMDL
MODEL 4
REMARK VINA RESULT:    -5.946      1.731      2.147
REMARK INTER + INTRA:          -7.659
REMARK INTER:                  -7.437
REMARK INTRA:                  -0.222
REMARK CONF_INDEPENDENT:        1.492
REMARK UNBOUND:                -0.222
REMARK  5 active torsions:
REMARK  status: ('A' for Active; 'I' for Inactive)
REMARK    1  A    between atoms: C_2  and  N_5 
REMARK       I    between atoms: N_5  and  C_6 
REMARK    2  A    between atoms: C_6  and  C_8 
REMARK    3  A    between atoms: C_8  and  C_9 
REMARK    4  A    between atoms: C_9  and  C_10 
REMARK    5  A    between atoms: C_14  and  N_15 
ROOT
ATOM      1  C   UNL d   1      24.594 -17.756   0.115  0.00  0.00     0.048 C 
ENDROOT
BRANCH   1   2
ATOM      2  C   UNL d   1      23.742 -18.657  -0.796  0.00  0.00     0.107 C 
BRANCH   2   3
ATOM      3  C   UNL d   1      22.294 -18.554  -0.421  0.00  0.00     0.218 C 
ATOM      4  N   UNL d   1      21.743 -19.708   0.106  0.00  0.00    -0.353 N 
ATOM      5  H   UNL d   1      22.321 -20.533   0.218  0.00  0.00     0.163 HD
ATOM      6  O   UNL d   1      21.661 -17.512  -0.597  0.00  0.00    -0.274 OA
BRANCH   4   7
ATOM      7  C   UNL d   1      20.328 -19.763   0.507  0.00  0.00     0.022 C 
ATOM      8  C   UNL d   1      19.451 -18.945  -0.459  0.00  0.00     0.037 C 
ATOM      9  C   UNL d   1      20.156 -19.168   1.914  0.00  0.00     0.037 C 
ATOM     10  C   UNL d   1      19.834 -21.219   0.470  0.00  0.00     0.037 C 
ENDBRANCH   4   7
ENDBRANCH   2   3
ENDBRANCH   1   2
BRANCH   1  11
ATOM     11  C   UNL d   1      25.402 -16.728  -0.639  0.00  0.00    -0.056 A 
ATOM     12  C   UNL d   1      26.650 -16.303  -0.169  0.00  0.00     0.007 A 
ATOM     13  C   UNL d   1      27.373 -15.333  -0.846  0.00  0.00     0.003 A 
ATOM     14  C   UNL d   1      26.869 -14.793  -2.024  0.00  0.00     0.029 A 
ATOM     15  C   UNL d   1      25.656 -15.238  -2.554  0.00  0.00     0.026 A 
ATOM     16  C   UNL d   1      24.923 -16.199  -1.850  0.00  0.00     0.036 A 
BRANCH  15  17
ATOM     17  N   UNL d   1      25.131 -14.628  -3.683  0.00  0.00    -0.399 N 
ATOM     18  H   UNL d   1      24.455 -13.884  -3.569  0.00  0.00     0.156 HD
ATOM     19  H   UNL d   1      25.636 -14.675  -4.558  0.00  0.00     0.156 HD
ENDBRANCH  15  17
ENDBRANCH   1  11
TORSDOF 5
ENDMDL
MODEL 5
REMARK VINA RESULT:    -5.758      2.495      7.071
REMARK INTER + INTRA:          -7.568
REMARK INTER:                  -7.249
REMARK INTRA:                  -0.318
REMARK CONF_INDEPENDENT:        1.492
REMARK UNBOUND:                -0.318
REMARK  5 active torsions:
REMARK  status: ('A' for Active; 'I' for Inactive)
REMARK    1  A    between atoms: C_2  and  N_5 
REMARK       I    between atoms: N_5  and  C_6 
REMARK    2  A    between atoms: C_6  and  C_8 
REMARK    3  A    between atoms: C_8  and  C_9 
REMARK    4  A    between atoms: C_9  and  C_10 
REMARK    5  A    between atoms: C_14  and  N_15 
ROOT
ATOM      1  C   UNL d   1      23.076 -18.292  -1.518  0.00  0.00     0.048 C 
ENDROOT
BRANCH   1   2
ATOM      2  C   UNL d   1      23.380 -16.815  -1.216  0.00  0.00     0.107 C 
BRANCH   2   3
ATOM      3  C   UNL d   1      24.599 -16.371  -1.967  0.00  0.00     0.218 C 
ATOM      4  N   UNL d   1      24.541 -15.085  -2.472  0.00  0.00    -0.353 N 
ATOM      5  H   UNL d   1      23.714 -14.521  -2.310  0.00  0.00     0.163 HD
ATOM      6  O   UNL d   1      25.562 -17.125  -2.125  0.00  0.00    -0.274 OA
BRANCH   4   7
ATOM      7  C   UNL d   1      25.656 -14.516  -3.244  0.00  0.00     0.022 C 
ATOM      8  C   UNL d   1      25.888 -15.312  -4.543  0.00  0.00     0.037 C 
ATOM      9  C   UNL d   1      26.953 -14.578  -2.419  0.00  0.00     0.037 C 
ATOM     10  C   UNL d   1      25.332 -13.065  -3.634  0.00  0.00     0.037 C 
ENDBRANCH   4   7
ENDBRANCH   2   3
ENDBRANCH   1   2
BRANCH   1  11
ATOM     11  C   UNL d   1      21.840 -18.807  -0.822  0.00  0.00    -0.056 A 
ATOM     12  C   UNL d   1      20.728 -19.241  -1.552  0.00  0.00     0.007 A 
ATOM     13  C   UNL d   1      19.581 -19.681  -0.908  0.00  0.00     0.003 A 
ATOM     14  C   UNL d   1      19.542 -19.721   0.481  0.00  0.00     0.029 A 
ATOM     15  C   UNL d   1      20.655 -19.355   1.240  0.00  0.00     0.026 A 
ATOM     16  C   UNL d   1      21.798 -18.888   0.581  0.00  0.00     0.036 A 
BRANCH  15  17
ATOM     17  N   UNL d   1      20.568 -19.321   2.623  0.00  0.00    -0.399 N 
ATOM     18  H   UNL d   1      21.031 -20.041   3.162  0.00  0.00     0.156 HD
ATOM     19  H   UNL d   1      20.350 -18.451   3.090  0.00  0.00     0.156 HD
ENDBRANCH  15  17
ENDBRANCH   1  11
TORSDOF 5
ENDMDL
MODEL 6
REMARK VINA RESULT:    -5.468      3.839      7.619
REMARK INTER + INTRA:          -7.394
REMARK INTER:                  -6.959
REMARK INTRA:                  -0.435
REMARK CONF_INDEPENDENT:        1.492
REMARK UNBOUND:                -0.435
REMARK  5 active torsions:
REMARK  status: ('A' for Active; 'I' for Inactive)
REMARK    1  A    between atoms: C_2  and  N_5 
REMARK       I    between atoms: N_5  and  C_6 
REMARK    2  A    between atoms: C_6  and  C_8 
REMARK    3  A    between atoms: C_8  and  C_9 
REMARK    4  A    between atoms: C_9  and  C_10 
REMARK    5  A    between atoms: C_14  and  N_15 
ROOT
ATOM      1  C   UNL d   1      27.429 -16.664   0.717  0.00  0.00     0.048 C 
ENDROOT
BRANCH   1   2
ATOM      2  C   UNL d   1      27.990 -15.245   0.520  0.00  0.00     0.107 C 
BRANCH   2   3
ATOM      3  C   UNL d   1      27.800 -14.433   1.766  0.00  0.00     0.218 C 
ATOM      4  N   UNL d   1      28.602 -14.798   2.832  0.00  0.00    -0.353 N 
ATOM      5  H   UNL d   1      29.261 -15.562   2.723  0.00  0.00     0.163 HD
ATOM      6  O   UNL d   1      26.969 -13.524   1.816  0.00  0.00    -0.274 OA
BRANCH   4   7
ATOM      7  C   UNL d   1      28.517 -14.103   4.125  0.00  0.00     0.022 C 
ATOM      8  C   UNL d   1      29.366 -14.820   5.192  0.00  0.00     0.037 C 
ATOM      9  C   UNL d   1      27.061 -14.085   4.619  0.00  0.00     0.037 C 
ATOM     10  C   UNL d   1      29.057 -12.670   3.981  0.00  0.00     0.037 C 
ENDBRANCH   4   7
ENDBRANCH   2   3
ENDBRANCH   1   2
BRANCH   1  11
ATOM     11  C   UNL d   1      26.125 -16.901  -0.005  0.00  0.00    -0.056 A 
ATOM     12  C   UNL d   1      25.743 -16.101  -1.088  0.00  0.00     0.007 A 
ATOM     13  C   UNL d   1      24.528 -16.301  -1.727  0.00  0.00     0.003 A 
ATOM     14  C   UNL d   1      23.688 -17.325  -1.307  0.00  0.00     0.029 A 
ATOM     15  C   UNL d   1      24.065 -18.181  -0.269  0.00  0.00     0.026 A 
ATOM     16  C   UNL d   1      25.281 -17.955   0.384  0.00  0.00     0.036 A 
BRANCH  15  17
ATOM     17  N   UNL d   1      23.177 -19.142   0.189  0.00  0.00    -0.399 N 
ATOM     18  H   UNL d   1      23.467 -20.111   0.204  0.00  0.00     0.156 HD
ATOM     19  H   UNL d   1      22.414 -18.870   0.795  0.00  0.00     0.156 HD
ENDBRANCH  15  17
ENDBRANCH   1  11
TORSDOF 5
ENDMDL
MODEL 7
REMARK VINA RESULT:    -5.401      3.225      7.177
REMARK INTER + INTRA:          -7.362
REMARK INTER:                  -6.893
REMARK INTRA:                  -0.470
REMARK CONF_INDEPENDENT:        1.492
REMARK UNBOUND:                -0.470
REMARK  5 active torsions:
REMARK  status: ('A' for Active; 'I' for Inactive)
REMARK    1  A    between atoms: C_2  and  N_5 
REMARK       I    between atoms: N_5  and  C_6 
REMARK    2  A    between atoms: C_6  and  C_8 
REMARK    3  A    between atoms: C_8  and  C_9 
REMARK    4  A    between atoms: C_9  and  C_10 
REMARK    5  A    between atoms: C_14  and  N_15 
ROOT
ATOM      1  C   UNL d   1      26.996 -17.677   0.357  0.00  0.00     0.048 C 
ENDROOT
BRANCH   1   2
ATOM      2  C   UNL d   1      28.032 -16.724  -0.263  0.00  0.00     0.107 C 
BRANCH   2   3
ATOM      3  C   UNL d   1      27.847 -15.336   0.271  0.00  0.00     0.218 C 
ATOM      4  N   UNL d   1      28.177 -15.172   1.604  0.00  0.00    -0.353 N 
ATOM      5  H   UNL d   1      28.522 -15.964   2.135  0.00  0.00     0.163 HD
ATOM      6  O   UNL d   1      27.414 -14.429  -0.443  0.00  0.00    -0.274 OA
BRANCH   4   7
ATOM      7  C   UNL d   1      28.034 -13.869   2.271  0.00  0.00     0.022 C 
ATOM      8  C   UNL d   1      26.656 -13.248   1.975  0.00  0.00     0.037 C 
ATOM      9  C   UNL d   1      29.108 -12.895   1.759  0.00  0.00     0.037 C 
ATOM     10  C   UNL d   1      28.149 -14.050   3.794  0.00  0.00     0.037 C 
ENDBRANCH   4   7
ENDBRANCH   2   3
ENDBRANCH   1   2
BRANCH   1  11
ATOM     11  C   UNL d   1      25.584 -17.417  -0.108  0.00  0.00    -0.056 A 
ATOM     12  C   UNL d   1      25.312 -16.456  -1.088  0.00  0.00     0.007 A 
ATOM     13  C   UNL d   1      24.009 -16.196  -1.488  0.00  0.00     0.003 A 
ATOM     14  C   UNL d   1      22.959 -16.917  -0.932  0.00  0.00     0.029 A 
ATOM     15  C   UNL d   1      23.200 -17.926   0.004  0.00  0.00     0.026 A 
ATOM     16  C   UNL d   1      24.515 -18.163   0.418  0.00  0.00     0.036 A 
BRANCH  15  17
ATOM     17  N   UNL d   1      22.135 -18.574   0.609  0.00  0.00    -0.399 N 
ATOM     18  H   UNL d   1      22.125 -19.586   0.632  0.00  0.00     0.156 HD
ATOM     19  H   UNL d   1      21.570 -18.083   1.289  0.00  0.00     0.156 HD
ENDBRANCH  15  17
ENDBRANCH   1  11
TORSDOF 5
ENDMDL
MODEL 8
REMARK VINA RESULT:    -5.223      3.404      4.978
REMARK INTER + INTRA:          -7.556
REMARK INTER:                  -6.715
REMARK INTRA:                  -0.841
REMARK CONF_INDEPENDENT:        1.492
REMARK UNBOUND:                -0.841
REMARK  5 active torsions:
REMARK  status: ('A' for Active; 'I' for Inactive)
REMARK    1  A    between atoms: C_2  and  N_5 
REMARK       I    between atoms: N_5  and  C_6 
REMARK    2  A    between atoms: C_6  and  C_8 
REMARK    3  A    between atoms: C_8  and  C_9 
REMARK    4  A    between atoms: C_9  and  C_10 
REMARK    5  A    between atoms: C_14  and  N_15 
ROOT
ATOM      1  C   UNL d   1      27.081 -14.643  -0.344  0.00  0.00     0.048 C 
ENDROOT
BRANCH   1   2
ATOM      2  C   UNL d   1      27.305 -16.025   0.295  0.00  0.00     0.107 C 
BRANCH   2   3
ATOM      3  C   UNL d   1      26.257 -16.989  -0.172  0.00  0.00     0.218 C 
ATOM      4  N   UNL d   1      24.963 -16.502  -0.155  0.00  0.00    -0.353 N 
ATOM      5  H   UNL d   1      24.790 -15.551   0.151  0.00  0.00     0.163 HD
ATOM      6  O   UNL d   1      26.552 -18.134  -0.522  0.00  0.00    -0.274 OA
BRANCH   4   7
ATOM      7  C   UNL d   1      23.827 -17.339  -0.572  0.00  0.00     0.022 C 
ATOM      8  C   UNL d   1      22.509 -16.542  -0.520  0.00  0.00     0.037 C 
ATOM      9  C   UNL d   1      23.683 -18.542   0.376  0.00  0.00     0.037 C 
ATOM     10  C   UNL d   1      24.032 -17.812  -2.020  0.00  0.00     0.037 C 
ENDBRANCH   4   7
ENDBRANCH   2   3
ENDBRANCH   1   2
BRANCH   1  11
ATOM     11  C   UNL d   1      26.804 -14.703  -1.826  0.00  0.00    -0.056 A 
ATOM     12  C   UNL d   1      27.628 -15.439  -2.686  0.00  0.00     0.007 A 
ATOM     13  C   UNL d   1      27.391 -15.463  -4.052  0.00  0.00     0.003 A 
ATOM     14  C   UNL d   1      26.304 -14.772  -4.576  0.00  0.00     0.029 A 
ATOM     15  C   UNL d   1      25.427 -14.078  -3.741  0.00  0.00     0.026 A 
ATOM     16  C   UNL d   1      25.690 -14.039  -2.367  0.00  0.00     0.036 A 
BRANCH  15  17
ATOM     17  N   UNL d   1      24.400 -13.326  -4.290  0.00  0.00    -0.399 N 
ATOM     18  H   UNL d   1      24.434 -12.318  -4.214  0.00  0.00     0.156 HD
ATOM     19  H   UNL d   1      23.824 -13.723  -5.021  0.00  0.00     0.156 HD
ENDBRANCH  15  17
ENDBRANCH   1  11
TORSDOF 5
ENDMDL
MODEL 9
REMARK VINA RESULT:    -5.155      4.513      7.757
REMARK INTER + INTRA:          -7.318
REMARK INTER:                  -6.647
REMARK INTRA:                  -0.671
REMARK CONF_INDEPENDENT:        1.492
REMARK UNBOUND:                -0.671
REMARK  5 active torsions:
REMARK  status: ('A' for Active; 'I' for Inactive)
REMARK    1  A    between atoms: C_2  and  N_5 
REMARK       I    between atoms: N_5  and  C_6 
REMARK    2  A    between atoms: C_6  and  C_8 
REMARK    3  A    between atoms: C_8  and  C_9 
REMARK    4  A    between atoms: C_9  and  C_10 
REMARK    5  A    between atoms: C_14  and  N_15 
ROOT
ATOM      1  C   UNL d   1      25.576 -14.183  -2.393  0.00  0.00     0.048 C 
ENDROOT
BRANCH   1   2
ATOM      2  C   UNL d   1      25.156 -14.430  -3.851  0.00  0.00     0.107 C 
BRANCH   2   3
ATOM      3  C   UNL d   1      26.336 -14.867  -4.666  0.00  0.00     0.218 C 
ATOM      4  N   UNL d   1      27.512 -14.189  -4.403  0.00  0.00    -0.353 N 
ATOM      5  H   UNL d   1      27.524 -13.464  -3.695  0.00  0.00     0.163 HD
ATOM      6  O   UNL d   1      26.233 -15.755  -5.515  0.00  0.00    -0.274 OA
BRANCH   4   7
ATOM      7  C   UNL d   1      28.751 -14.497  -5.135  0.00  0.00     0.022 C 
ATOM      8  C   UNL d   1      29.901 -13.579  -4.680  0.00  0.00     0.037 C 
ATOM      9  C   UNL d   1      28.542 -14.274  -6.642  0.00  0.00     0.037 C 
ATOM     10  C   UNL d   1      29.172 -15.950  -4.856  0.00  0.00     0.037 C 
ENDBRANCH   4   7
ENDBRANCH   2   3
ENDBRANCH   1   2
BRANCH   1  11
ATOM     11  C   UNL d   1      25.850 -15.450  -1.621  0.00  0.00    -0.056 A 
ATOM     12  C   UNL d   1      24.848 -16.408  -1.427  0.00  0.00     0.007 A 
ATOM     13  C   UNL d   1      25.094 -17.556  -0.688  0.00  0.00     0.003 A 
ATOM     14  C   UNL d   1      26.359 -17.776  -0.154  0.00  0.00     0.029 A 
ATOM     15  C   UNL d   1      27.398 -16.871  -0.380  0.00  0.00     0.026 A 
ATOM     16  C   UNL d   1      27.133 -15.704  -1.106  0.00  0.00     0.036 A 
BRANCH  15  17
ATOM     17  N   UNL d   1      28.627 -17.065   0.230  0.00  0.00    -0.399 N 
ATOM     18  H   UNL d   1      28.910 -16.442   0.975  0.00  0.00     0.156 HD
ATOM     19  H   UNL d   1      29.073 -17.972   0.182  0.00  0.00     0.156 HD
ENDBRANCH  15  17
ENDBRANCH   1  11
TORSDOF 5
ENDMDL
