MODEL 1
REMARK VINA RESULT:    -9.196      0.000      0.000
REMARK INTER + INTRA:         -12.973
REMARK INTER:                 -11.582
REMARK INTRA:                  -1.391
REMARK CONF_INDEPENDENT:        2.386
REMARK UNBOUND:                -1.391
REMARK  8 active torsions:
REMARK  status: ('A' for Active; 'I' for Inactive)
REMARK    1  A    between atoms: O_2  and  C_3 
REMARK    2  A    between atoms: C_6  and  N_7 
REMARK    3  A    between atoms: N_7  and  C_8 
REMARK    4  A    between atoms: C_10  and  N_11 
REMARK    5  A    between atoms: N_11  and  C_12 
REMARK    6  A    between atoms: C_12  and  C_13 
REMARK    7  A    between atoms: C_13  and  O_14 
REMARK    8  A    between atoms: C_13  and  O_16 
ROOT
ATOM      1  C   UNL d   1      26.626 -15.209   0.022  0.00  0.00     0.050 C 
ATOM      2  C   UNL d   1      26.317 -14.549  -1.214  0.00  0.00     0.062 C 
ATOM      3  C   UNL d   1      26.779 -13.224  -1.547  0.00  0.00     0.062 C 
ATOM      4  C   UNL d   1      27.139 -12.456  -0.411  0.00  0.00     0.125 A 
ATOM      5  N   UNL d   1      27.575 -11.187  -0.196  0.00  0.00    -0.125 NA
ATOM      6  O   UNL d   1      27.979 -11.109   1.164  0.00  0.00    -0.211 OA
ATOM      7  C   UNL d   1      27.736 -12.307   1.737  0.00  0.00     0.126 A 
ATOM      8  C   UNL d   1      27.228 -13.131   0.802  0.00  0.00     0.051 A 
ATOM      9  C   UNL d   1      27.263 -14.489   1.032  0.00  0.00     0.057 C 
ATOM     10  C   UNL d   1      28.553 -14.802   1.729  0.00  0.00     0.196 C 
ATOM     11  O   UNL d   1      29.535 -15.205   1.104  0.00  0.00    -0.286 OA
ATOM     12  C   UNL d   1      28.685 -14.092   3.037  0.00  0.00     0.028 C 
ATOM     13  C   UNL d   1      28.912 -14.814   4.200  0.00  0.00     0.016 C 
ATOM     14  C   UNL d   1      28.382 -14.301   5.380  0.00  0.00     0.001 C 
ATOM     15  C   UNL d   1      27.713 -13.065   5.383  0.00  0.00     0.001 C 
ATOM     16  C   UNL d   1      27.621 -12.281   4.225  0.00  0.00     0.015 C 
ATOM     17  C   UNL d   1      28.143 -12.775   3.042  0.00  0.00     0.015 C 
ENDROOT
BRANCH   1  18
ATOM     18  N   UNL d   1      26.153 -16.521   0.275  0.00  0.00    -0.355 N 
ATOM     19  H   UNL d   1      26.896 -17.203   0.392  0.00  0.00     0.166 HD
BRANCH  18  20
ATOM     20  C   UNL d   1      24.931 -17.100  -0.158  0.00  0.00     0.032 A 
ATOM     21  C   UNL d   1      24.780 -18.496  -0.144  0.00  0.00     0.032 A 
ATOM     22  C   UNL d   1      23.574 -19.104  -0.538  0.00  0.00     0.039 A 
ATOM     23  C   UNL d   1      22.474 -18.328  -0.905  0.00  0.00     0.068 A 
ATOM     24  C   UNL d   1      22.596 -16.943  -0.883  0.00  0.00     0.039 A 
ATOM     25  C   UNL d   1      23.811 -16.340  -0.519  0.00  0.00     0.032 A 
BRANCH  23  26
ATOM     26  O   UNL d   1      21.315 -19.003  -1.171  0.00  0.00    -0.356 OA
ATOM     27  C   UNL d   1      20.755 -19.732  -0.081  0.00  0.00     0.210 C 
ENDBRANCH  23  26
ENDBRANCH  18  20
ENDBRANCH   1  18
BRANCH   3  28
ATOM     28  N   UNL d   1      26.853 -12.844  -2.874  0.00  0.00    -0.383 N 
ATOM     29  H   UNL d   1      25.994 -12.428  -3.224  0.00  0.00     0.159 HD
BRANCH  28  30
ATOM     30  C   UNL d   1      27.530 -13.743  -3.822  0.00  0.00     0.180 C 
BRANCH  30  31
ATOM     31  C   UNL d   1      26.562 -14.197  -4.937  0.00  0.00     0.275 C 
BRANCH  31  32
ATOM     32  O   UNL d   1      27.135 -15.214  -5.773  0.00  0.00    -0.364 OA
ATOM     33  C   UNL d   1      28.552 -15.180  -5.859  0.00  0.00     0.204 C 
ENDBRANCH  31  32
BRANCH  31  34
ATOM     34  O   UNL d   1      25.380 -14.704  -4.304  0.00  0.00    -0.364 OA
ATOM     35  C   UNL d   1      24.383 -13.700  -4.198  0.00  0.00     0.204 C 
ENDBRANCH  31  34
ENDBRANCH  30  31
ENDBRANCH  28  30
ENDBRANCH   3  28
TORSDOF 8
ENDMDL
MODEL 2
REMARK VINA RESULT:    -8.928      2.923      7.208
REMARK INTER + INTRA:         -13.370
REMARK INTER:                 -11.315
REMARK INTRA:                  -2.056
REMARK CONF_INDEPENDENT:        2.386
REMARK UNBOUND:                -2.056
REMARK  8 active torsions:
REMARK  status: ('A' for Active; 'I' for Inactive)
REMARK    1  A    between atoms: O_2  and  C_3 
REMARK    2  A    between atoms: C_6  and  N_7 
REMARK    3  A    between atoms: N_7  and  C_8 
REMARK    4  A    between atoms: C_10  and  N_11 
REMARK    5  A    between atoms: N_11  and  C_12 
REMARK    6  A    between atoms: C_12  and  C_13 
REMARK    7  A    between atoms: C_13  and  O_14 
REMARK    8  A    between atoms: C_13  and  O_16 
ROOT
ATOM      1  C   UNL d   1      24.841 -15.282  -1.863  0.00  0.00     0.050 C 
ATOM      2  C   UNL d   1      23.638 -16.033  -1.644  0.00  0.00     0.062 C 
ATOM      3  C   UNL d   1      23.512 -17.062  -0.641  0.00  0.00     0.062 C 
ATOM      4  C   UNL d   1      24.758 -17.596  -0.229  0.00  0.00     0.125 A 
ATOM      5  N   UNL d   1      25.161 -18.574   0.624  0.00  0.00    -0.125 NA
ATOM      6  O   UNL d   1      26.570 -18.457   0.760  0.00  0.00    -0.211 OA
ATOM      7  C   UNL d   1      26.981 -17.451  -0.041  0.00  0.00     0.126 A 
ATOM      8  C   UNL d   1      25.901 -16.922  -0.646  0.00  0.00     0.051 A 
ATOM      9  C   UNL d   1      26.006 -15.664  -1.196  0.00  0.00     0.057 C 
ATOM     10  C   UNL d   1      26.876 -14.840  -0.293  0.00  0.00     0.196 C 
ATOM     11  O   UNL d   1      26.387 -14.085   0.547  0.00  0.00    -0.286 OA
ATOM     12  C   UNL d   1      28.248 -15.412  -0.142  0.00  0.00     0.028 C 
ATOM     13  C   UNL d   1      29.359 -14.638  -0.444  0.00  0.00     0.016 C 
ATOM     14  C   UNL d   1      30.477 -15.301  -0.941  0.00  0.00     0.001 C 
ATOM     15  C   UNL d   1      30.485 -16.702  -1.054  0.00  0.00     0.001 C 
ATOM     16  C   UNL d   1      29.406 -17.477  -0.606  0.00  0.00     0.015 C 
ATOM     17  C   UNL d   1      28.286 -16.835  -0.108  0.00  0.00     0.015 C 
ENDROOT
BRANCH   1  18
ATOM     18  N   UNL d   1      24.890 -14.271  -2.855  0.00  0.00    -0.355 N 
ATOM     19  H   UNL d   1      23.980 -13.881  -3.079  0.00  0.00     0.166 HD
BRANCH  18  20
ATOM     20  C   UNL d   1      25.825 -14.143  -3.916  0.00  0.00     0.032 A 
ATOM     21  C   UNL d   1      26.110 -12.873  -4.442  0.00  0.00     0.032 A 
ATOM     22  C   UNL d   1      27.053 -12.704  -5.472  0.00  0.00     0.039 A 
ATOM     23  C   UNL d   1      27.770 -13.795  -5.964  0.00  0.00     0.068 A 
ATOM     24  C   UNL d   1      27.529 -15.053  -5.423  0.00  0.00     0.039 A 
ATOM     25  C   UNL d   1      26.565 -15.222  -4.416  0.00  0.00     0.032 A 
BRANCH  23  26
ATOM     26  O   UNL d   1      28.738 -13.519  -6.890  0.00  0.00    -0.356 OA
ATOM     27  C   UNL d   1      29.889 -14.360  -6.856  0.00  0.00     0.210 C 
ENDBRANCH  23  26
ENDBRANCH  18  20
ENDBRANCH   1  18
BRANCH   3  28
ATOM     28  N   UNL d   1      22.257 -17.403  -0.173  0.00  0.00    -0.383 N 
ATOM     29  H   UNL d   1      22.198 -17.438   0.841  0.00  0.00     0.159 HD
BRANCH  28  30
ATOM     30  C   UNL d   1      21.518 -18.470  -0.867  0.00  0.00     0.180 C 
BRANCH  30  31
ATOM     31  C   UNL d   1      20.733 -19.340   0.139  0.00  0.00     0.275 C 
BRANCH  31  32
ATOM     32  O   UNL d   1      20.977 -18.950   1.500  0.00  0.00    -0.364 OA
ATOM     33  C   UNL d   1      20.262 -19.703   2.468  0.00  0.00     0.204 C 
ENDBRANCH  31  32
BRANCH  31  34
ATOM     34  O   UNL d   1      19.338 -19.195  -0.160  0.00  0.00    -0.364 OA
ATOM     35  C   UNL d   1      18.677 -20.450  -0.143  0.00  0.00     0.204 C 
ENDBRANCH  31  34
ENDBRANCH  30  31
ENDBRANCH  28  30
ENDBRANCH   3  28
TORSDOF 8
ENDMDL
MODEL 3
REMARK VINA RESULT:    -8.772      1.954      6.293
REMARK INTER + INTRA:         -13.149
REMARK INTER:                 -11.159
REMARK INTRA:                  -1.991
REMARK CONF_INDEPENDENT:        2.386
REMARK UNBOUND:                -1.991
REMARK  8 active torsions:
REMARK  status: ('A' for Active; 'I' for Inactive)
REMARK    1  A    between atoms: O_2  and  C_3 
REMARK    2  A    between atoms: C_6  and  N_7 
REMARK    3  A    between atoms: N_7  and  C_8 
REMARK    4  A    between atoms: C_10  and  N_11 
REMARK    5  A    between atoms: N_11  and  C_12 
REMARK    6  A    between atoms: C_12  and  C_13 
REMARK    7  A    between atoms: C_13  and  O_14 
REMARK    8  A    between atoms: C_13  and  O_16 
ROOT
ATOM      1  C   UNL d   1      26.850 -16.487  -0.243  0.00  0.00     0.050 C 
ATOM      2  C   UNL d   1      27.466 -16.216   1.024  0.00  0.00     0.062 C 
ATOM      3  C   UNL d   1      28.261 -15.042   1.290  0.00  0.00     0.062 C 
ATOM      4  C   UNL d   1      28.777 -14.440   0.115  0.00  0.00     0.125 A 
ATOM      5  N   UNL d   1      29.586 -13.383  -0.159  0.00  0.00    -0.125 NA
ATOM      6  O   UNL d   1      29.531 -13.167  -1.562  0.00  0.00    -0.211 OA
ATOM      7  C   UNL d   1      28.734 -14.117  -2.096  0.00  0.00     0.126 A 
ATOM      8  C   UNL d   1      28.273 -14.895  -1.099  0.00  0.00     0.051 A 
ATOM      9  C   UNL d   1      27.160 -15.673  -1.332  0.00  0.00     0.057 C 
ATOM     10  C   UNL d   1      26.227 -14.887  -2.204  0.00  0.00     0.196 C 
ATOM     11  O   UNL d   1      25.288 -14.250  -1.724  0.00  0.00    -0.286 OA
ATOM     12  C   UNL d   1      26.839 -14.522  -3.517  0.00  0.00     0.028 C 
ATOM     13  C   UNL d   1      26.213 -14.886  -4.701  0.00  0.00     0.016 C 
ATOM     14  C   UNL d   1      27.030 -15.157  -5.794  0.00  0.00     0.001 C 
ATOM     15  C   UNL d   1      28.423 -14.990  -5.703  0.00  0.00     0.001 C 
ATOM     16  C   UNL d   1      29.023 -14.481  -4.543  0.00  0.00     0.015 C 
ATOM     17  C   UNL d   1      28.225 -14.206  -3.446  0.00  0.00     0.015 C 
ENDROOT
BRANCH   1  18
ATOM     18  N   UNL d   1      26.065 -17.653  -0.429  0.00  0.00    -0.355 N 
ATOM     19  H   UNL d   1      26.530 -18.370  -0.975  0.00  0.00     0.166 HD
BRANCH  18  20
ATOM     20  C   UNL d   1      24.649 -17.743  -0.484  0.00  0.00     0.032 A 
ATOM     21  C   UNL d   1      23.886 -16.582  -0.684  0.00  0.00     0.032 A 
ATOM     22  C   UNL d   1      22.483 -16.637  -0.775  0.00  0.00     0.039 A 
ATOM     23  C   UNL d   1      21.815 -17.860  -0.717  0.00  0.00     0.068 A 
ATOM     24  C   UNL d   1      22.561 -19.023  -0.561  0.00  0.00     0.039 A 
ATOM     25  C   UNL d   1      23.959 -18.961  -0.441  0.00  0.00     0.032 A 
BRANCH  23  26
ATOM     26  O   UNL d   1      20.463 -17.825  -0.918  0.00  0.00    -0.356 OA
ATOM     27  C   UNL d   1      19.797 -19.086  -0.895  0.00  0.00     0.210 C 
ENDBRANCH  23  26
ENDBRANCH  18  20
ENDBRANCH   1  18
BRANCH   3  28
ATOM     28  N   UNL d   1      28.422 -14.613   2.593  0.00  0.00    -0.383 N 
ATOM     29  H   UNL d   1      28.910 -15.281   3.183  0.00  0.00     0.159 HD
BRANCH  28  30
ATOM     30  C   UNL d   1      27.298 -13.925   3.247  0.00  0.00     0.180 C 
BRANCH  30  31
ATOM     31  C   UNL d   1      27.388 -14.062   4.784  0.00  0.00     0.275 C 
BRANCH  31  32
ATOM     32  O   UNL d   1      28.206 -15.173   5.183  0.00  0.00    -0.364 OA
ATOM     33  C   UNL d   1      29.518 -14.821   5.599  0.00  0.00     0.204 C 
ENDBRANCH  31  32
BRANCH  31  34
ATOM     34  O   UNL d   1      27.946 -12.844   5.294  0.00  0.00    -0.364 OA
ATOM     35  C   UNL d   1      27.974 -11.835   4.297  0.00  0.00     0.204 C 
ENDBRANCH  31  34
ENDBRANCH  30  31
ENDBRANCH  28  30
ENDBRANCH   3  28
TORSDOF 8
ENDMDL
MODEL 4
REMARK VINA RESULT:    -8.537      1.371      2.194
REMARK INTER + INTRA:         -12.901
REMARK INTER:                 -10.923
REMARK INTRA:                  -1.978
REMARK CONF_INDEPENDENT:        2.386
REMARK UNBOUND:                -1.978
REMARK  8 active torsions:
REMARK  status: ('A' for Active; 'I' for Inactive)
REMARK    1  A    between atoms: O_2  and  C_3 
REMARK    2  A    between atoms: C_6  and  N_7 
REMARK    3  A    between atoms: N_7  and  C_8 
REMARK    4  A    between atoms: C_10  and  N_11 
REMARK    5  A    between atoms: N_11  and  C_12 
REMARK    6  A    between atoms: C_12  and  C_13 
REMARK    7  A    between atoms: C_13  and  O_14 
REMARK    8  A    between atoms: C_13  and  O_16 
ROOT
ATOM      1  C   UNL d   1      25.976 -15.792  -1.219  0.00  0.00     0.050 C 
ATOM      2  C   UNL d   1      25.599 -15.443  -2.559  0.00  0.00     0.062 C 
ATOM      3  C   UNL d   1      26.051 -14.249  -3.230  0.00  0.00     0.062 C 
ATOM      4  C   UNL d   1      26.485 -13.238  -2.336  0.00  0.00     0.125 A 
ATOM      5  N   UNL d   1      26.945 -11.964  -2.460  0.00  0.00    -0.125 NA
ATOM      6  O   UNL d   1      27.430 -11.569  -1.185  0.00  0.00    -0.211 OA
ATOM      7  C   UNL d   1      27.213 -12.586  -0.326  0.00  0.00     0.126 A 
ATOM      8  C   UNL d   1      26.642 -13.600  -1.003  0.00  0.00     0.051 A 
ATOM      9  C   UNL d   1      26.679 -14.862  -0.452  0.00  0.00     0.057 C 
ATOM     10  C   UNL d   1      28.007 -15.027   0.226  0.00  0.00     0.196 C 
ATOM     11  O   UNL d   1      28.945 -15.592  -0.337  0.00  0.00    -0.286 OA
ATOM     12  C   UNL d   1      28.224 -14.025   1.313  0.00  0.00     0.028 C 
ATOM     13  C   UNL d   1      28.515 -14.450   2.601  0.00  0.00     0.016 C 
ATOM     14  C   UNL d   1      28.061 -13.654   3.649  0.00  0.00     0.001 C 
ATOM     15  C   UNL d   1      27.404 -12.439   3.390  0.00  0.00     0.001 C 
ATOM     16  C   UNL d   1      27.249 -11.956   2.084  0.00  0.00     0.015 C 
ATOM     17  C   UNL d   1      27.694 -12.734   1.029  0.00  0.00     0.015 C 
ENDROOT
BRANCH   1  18
ATOM     18  N   UNL d   1      25.508 -16.992  -0.628  0.00  0.00    -0.355 N 
ATOM     19  H   UNL d   1      26.209 -17.725  -0.594  0.00  0.00     0.166 HD
BRANCH  18  20
ATOM     20  C   UNL d   1      24.180 -17.493  -0.620  0.00  0.00     0.032 A 
ATOM     21  C   UNL d   1      23.106 -16.621  -0.865  0.00  0.00     0.032 A 
ATOM     22  C   UNL d   1      21.780 -17.087  -0.895  0.00  0.00     0.039 A 
ATOM     23  C   UNL d   1      21.499 -18.443  -0.731  0.00  0.00     0.068 A 
ATOM     24  C   UNL d   1      22.555 -19.325  -0.529  0.00  0.00     0.039 A 
ATOM     25  C   UNL d   1      23.877 -18.852  -0.469  0.00  0.00     0.032 A 
BRANCH  23  26
ATOM     26  O   UNL d   1      20.192 -18.817  -0.879  0.00  0.00    -0.356 OA
ATOM     27  C   UNL d   1      19.679 -19.695   0.121  0.00  0.00     0.210 C 
ENDBRANCH  23  26
ENDBRANCH  18  20
ENDBRANCH   1  18
BRANCH   3  28
ATOM     28  N   UNL d   1      26.047 -14.203  -4.610  0.00  0.00    -0.383 N 
ATOM     29  H   UNL d   1      26.042 -15.121  -5.046  0.00  0.00     0.159 HD
BRANCH  28  30
ATOM     30  C   UNL d   1      26.902 -13.211  -5.280  0.00  0.00     0.180 C 
BRANCH  30  31
ATOM     31  C   UNL d   1      28.130 -13.890  -5.927  0.00  0.00     0.275 C 
BRANCH  31  32
ATOM     32  O   UNL d   1      28.044 -15.323  -5.883  0.00  0.00    -0.364 OA
ATOM     33  C   UNL d   1      28.930 -15.941  -4.962  0.00  0.00     0.204 C 
ENDBRANCH  31  32
BRANCH  31  34
ATOM     34  O   UNL d   1      28.197 -13.453  -7.291  0.00  0.00    -0.364 OA
ATOM     35  C   UNL d   1      28.234 -12.037  -7.375  0.00  0.00     0.204 C 
ENDBRANCH  31  34
ENDBRANCH  30  31
ENDBRANCH  28  30
ENDBRANCH   3  28
TORSDOF 8
ENDMDL
MODEL 5
REMARK VINA RESULT:    -8.487      3.697      6.782
REMARK INTER + INTRA:         -12.733
REMARK INTER:                 -10.873
REMARK INTRA:                  -1.860
REMARK CONF_INDEPENDENT:        2.386
REMARK UNBOUND:                -1.860
REMARK  8 active torsions:
REMARK  status: ('A' for Active; 'I' for Inactive)
REMARK    1  A    between atoms: O_2  and  C_3 
REMARK    2  A    between atoms: C_6  and  N_7 
REMARK    3  A    between atoms: N_7  and  C_8 
REMARK    4  A    between atoms: C_10  and  N_11 
REMARK    5  A    between atoms: N_11  and  C_12 
REMARK    6  A    between atoms: C_12  and  C_13 
REMARK    7  A    between atoms: C_13  and  O_14 
REMARK    8  A    between atoms: C_13  and  O_16 
ROOT
ATOM      1  C   UNL d   1      28.395 -15.525  -4.008  0.00  0.00     0.050 C 
ATOM      2  C   UNL d   1      28.179 -14.646  -5.121  0.00  0.00     0.062 C 
ATOM      3  C   UNL d   1      27.033 -13.780  -5.243  0.00  0.00     0.062 C 
ATOM      4  C   UNL d   1      25.932 -14.198  -4.453  0.00  0.00     0.125 A 
ATOM      5  N   UNL d   1      24.658 -13.766  -4.258  0.00  0.00    -0.125 NA
ATOM      6  O   UNL d   1      24.135 -14.492  -3.155  0.00  0.00    -0.211 OA
ATOM      7  C   UNL d   1      25.081 -15.365  -2.748  0.00  0.00     0.126 A 
ATOM      8  C   UNL d   1      26.171 -15.202  -3.521  0.00  0.00     0.051 A 
ATOM      9  C   UNL d   1      27.377 -15.687  -3.068  0.00  0.00     0.057 C 
ATOM     10  C   UNL d   1      27.433 -15.465  -1.586  0.00  0.00     0.196 C 
ATOM     11  O   UNL d   1      28.009 -14.487  -1.109  0.00  0.00    -0.286 OA
ATOM     12  C   UNL d   1      26.332 -16.168  -0.860  0.00  0.00     0.028 C 
ATOM     13  C   UNL d   1      26.632 -17.059   0.160  0.00  0.00     0.016 C 
ATOM     14  C   UNL d   1      25.765 -18.134   0.338  0.00  0.00     0.001 C 
ATOM     15  C   UNL d   1      24.602 -18.250  -0.443  0.00  0.00     0.001 C 
ATOM     16  C   UNL d   1      24.242 -17.261  -1.368  0.00  0.00     0.015 C 
ATOM     17  C   UNL d   1      25.092 -16.185  -1.558  0.00  0.00     0.015 C 
ENDROOT
BRANCH   1  18
ATOM     18  N   UNL d   1      29.556 -16.336  -3.945  0.00  0.00    -0.355 N 
ATOM     19  H   UNL d   1      30.262 -15.982  -3.309  0.00  0.00     0.166 HD
BRANCH  18  20
ATOM     20  C   UNL d   1      30.094 -17.159  -4.970  0.00  0.00     0.032 A 
ATOM     21  C   UNL d   1      30.272 -18.532  -4.737  0.00  0.00     0.032 A 
ATOM     22  C   UNL d   1      30.774 -19.383  -5.738  0.00  0.00     0.039 A 
ATOM     23  C   UNL d   1      31.062 -18.891  -7.011  0.00  0.00     0.068 A 
ATOM     24  C   UNL d   1      30.851 -17.541  -7.269  0.00  0.00     0.039 A 
ATOM     25  C   UNL d   1      30.379 -16.687  -6.257  0.00  0.00     0.032 A 
BRANCH  23  26
ATOM     26  O   UNL d   1      31.446 -19.810  -7.947  0.00  0.00    -0.356 OA
ATOM     27  C   UNL d   1      30.813 -19.702  -9.221  0.00  0.00     0.210 C 
ENDBRANCH  23  26
ENDBRANCH  18  20
ENDBRANCH   1  18
BRANCH   3  28
ATOM     28  N   UNL d   1      27.108 -12.664  -6.053  0.00  0.00    -0.383 N 
ATOM     29  H   UNL d   1      26.202 -12.335  -6.376  0.00  0.00     0.159 HD
BRANCH  28  30
ATOM     30  C   UNL d   1      28.178 -12.603  -7.062  0.00  0.00     0.180 C 
BRANCH  30  31
ATOM     31  C   UNL d   1      27.796 -11.645  -8.212  0.00  0.00     0.275 C 
BRANCH  31  32
ATOM     32  O   UNL d   1      27.735 -12.316  -9.481  0.00  0.00    -0.364 OA
ATOM     33  C   UNL d   1      28.909 -12.197 -10.270  0.00  0.00     0.204 C 
ENDBRANCH  31  32
BRANCH  31  34
ATOM     34  O   UNL d   1      26.513 -11.085  -7.901  0.00  0.00    -0.364 OA
ATOM     35  C   UNL d   1      26.638  -9.768  -7.389  0.00  0.00     0.204 C 
ENDBRANCH  31  34
ENDBRANCH  30  31
ENDBRANCH  28  30
ENDBRANCH   3  28
TORSDOF 8
ENDMDL
MODEL 6
REMARK VINA RESULT:    -8.299      3.694      6.774
REMARK INTER + INTRA:         -12.786
REMARK INTER:                 -10.685
REMARK INTRA:                  -2.101
REMARK CONF_INDEPENDENT:        2.386
REMARK UNBOUND:                -2.101
REMARK  8 active torsions:
REMARK  status: ('A' for Active; 'I' for Inactive)
REMARK    1  A    between atoms: O_2  and  C_3 
REMARK    2  A    between atoms: C_6  and  N_7 
REMARK    3  A    between atoms: N_7  and  C_8 
REMARK    4  A    between atoms: C_10  and  N_11 
REMARK    5  A    between atoms: N_11  and  C_12 
REMARK    6  A    between atoms: C_12  and  C_13 
REMARK    7  A    between atoms: C_13  and  O_14 
REMARK    8  A    between atoms: C_13  and  O_16 
ROOT
ATOM      1  C   UNL d   1      28.485 -15.749  -3.956  0.00  0.00     0.050 C 
ATOM      2  C   UNL d   1      28.302 -14.884  -5.085  0.00  0.00     0.062 C 
ATOM      3  C   UNL d   1      27.183 -13.985  -5.229  0.00  0.00     0.062 C 
ATOM      4  C   UNL d   1      26.066 -14.355  -4.438  0.00  0.00     0.125 A 
ATOM      5  N   UNL d   1      24.805 -13.881  -4.257  0.00  0.00    -0.125 NA
ATOM      6  O   UNL d   1      24.254 -14.572  -3.145  0.00  0.00    -0.211 OA
ATOM      7  C   UNL d   1      25.171 -15.466  -2.718  0.00  0.00     0.126 A 
ATOM      8  C   UNL d   1      26.269 -15.350  -3.488  0.00  0.00     0.051 A 
ATOM      9  C   UNL d   1      27.458 -15.864  -3.020  0.00  0.00     0.057 C 
ATOM     10  C   UNL d   1      27.512 -15.618  -1.541  0.00  0.00     0.196 C 
ATOM     11  O   UNL d   1      28.116 -14.650  -1.077  0.00  0.00    -0.286 OA
ATOM     12  C   UNL d   1      26.387 -16.273  -0.809  0.00  0.00     0.028 C 
ATOM     13  C   UNL d   1      26.654 -17.156   0.228  0.00  0.00     0.016 C 
ATOM     14  C   UNL d   1      25.754 -18.200   0.420  0.00  0.00     0.001 C 
ATOM     15  C   UNL d   1      24.592 -18.294  -0.366  0.00  0.00     0.001 C 
ATOM     16  C   UNL d   1      24.267 -17.311  -1.310  0.00  0.00     0.015 C 
ATOM     17  C   UNL d   1      25.150 -16.265  -1.514  0.00  0.00     0.015 C 
ENDROOT
BRANCH   1  18
ATOM     18  N   UNL d   1      29.620 -16.594  -3.872  0.00  0.00    -0.355 N 
ATOM     19  H   UNL d   1      30.315 -16.272  -3.207  0.00  0.00     0.166 HD
BRANCH  18  20
ATOM     20  C   UNL d   1      30.168 -17.413  -4.895  0.00  0.00     0.032 A 
ATOM     21  C   UNL d   1      30.405 -18.774  -4.645  0.00  0.00     0.032 A 
ATOM     22  C   UNL d   1      30.918 -19.621  -5.643  0.00  0.00     0.039 A 
ATOM     23  C   UNL d   1      31.159 -19.139  -6.930  0.00  0.00     0.068 A 
ATOM     24  C   UNL d   1      30.889 -17.803  -7.205  0.00  0.00     0.039 A 
ATOM     25  C   UNL d   1      30.405 -16.952  -6.197  0.00  0.00     0.032 A 
BRANCH  23  26
ATOM     26  O   UNL d   1      31.558 -20.059  -7.860  0.00  0.00    -0.356 OA
ATOM     27  C   UNL d   1      31.155 -19.800  -9.203  0.00  0.00     0.210 C 
ENDBRANCH  23  26
ENDBRANCH  18  20
ENDBRANCH   1  18
BRANCH   3  28
ATOM     28  N   UNL d   1      27.297 -12.886  -6.058  0.00  0.00    -0.383 N 
ATOM     29  H   UNL d   1      26.726 -12.950  -6.896  0.00  0.00     0.159 HD
BRANCH  28  30
ATOM     30  C   UNL d   1      28.632 -12.304  -6.268  0.00  0.00     0.180 C 
BRANCH  30  31
ATOM     31  C   UNL d   1      29.236 -12.782  -7.607  0.00  0.00     0.275 C 
BRANCH  31  32
ATOM     32  O   UNL d   1      29.950 -14.020  -7.469  0.00  0.00    -0.364 OA
ATOM     33  C   UNL d   1      31.356 -13.915  -7.641  0.00  0.00     0.204 C 
ENDBRANCH  31  32
BRANCH  31  34
ATOM     34  O   UNL d   1      28.155 -12.950  -8.534  0.00  0.00    -0.364 OA
ATOM     35  C   UNL d   1      28.312 -12.106  -9.664  0.00  0.00     0.204 C 
ENDBRANCH  31  34
ENDBRANCH  30  31
ENDBRANCH  28  30
ENDBRANCH   3  28
TORSDOF 8
ENDMDL
MODEL 7
REMARK VINA RESULT:    -8.287      3.688      6.771
REMARK INTER + INTRA:         -12.849
REMARK INTER:                 -10.673
REMARK INTRA:                  -2.176
REMARK CONF_INDEPENDENT:        2.386
REMARK UNBOUND:                -2.176
REMARK  8 active torsions:
REMARK  status: ('A' for Active; 'I' for Inactive)
REMARK    1  A    between atoms: O_2  and  C_3 
REMARK    2  A    between atoms: C_6  and  N_7 
REMARK    3  A    between atoms: N_7  and  C_8 
REMARK    4  A    between atoms: C_10  and  N_11 
REMARK    5  A    between atoms: N_11  and  C_12 
REMARK    6  A    between atoms: C_12  and  C_13 
REMARK    7  A    between atoms: C_13  and  O_14 
REMARK    8  A    between atoms: C_13  and  O_16 
ROOT
ATOM      1  C   UNL d   1      28.346 -15.402  -4.003  0.00  0.00     0.050 C 
ATOM      2  C   UNL d   1      28.124 -14.518  -5.111  0.00  0.00     0.062 C 
ATOM      3  C   UNL d   1      26.963 -13.671  -5.236  0.00  0.00     0.062 C 
ATOM      4  C   UNL d   1      25.863 -14.114  -4.459  0.00  0.00     0.125 A 
ATOM      5  N   UNL d   1      24.580 -13.706  -4.271  0.00  0.00    -0.125 NA
ATOM      6  O   UNL d   1      24.060 -14.450  -3.179  0.00  0.00    -0.211 OA
ATOM      7  C   UNL d   1      25.018 -15.309  -2.770  0.00  0.00     0.126 A 
ATOM      8  C   UNL d   1      26.112 -15.121  -3.533  0.00  0.00     0.051 A 
ATOM      9  C   UNL d   1      27.323 -15.589  -3.073  0.00  0.00     0.057 C 
ATOM     10  C   UNL d   1      27.362 -15.377  -1.589  0.00  0.00     0.196 C 
ATOM     11  O   UNL d   1      27.917 -14.393  -1.099  0.00  0.00    -0.286 OA
ATOM     12  C   UNL d   1      26.268 -16.105  -0.878  0.00  0.00     0.028 C 
ATOM     13  C   UNL d   1      26.574 -16.999   0.138  0.00  0.00     0.016 C 
ATOM     14  C   UNL d   1      25.725 -18.090   0.301  0.00  0.00     0.001 C 
ATOM     15  C   UNL d   1      24.571 -18.220  -0.491  0.00  0.00     0.001 C 
ATOM     16  C   UNL d   1      24.201 -17.231  -1.412  0.00  0.00     0.015 C 
ATOM     17  C   UNL d   1      25.033 -16.138  -1.587  0.00  0.00     0.015 C 
ENDROOT
BRANCH   1  18
ATOM     18  N   UNL d   1      29.520 -16.193  -3.936  0.00  0.00    -0.355 N 
ATOM     19  H   UNL d   1      30.246 -15.789  -3.354  0.00  0.00     0.166 HD
BRANCH  18  20
ATOM     20  C   UNL d   1      30.028 -17.073  -4.927  0.00  0.00     0.032 A 
ATOM     21  C   UNL d   1      30.133 -18.446  -4.650  0.00  0.00     0.032 A 
ATOM     22  C   UNL d   1      30.603 -19.352  -5.617  0.00  0.00     0.039 A 
ATOM     23  C   UNL d   1      30.932 -18.915  -6.900  0.00  0.00     0.068 A 
ATOM     24  C   UNL d   1      30.793 -17.565  -7.203  0.00  0.00     0.039 A 
ATOM     25  C   UNL d   1      30.352 -16.658  -6.225  0.00  0.00     0.032 A 
BRANCH  23  26
ATOM     26  O   UNL d   1      31.280 -19.882  -7.803  0.00  0.00    -0.356 OA
ATOM     27  C   UNL d   1      30.781 -19.706  -9.127  0.00  0.00     0.210 C 
ENDBRANCH  23  26
ENDBRANCH  18  20
ENDBRANCH   1  18
BRANCH   3  28
ATOM     28  N   UNL d   1      27.026 -12.547  -6.037  0.00  0.00    -0.383 N 
ATOM     29  H   UNL d   1      27.975 -12.253  -6.249  0.00  0.00     0.159 HD
BRANCH  28  30
ATOM     30  C   UNL d   1      26.087 -11.445  -5.771  0.00  0.00     0.180 C 
BRANCH  30  31
ATOM     31  C   UNL d   1      26.711 -10.412  -4.807  0.00  0.00     0.275 C 
BRANCH  31  32
ATOM     32  O   UNL d   1      26.059 -10.400  -3.528  0.00  0.00    -0.364 OA
ATOM     33  C   UNL d   1      25.530  -9.140  -3.144  0.00  0.00     0.204 C 
ENDBRANCH  31  32
BRANCH  31  34
ATOM     34  O   UNL d   1      28.093 -10.754  -4.641  0.00  0.00    -0.364 OA
ATOM     35  C   UNL d   1      28.350 -11.226  -3.328  0.00  0.00     0.204 C 
ENDBRANCH  31  34
ENDBRANCH  30  31
ENDBRANCH  28  30
ENDBRANCH   3  28
TORSDOF 8
ENDMDL
MODEL 8
REMARK VINA RESULT:    -7.701      2.208      6.100
REMARK INTER + INTRA:         -12.200
REMARK INTER:                 -10.087
REMARK INTRA:                  -2.113
REMARK CONF_INDEPENDENT:        2.386
REMARK UNBOUND:                -2.113
REMARK  8 active torsions:
REMARK  status: ('A' for Active; 'I' for Inactive)
REMARK    1  A    between atoms: O_2  and  C_3 
REMARK    2  A    between atoms: C_6  and  N_7 
REMARK    3  A    between atoms: N_7  and  C_8 
REMARK    4  A    between atoms: C_10  and  N_11 
REMARK    5  A    between atoms: N_11  and  C_12 
REMARK    6  A    between atoms: C_12  and  C_13 
REMARK    7  A    between atoms: C_13  and  O_14 
REMARK    8  A    between atoms: C_13  and  O_16 
ROOT
ATOM      1  C   UNL d   1      26.588 -14.612  -0.156  0.00  0.00     0.050 C 
ATOM      2  C   UNL d   1      26.712 -13.697   0.942  0.00  0.00     0.062 C 
ATOM      3  C   UNL d   1      26.871 -12.273   0.779  0.00  0.00     0.062 C 
ATOM      4  C   UNL d   1      27.367 -11.909  -0.499  0.00  0.00     0.125 A 
ATOM      5  N   UNL d   1      27.716 -10.747  -1.110  0.00  0.00    -0.125 NA
ATOM      6  O   UNL d   1      27.921 -11.041  -2.484  0.00  0.00    -0.211 OA
ATOM      7  C   UNL d   1      27.736 -12.368  -2.655  0.00  0.00     0.126 A 
ATOM      8  C   UNL d   1      27.402 -12.907  -1.467  0.00  0.00     0.051 A 
ATOM      9  C   UNL d   1      26.795 -14.143  -1.453  0.00  0.00     0.057 C 
ATOM     10  C   UNL d   1      25.866 -14.210  -2.629  0.00  0.00     0.196 C 
ATOM     11  O   UNL d   1      24.664 -13.972  -2.506  0.00  0.00    -0.286 OA
ATOM     12  C   UNL d   1      26.576 -14.041  -3.932  0.00  0.00     0.028 C 
ATOM     13  C   UNL d   1      26.460 -15.011  -4.917  0.00  0.00     0.016 C 
ATOM     14  C   UNL d   1      27.556 -15.200  -5.754  0.00  0.00     0.001 C 
ATOM     15  C   UNL d   1      28.692 -14.381  -5.637  0.00  0.00     0.001 C 
ATOM     16  C   UNL d   1      28.733 -13.312  -4.733  0.00  0.00     0.015 C 
ATOM     17  C   UNL d   1      27.651 -13.108  -3.893  0.00  0.00     0.015 C 
ENDROOT
BRANCH   1  18
ATOM     18  N   UNL d   1      26.416 -16.000   0.078  0.00  0.00    -0.355 N 
ATOM     19  H   UNL d   1      27.280 -16.529   0.028  0.00  0.00     0.166 HD
BRANCH  18  20
ATOM     20  C   UNL d   1      25.266 -16.787  -0.197  0.00  0.00     0.032 A 
ATOM     21  C   UNL d   1      24.070 -16.161  -0.582  0.00  0.00     0.032 A 
ATOM     22  C   UNL d   1      22.921 -16.910  -0.891  0.00  0.00     0.039 A 
ATOM     23  C   UNL d   1      22.954 -18.305  -0.870  0.00  0.00     0.068 A 
ATOM     24  C   UNL d   1      24.144 -18.940  -0.531  0.00  0.00     0.039 A 
ATOM     25  C   UNL d   1      25.282 -18.188  -0.194  0.00  0.00     0.032 A 
BRANCH  23  26
ATOM     26  O   UNL d   1      21.821 -18.948  -1.285  0.00  0.00    -0.356 OA
ATOM     27  C   UNL d   1      20.858 -19.228  -0.272  0.00  0.00     0.210 C 
ENDBRANCH  23  26
ENDBRANCH  18  20
ENDBRANCH   1  18
BRANCH   3  28
ATOM     28  N   UNL d   1      26.523 -11.428   1.815  0.00  0.00    -0.383 N 
ATOM     29  H   UNL d   1      25.542 -11.163   1.809  0.00  0.00     0.159 HD
BRANCH  28  30
ATOM     30  C   UNL d   1      27.449 -10.342   2.174  0.00  0.00     0.180 C 
BRANCH  30  31
ATOM     31  C   UNL d   1      26.676  -9.108   2.691  0.00  0.00     0.275 C 
BRANCH  31  32
ATOM     32  O   UNL d   1      25.442  -8.905   1.984  0.00  0.00    -0.364 OA
ATOM     33  C   UNL d   1      25.591  -8.390   0.669  0.00  0.00     0.204 C 
ENDBRANCH  31  32
BRANCH  31  34
ATOM     34  O   UNL d   1      26.405  -9.320   4.083  0.00  0.00    -0.364 OA
ATOM     35  C   UNL d   1      27.400 -10.135   4.681  0.00  0.00     0.204 C 
ENDBRANCH  31  34
ENDBRANCH  30  31
ENDBRANCH  28  30
ENDBRANCH   3  28
TORSDOF 8
ENDMDL
MODEL 9
REMARK VINA RESULT:    -7.696      3.000      6.129
REMARK INTER + INTRA:         -12.601
REMARK INTER:                 -10.082
REMARK INTRA:                  -2.519
REMARK CONF_INDEPENDENT:        2.386
REMARK UNBOUND:                -2.519
REMARK  8 active torsions:
REMARK  status: ('A' for Active; 'I' for Inactive)
REMARK    1  A    between atoms: O_2  and  C_3 
REMARK    2  A    between atoms: C_6  and  N_7 
REMARK    3  A    between atoms: N_7  and  C_8 
REMARK    4  A    between atoms: C_10  and  N_11 
REMARK    5  A    between atoms: N_11  and  C_12 
REMARK    6  A    between atoms: C_12  and  C_13 
REMARK    7  A    between atoms: C_13  and  O_14 
REMARK    8  A    between atoms: C_13  and  O_16 
ROOT
ATOM      1  C   UNL d   1      27.258 -17.167  -0.344  0.00  0.00     0.050 C 
ATOM      2  C   UNL d   1      28.474 -17.906  -0.159  0.00  0.00     0.062 C 
ATOM      3  C   UNL d   1      29.697 -17.619  -0.866  0.00  0.00     0.062 C 
ATOM      4  C   UNL d   1      29.491 -16.896  -2.068  0.00  0.00     0.125 A 
ATOM      5  N   UNL d   1      30.282 -16.437  -3.073  0.00  0.00    -0.125 NA
ATOM      6  O   UNL d   1      29.484 -15.580  -3.877  0.00  0.00    -0.211 OA
ATOM      7  C   UNL d   1      28.234 -15.580  -3.366  0.00  0.00     0.126 A 
ATOM      8  C   UNL d   1      28.220 -16.369  -2.276  0.00  0.00     0.051 A 
ATOM      9  C   UNL d   1      27.189 -16.228  -1.374  0.00  0.00     0.057 C 
ATOM     10  C   UNL d   1      26.856 -14.768  -1.284  0.00  0.00     0.196 C 
ATOM     11  O   UNL d   1      27.315 -14.064  -0.385  0.00  0.00    -0.286 OA
ATOM     12  C   UNL d   1      26.426 -14.197  -2.596  0.00  0.00     0.028 C 
ATOM     13  C   UNL d   1      25.199 -13.558  -2.707  0.00  0.00     0.016 C 
ATOM     14  C   UNL d   1      24.546 -13.647  -3.932  0.00  0.00     0.001 C 
ATOM     15  C   UNL d   1      25.155 -14.296  -5.020  0.00  0.00     0.001 C 
ATOM     16  C   UNL d   1      26.456 -14.808  -4.930  0.00  0.00     0.015 C 
ATOM     17  C   UNL d   1      27.122 -14.728  -3.719  0.00  0.00     0.015 C 
ENDROOT
BRANCH   1  18
ATOM     18  N   UNL d   1      26.096 -17.492   0.399  0.00  0.00    -0.355 N 
ATOM     19  H   UNL d   1      26.277 -18.111   1.182  0.00  0.00     0.166 HD
BRANCH  18  20
ATOM     20  C   UNL d   1      24.760 -17.574  -0.075  0.00  0.00     0.032 A 
ATOM     21  C   UNL d   1      24.121 -18.823  -0.142  0.00  0.00     0.032 A 
ATOM     22  C   UNL d   1      22.789 -18.938  -0.577  0.00  0.00     0.039 A 
ATOM     23  C   UNL d   1      22.048 -17.804  -0.908  0.00  0.00     0.068 A 
ATOM     24  C   UNL d   1      22.654 -16.557  -0.806  0.00  0.00     0.039 A 
ATOM     25  C   UNL d   1      23.994 -16.447  -0.400  0.00  0.00     0.032 A 
BRANCH  23  26
ATOM     26  O   UNL d   1      20.731 -18.006  -1.220  0.00  0.00    -0.356 OA
ATOM     27  C   UNL d   1      20.208 -19.294  -0.906  0.00  0.00     0.210 C 
ENDBRANCH  23  26
ENDBRANCH  18  20
ENDBRANCH   1  18
BRANCH   3  28
ATOM     28  N   UNL d   1      30.903 -18.027  -0.330  0.00  0.00    -0.383 N 
ATOM     29  H   UNL d   1      30.829 -18.360   0.627  0.00  0.00     0.159 HD
BRANCH  28  30
ATOM     30  C   UNL d   1      32.101 -17.219  -0.607  0.00  0.00     0.180 C 
BRANCH  30  31
ATOM     31  C   UNL d   1      32.663 -16.605   0.695  0.00  0.00     0.275 C 
BRANCH  31  32
ATOM     32  O   UNL d   1      32.201 -15.262   0.905  0.00  0.00    -0.364 OA
ATOM     33  C   UNL d   1      30.792 -15.132   1.023  0.00  0.00     0.204 C 
ENDBRANCH  31  32
BRANCH  31  34
ATOM     34  O   UNL d   1      32.240 -17.436   1.784  0.00  0.00    -0.364 OA
ATOM     35  C   UNL d   1      33.052 -18.595   1.891  0.00  0.00     0.204 C 
ENDBRANCH  31  34
ENDBRANCH  30  31
ENDBRANCH  28  30
ENDBRANCH   3  28
TORSDOF 8
ENDMDL
