MODEL 1
REMARK VINA RESULT:    -7.068      0.000      0.000
REMARK INTER + INTRA:         -11.013
REMARK INTER:                  -9.157
REMARK INTRA:                  -1.856
REMARK CONF_INDEPENDENT:        2.088
REMARK UNBOUND:                -1.856
REMARK  7 active torsions:
REMARK  status: ('A' for Active; 'I' for Inactive)
REMARK    1  A    between atoms: C_2  and  O_3 
REMARK    2  A    between atoms: O_3  and  C_4 
REMARK    3  A    between atoms: C_6  and  C_4 
REMARK    4  A    between atoms: C_6  and  O_20 
REMARK    5  A    between atoms: C_6  and  C_27 
REMARK    6  A    between atoms: C_6  and  N_7 
REMARK       I    between atoms: N_7  and  C_8 
REMARK       I    between atoms: C_8  and  N_10 
REMARK    7  A    between atoms: O_20  and  C_21 
ROOT
ATOM      1  C   UNL d   1      26.037 -16.652  -0.663  0.00  0.00     0.333 C 
ENDROOT
BRANCH   1   2
ATOM      2  O   UNL d   1      27.127 -16.659  -1.625  0.00  0.00    -0.303 OA
BRANCH   2   3
ATOM      3  C   UNL d   1      27.144 -15.909  -2.762  0.00  0.00     0.072 C 
ATOM      4  C   UNL d   1      25.985 -15.415  -3.379  0.00  0.00     0.037 C 
ATOM      5  C   UNL d   1      26.080 -14.923  -4.660  0.00  0.00     0.003 C 
ATOM      6  C   UNL d   1      27.353 -14.902  -5.215  0.00  0.00     0.000 C 
ATOM      7  C   UNL d   1      28.531 -15.066  -4.542  0.00  0.00     0.003 C 
ATOM      8  C   UNL d   1      28.412 -15.640  -3.305  0.00  0.00     0.037 C 
ENDBRANCH   2   3
ENDBRANCH   1   2
BRANCH   1   9
ATOM      9  C   UNL d   1      26.480 -17.747   0.350  0.00  0.00     0.449 C 
ATOM     10  F   UNL d   1      27.392 -18.599  -0.186  0.00  0.00    -0.166 F 
ATOM     11  F   UNL d   1      27.031 -17.259   1.481  0.00  0.00    -0.166 F 
ATOM     12  F   UNL d   1      25.422 -18.520   0.728  0.00  0.00    -0.166 F 
ENDBRANCH   1   9
BRANCH   1  13
ATOM     13  N   UNL d   1      25.754 -15.273  -0.162  0.00  0.00    -0.293 N 
ATOM     14  C   UNL d   1      26.850 -14.712   0.526  0.00  0.00     0.347 C 
ATOM     15  O   UNL d   1      27.910 -15.300   0.523  0.00  0.00    -0.245 OA
ATOM     16  N   UNL d   1      26.671 -13.597   1.302  0.00  0.00    -0.169 NA
ATOM     17  C   UNL d   1      27.552 -13.484   2.265  0.00  0.00     0.177 C 
ATOM     18  N   UNL d   1      28.630 -14.282   2.724  0.00  0.00    -0.334 N 
ATOM     19  S   UNL d   1      27.359 -12.123   3.401  0.00  0.00    -0.050 SA
ATOM     20  C   UNL d   1      29.012 -14.076   4.088  0.00  0.00     0.051 C 
ATOM     21  H   UNL d   1      28.728 -15.184   2.261  0.00  0.00     0.168 HD
ATOM     22  C   UNL d   1      29.783 -14.868   5.000  0.00  0.00     0.031 C 
ATOM     23  C   UNL d   1      28.471 -12.892   4.570  0.00  0.00     0.035 C 
ATOM     24  C   UNL d   1      30.026 -14.450   6.313  0.00  0.00     0.002 C 
ATOM     25  C   UNL d   1      29.587 -13.195   6.694  0.00  0.00     0.002 C 
ATOM     26  C   UNL d   1      28.774 -12.439   5.840  0.00  0.00     0.021 C 
ATOM     27  H   UNL d   1      24.897 -14.786  -0.397  0.00  0.00     0.168 HD
ENDBRANCH   1  13
BRANCH   1  28
ATOM     28  C   UNL d   1      24.606 -17.220  -0.971  0.00  0.00     0.325 C 
ATOM     29  O   UNL d   1      24.410 -18.200  -1.696  0.00  0.00    -0.259 OA
BRANCH  28  30
ATOM     30  O   UNL d   1      23.619 -16.592  -0.276  0.00  0.00    -0.318 OA
BRANCH  30  31
ATOM     31  C   UNL d   1      22.319 -17.156  -0.520  0.00  0.00     0.174 C 
ATOM     32  C   UNL d   1      22.233 -18.463   0.235  0.00  0.00     0.034 C 
ENDBRANCH  30  31
ENDBRANCH  28  30
ENDBRANCH   1  28
TORSDOF 7
ENDMDL
MODEL 2
REMARK VINA RESULT:    -6.956      2.782      5.058
REMARK INTER + INTRA:         -10.538
REMARK INTER:                  -9.044
REMARK INTRA:                  -1.494
REMARK CONF_INDEPENDENT:        2.088
REMARK UNBOUND:                -1.494
REMARK  7 active torsions:
REMARK  status: ('A' for Active; 'I' for Inactive)
REMARK    1  A    between atoms: C_2  and  O_3 
REMARK    2  A    between atoms: O_3  and  C_4 
REMARK    3  A    between atoms: C_6  and  C_4 
REMARK    4  A    between atoms: C_6  and  O_20 
REMARK    5  A    between atoms: C_6  and  C_27 
REMARK    6  A    between atoms: C_6  and  N_7 
REMARK       I    between atoms: N_7  and  C_8 
REMARK       I    between atoms: C_8  and  N_10 
REMARK    7  A    between atoms: O_20  and  C_21 
ROOT
ATOM      1  C   UNL d   1      26.467 -15.398  -2.873  0.00  0.00     0.333 C 
ENDROOT
BRANCH   1   2
ATOM      2  O   UNL d   1      25.176 -16.060  -2.794  0.00  0.00    -0.303 OA
BRANCH   2   3
ATOM      3  C   UNL d   1      24.725 -16.724  -1.692  0.00  0.00     0.072 C 
ATOM      4  C   UNL d   1      25.447 -17.745  -1.059  0.00  0.00     0.037 C 
ATOM      5  C   UNL d   1      24.796 -18.541  -0.145  0.00  0.00     0.003 C 
ATOM      6  C   UNL d   1      23.472 -18.215   0.118  0.00  0.00     0.000 C 
ATOM      7  C   UNL d   1      22.843 -17.052  -0.226  0.00  0.00     0.003 C 
ATOM      8  C   UNL d   1      23.470 -16.325  -1.202  0.00  0.00     0.037 C 
ENDBRANCH   2   3
ENDBRANCH   1   2
BRANCH   1   9
ATOM      9  C   UNL d   1      26.066 -13.920  -3.151  0.00  0.00     0.449 C 
ATOM     10  F   UNL d   1      26.831 -13.042  -2.451  0.00  0.00    -0.166 F 
ATOM     11  F   UNL d   1      26.163 -13.560  -4.449  0.00  0.00    -0.166 F 
ATOM     12  F   UNL d   1      24.778 -13.683  -2.770  0.00  0.00    -0.166 F 
ENDBRANCH   1   9
BRANCH   1  13
ATOM     13  N   UNL d   1      27.317 -15.706  -1.684  0.00  0.00    -0.293 N 
ATOM     14  C   UNL d   1      26.846 -15.088  -0.507  0.00  0.00     0.347 C 
ATOM     15  O   UNL d   1      25.776 -14.518  -0.529  0.00  0.00    -0.245 OA
ATOM     16  N   UNL d   1      27.654 -15.013   0.597  0.00  0.00    -0.169 NA
ATOM     17  C   UNL d   1      27.361 -14.015   1.393  0.00  0.00     0.177 C 
ATOM     18  N   UNL d   1      26.422 -12.954   1.351  0.00  0.00    -0.334 N 
ATOM     19  S   UNL d   1      28.411 -13.758   2.812  0.00  0.00    -0.050 SA
ATOM     20  C   UNL d   1      26.757 -11.803   2.133  0.00  0.00     0.051 C 
ATOM     21  H   UNL d   1      25.881 -12.890   0.491  0.00  0.00     0.168 HD
ATOM     22  C   UNL d   1      26.281 -10.451   2.106  0.00  0.00     0.031 C 
ATOM     23  C   UNL d   1      27.764 -12.107   3.039  0.00  0.00     0.035 C 
ATOM     24  C   UNL d   1      26.772  -9.481   2.986  0.00  0.00     0.002 C 
ATOM     25  C   UNL d   1      27.668  -9.876   3.964  0.00  0.00     0.002 C 
ATOM     26  C   UNL d   1      28.195 -11.173   3.961  0.00  0.00     0.021 C 
ATOM     27  H   UNL d   1      28.080 -16.371  -1.731  0.00  0.00     0.168 HD
ENDBRANCH   1  13
BRANCH   1  28
ATOM     28  C   UNL d   1      27.460 -15.575  -4.076  0.00  0.00     0.325 C 
ATOM     29  O   UNL d   1      27.097 -15.575  -5.256  0.00  0.00    -0.259 OA
BRANCH  28  30
ATOM     30  O   UNL d   1      28.765 -15.619  -3.692  0.00  0.00    -0.318 OA
BRANCH  30  31
ATOM     31  C   UNL d   1      29.673 -15.627  -4.806  0.00  0.00     0.174 C 
ATOM     32  C   UNL d   1      30.031 -17.067  -5.101  0.00  0.00     0.034 C 
ENDBRANCH  30  31
ENDBRANCH  28  30
ENDBRANCH   1  28
TORSDOF 7
ENDMDL
MODEL 3
REMARK VINA RESULT:    -6.929      3.721      7.211
REMARK INTER + INTRA:         -10.955
REMARK INTER:                  -9.017
REMARK INTRA:                  -1.938
REMARK CONF_INDEPENDENT:        2.088
REMARK UNBOUND:                -1.938
REMARK  7 active torsions:
REMARK  status: ('A' for Active; 'I' for Inactive)
REMARK    1  A    between atoms: C_2  and  O_3 
REMARK    2  A    between atoms: O_3  and  C_4 
REMARK    3  A    between atoms: C_6  and  C_4 
REMARK    4  A    between atoms: C_6  and  O_20 
REMARK    5  A    between atoms: C_6  and  C_27 
REMARK    6  A    between atoms: C_6  and  N_7 
REMARK       I    between atoms: N_7  and  C_8 
REMARK       I    between atoms: C_8  and  N_10 
REMARK    7  A    between atoms: O_20  and  C_21 
ROOT
ATOM      1  C   UNL d   1      26.398 -16.920  -0.445  0.00  0.00     0.333 C 
ENDROOT
BRANCH   1   2
ATOM      2  O   UNL d   1      25.933 -15.708   0.210  0.00  0.00    -0.303 OA
BRANCH   2   3
ATOM      3  C   UNL d   1      26.314 -14.451  -0.152  0.00  0.00     0.072 C 
ATOM      4  C   UNL d   1      26.266 -13.982  -1.473  0.00  0.00     0.037 C 
ATOM      5  C   UNL d   1      26.933 -12.819  -1.782  0.00  0.00     0.003 C 
ATOM      6  C   UNL d   1      27.554 -12.170  -0.723  0.00  0.00     0.000 C 
ATOM      7  C   UNL d   1      27.353 -12.416   0.605  0.00  0.00     0.003 C 
ATOM      8  C   UNL d   1      26.768 -13.620   0.886  0.00  0.00     0.037 C 
ENDBRANCH   2   3
ENDBRANCH   1   2
BRANCH   1   9
ATOM      9  C   UNL d   1      26.756 -17.835   0.763  0.00  0.00     0.449 C 
ATOM     10  F   UNL d   1      25.649 -18.352   1.357  0.00  0.00    -0.166 F 
ATOM     11  F   UNL d   1      27.545 -18.883   0.443  0.00  0.00    -0.166 F 
ATOM     12  F   UNL d   1      27.407 -17.131   1.732  0.00  0.00    -0.166 F 
ENDBRANCH   1   9
BRANCH   1  13
ATOM     13  N   UNL d   1      25.416 -17.409  -1.458  0.00  0.00    -0.293 N 
ATOM     14  C   UNL d   1      24.086 -17.354  -0.993  0.00  0.00     0.347 C 
ATOM     15  O   UNL d   1      23.854 -16.810   0.066  0.00  0.00    -0.245 OA
ATOM     16  N   UNL d   1      23.099 -18.033  -1.660  0.00  0.00    -0.169 NA
ATOM     17  C   UNL d   1      22.080 -18.352  -0.902  0.00  0.00     0.177 C 
ATOM     18  N   UNL d   1      21.779 -18.198   0.475  0.00  0.00    -0.334 N 
ATOM     19  S   UNL d   1      20.779 -19.325  -1.639  0.00  0.00    -0.050 SA
ATOM     20  C   UNL d   1      20.818 -19.119   1.002  0.00  0.00     0.051 C 
ATOM     21  H   UNL d   1      22.532 -17.813   1.041  0.00  0.00     0.168 HD
ATOM     22  C   UNL d   1      20.498 -19.511   2.343  0.00  0.00     0.031 C 
ATOM     23  C   UNL d   1      20.129 -19.745  -0.028  0.00  0.00     0.035 C 
ATOM     24  C   UNL d   1      19.500 -20.452   2.616  0.00  0.00     0.002 C 
ATOM     25  C   UNL d   1      18.746 -20.933   1.560  0.00  0.00     0.002 C 
ATOM     26  C   UNL d   1      19.089 -20.615   0.241  0.00  0.00     0.021 C 
ATOM     27  H   UNL d   1      25.698 -17.649  -2.402  0.00  0.00     0.168 HD
ENDBRANCH   1  13
BRANCH   1  28
ATOM     28  C   UNL d   1      27.771 -17.025  -1.199  0.00  0.00     0.325 C 
ATOM     29  O   UNL d   1      27.872 -16.956  -2.428  0.00  0.00    -0.259 OA
BRANCH  28  30
ATOM     30  O   UNL d   1      28.840 -17.091  -0.361  0.00  0.00    -0.318 OA
BRANCH  30  31
ATOM     31  C   UNL d   1      29.756 -15.996  -0.538  0.00  0.00     0.174 C 
ATOM     32  C   UNL d   1      29.755 -15.182   0.737  0.00  0.00     0.034 C 
ENDBRANCH  30  31
ENDBRANCH  28  30
ENDBRANCH   1  28
TORSDOF 7
ENDMDL
MODEL 4
REMARK VINA RESULT:    -6.923      5.100      8.232
REMARK INTER + INTRA:         -10.315
REMARK INTER:                  -9.011
REMARK INTRA:                  -1.304
REMARK CONF_INDEPENDENT:        2.088
REMARK UNBOUND:                -1.304
REMARK  7 active torsions:
REMARK  status: ('A' for Active; 'I' for Inactive)
REMARK    1  A    between atoms: C_2  and  O_3 
REMARK    2  A    between atoms: O_3  and  C_4 
REMARK    3  A    between atoms: C_6  and  C_4 
REMARK    4  A    between atoms: C_6  and  O_20 
REMARK    5  A    between atoms: C_6  and  C_27 
REMARK    6  A    between atoms: C_6  and  N_7 
REMARK       I    between atoms: N_7  and  C_8 
REMARK       I    between atoms: C_8  and  N_10 
REMARK    7  A    between atoms: O_20  and  C_21 
ROOT
ATOM      1  C   UNL d   1      26.660 -14.280  -3.343  0.00  0.00     0.333 C 
ENDROOT
BRANCH   1   2
ATOM      2  O   UNL d   1      25.973 -14.510  -2.083  0.00  0.00    -0.303 OA
BRANCH   2   3
ATOM      3  C   UNL d   1      25.661 -15.745  -1.599  0.00  0.00     0.072 C 
ATOM      4  C   UNL d   1      24.443 -16.389  -1.857  0.00  0.00     0.037 C 
ATOM      5  C   UNL d   1      24.107 -17.488  -1.101  0.00  0.00     0.003 C 
ATOM      6  C   UNL d   1      25.052 -17.905  -0.173  0.00  0.00     0.000 C 
ATOM      7  C   UNL d   1      26.358 -17.510  -0.117  0.00  0.00     0.003 C 
ATOM      8  C   UNL d   1      26.644 -16.364  -0.808  0.00  0.00     0.037 C 
ENDBRANCH   2   3
ENDBRANCH   1   2
BRANCH   1   9
ATOM      9  C   UNL d   1      25.494 -14.326  -4.372  0.00  0.00     0.449 C 
ATOM     10  F   UNL d   1      25.680 -13.452  -5.395  0.00  0.00    -0.166 F 
ATOM     11  F   UNL d   1      25.306 -15.539  -4.935  0.00  0.00    -0.166 F 
ATOM     12  F   UNL d   1      24.313 -13.974  -3.788  0.00  0.00    -0.166 F 
ENDBRANCH   1   9
BRANCH   1  13
ATOM     13  N   UNL d   1      27.526 -13.064  -3.283  0.00  0.00    -0.293 N 
ATOM     14  C   UNL d   1      26.780 -11.873  -3.165  0.00  0.00     0.347 C 
ATOM     15  O   UNL d   1      25.583 -11.944  -2.984  0.00  0.00    -0.245 OA
ATOM     16  N   UNL d   1      27.380 -10.664  -3.398  0.00  0.00    -0.169 NA
ATOM     17  C   UNL d   1      26.545  -9.730  -3.779  0.00  0.00     0.177 C 
ATOM     18  N   UNL d   1      25.155  -9.693  -4.056  0.00  0.00    -0.334 N 
ATOM     19  S   UNL d   1      27.228  -8.139  -4.208  0.00  0.00    -0.050 SA
ATOM     20  C   UNL d   1      24.727  -8.639  -4.924  0.00  0.00     0.051 C 
ATOM     21  H   UNL d   1      24.683 -10.595  -4.020  0.00  0.00     0.168 HD
ATOM     22  C   UNL d   1      23.530  -8.450  -5.690  0.00  0.00     0.031 C 
ATOM     23  C   UNL d   1      25.715  -7.670  -5.035  0.00  0.00     0.035 C 
ATOM     24  C   UNL d   1      23.336  -7.315  -6.484  0.00  0.00     0.002 C 
ATOM     25  C   UNL d   1      24.290  -6.314  -6.441  0.00  0.00     0.002 C 
ATOM     26  C   UNL d   1      25.494  -6.511  -5.755  0.00  0.00     0.021 C 
ATOM     27  H   UNL d   1      28.536 -13.130  -3.231  0.00  0.00     0.168 HD
ENDBRANCH   1  13
BRANCH   1  28
ATOM     28  C   UNL d   1      27.588 -15.344  -4.031  0.00  0.00     0.325 C 
ATOM     29  O   UNL d   1      28.199 -16.213  -3.402  0.00  0.00    -0.259 OA
BRANCH  28  30
ATOM     30  O   UNL d   1      27.563 -15.278  -5.389  0.00  0.00    -0.318 OA
BRANCH  30  31
ATOM     31  C   UNL d   1      28.876 -15.187  -5.968  0.00  0.00     0.174 C 
ATOM     32  C   UNL d   1      28.912 -13.952  -6.841  0.00  0.00     0.034 C 
ENDBRANCH  30  31
ENDBRANCH  28  30
ENDBRANCH   1  28
TORSDOF 7
ENDMDL
MODEL 5
REMARK VINA RESULT:    -6.846      4.973      8.397
REMARK INTER + INTRA:         -10.362
REMARK INTER:                  -8.934
REMARK INTRA:                  -1.428
REMARK CONF_INDEPENDENT:        2.088
REMARK UNBOUND:                -1.428
REMARK  7 active torsions:
REMARK  status: ('A' for Active; 'I' for Inactive)
REMARK    1  A    between atoms: C_2  and  O_3 
REMARK    2  A    between atoms: O_3  and  C_4 
REMARK    3  A    between atoms: C_6  and  C_4 
REMARK    4  A    between atoms: C_6  and  O_20 
REMARK    5  A    between atoms: C_6  and  C_27 
REMARK    6  A    between atoms: C_6  and  N_7 
REMARK       I    between atoms: N_7  and  C_8 
REMARK       I    between atoms: C_8  and  N_10 
REMARK    7  A    between atoms: O_20  and  C_21 
ROOT
ATOM      1  C   UNL d   1      26.992 -14.191  -3.292  0.00  0.00     0.333 C 
ENDROOT
BRANCH   1   2
ATOM      2  O   UNL d   1      27.282 -15.571  -2.940  0.00  0.00    -0.303 OA
BRANCH   2   3
ATOM      3  C   UNL d   1      26.503 -16.327  -2.115  0.00  0.00     0.072 C 
ATOM      4  C   UNL d   1      25.153 -16.607  -2.373  0.00  0.00     0.037 C 
ATOM      5  C   UNL d   1      24.384 -17.126  -1.357  0.00  0.00     0.003 C 
ATOM      6  C   UNL d   1      25.042 -17.387  -0.163  0.00  0.00     0.000 C 
ATOM      7  C   UNL d   1      26.395 -17.433   0.021  0.00  0.00     0.003 C 
ATOM      8  C   UNL d   1      27.131 -16.831  -0.963  0.00  0.00     0.037 C 
ENDBRANCH   2   3
ENDBRANCH   1   2
BRANCH   1   9
ATOM      9  C   UNL d   1      26.731 -13.540  -1.903  0.00  0.00     0.449 C 
ATOM     10  F   UNL d   1      26.786 -12.184  -1.955  0.00  0.00    -0.166 F 
ATOM     11  F   UNL d   1      25.532 -13.853  -1.366  0.00  0.00    -0.166 F 
ATOM     12  F   UNL d   1      27.679 -13.920  -0.999  0.00  0.00    -0.166 F 
ENDBRANCH   1   9
BRANCH   1  13
ATOM     13  N   UNL d   1      28.052 -13.615  -4.174  0.00  0.00    -0.293 N 
ATOM     14  C   UNL d   1      28.397 -14.476  -5.237  0.00  0.00     0.347 C 
ATOM     15  O   UNL d   1      27.742 -15.480  -5.418  0.00  0.00    -0.245 OA
ATOM     16  N   UNL d   1      29.542 -14.249  -5.955  0.00  0.00    -0.169 NA
ATOM     17  C   UNL d   1      30.031 -15.329  -6.514  0.00  0.00     0.177 C 
ATOM     18  N   UNL d   1      29.672 -16.700  -6.506  0.00  0.00    -0.334 N 
ATOM     19  S   UNL d   1      31.576 -15.174  -7.392  0.00  0.00    -0.050 SA
ATOM     20  C   UNL d   1      30.731 -17.615  -6.807  0.00  0.00     0.051 C 
ATOM     21  H   UNL d   1      28.902 -16.942  -5.886  0.00  0.00     0.168 HD
ATOM     22  C   UNL d   1      30.875 -19.025  -6.586  0.00  0.00     0.031 C 
ATOM     23  C   UNL d   1      31.804 -16.946  -7.379  0.00  0.00     0.035 C 
ATOM     24  C   UNL d   1      32.028 -19.715  -6.972  0.00  0.00     0.002 C 
ATOM     25  C   UNL d   1      33.003 -19.025  -7.670  0.00  0.00     0.002 C 
ATOM     26  C   UNL d   1      32.911 -17.638  -7.833  0.00  0.00     0.021 C 
ATOM     27  H   UNL d   1      28.389 -12.667  -4.054  0.00  0.00     0.168 HD
ENDBRANCH   1  13
BRANCH   1  28
ATOM     28  C   UNL d   1      25.662 -13.735  -3.990  0.00  0.00     0.325 C 
ATOM     29  O   UNL d   1      24.782 -14.525  -4.345  0.00  0.00    -0.259 OA
BRANCH  28  30
ATOM     30  O   UNL d   1      25.530 -12.383  -4.063  0.00  0.00    -0.318 OA
BRANCH  30  31
ATOM     31  C   UNL d   1      25.908 -11.855  -5.346  0.00  0.00     0.174 C 
ATOM     32  C   UNL d   1      26.067 -10.358  -5.200  0.00  0.00     0.034 C 
ENDBRANCH  30  31
ENDBRANCH  28  30
ENDBRANCH   1  28
TORSDOF 7
ENDMDL
MODEL 6
REMARK VINA RESULT:    -6.606      2.974      7.524
REMARK INTER + INTRA:         -10.663
REMARK INTER:                  -8.694
REMARK INTRA:                  -1.969
REMARK CONF_INDEPENDENT:        2.088
REMARK UNBOUND:                -1.969
REMARK  7 active torsions:
REMARK  status: ('A' for Active; 'I' for Inactive)
REMARK    1  A    between atoms: C_2  and  O_3 
REMARK    2  A    between atoms: O_3  and  C_4 
REMARK    3  A    between atoms: C_6  and  C_4 
REMARK    4  A    between atoms: C_6  and  O_20 
REMARK    5  A    between atoms: C_6  and  C_27 
REMARK    6  A    between atoms: C_6  and  N_7 
REMARK       I    between atoms: N_7  and  C_8 
REMARK       I    between atoms: C_8  and  N_10 
REMARK    7  A    between atoms: O_20  and  C_21 
ROOT
ATOM      1  C   UNL d   1      26.759 -15.886  -0.912  0.00  0.00     0.333 C 
ENDROOT
BRANCH   1   2
ATOM      2  O   UNL d   1      25.950 -16.980  -1.422  0.00  0.00    -0.303 OA
BRANCH   2   3
ATOM      3  C   UNL d   1      24.727 -17.319  -0.927  0.00  0.00     0.072 C 
ATOM      4  C   UNL d   1      24.440 -18.575  -0.372  0.00  0.00     0.037 C 
ATOM      5  C   UNL d   1      23.124 -18.919  -0.168  0.00  0.00     0.003 C 
ATOM      6  C   UNL d   1      22.182 -17.947  -0.478  0.00  0.00     0.000 C 
ATOM      7  C   UNL d   1      22.432 -16.623  -0.706  0.00  0.00     0.003 C 
ATOM      8  C   UNL d   1      23.736 -16.325  -0.994  0.00  0.00     0.037 C 
ENDBRANCH   2   3
ENDBRANCH   1   2
BRANCH   1   9
ATOM      9  C   UNL d   1      28.188 -16.278  -1.388  0.00  0.00     0.449 C 
ATOM     10  F   UNL d   1      28.721 -17.276  -0.636  0.00  0.00    -0.166 F 
ATOM     11  F   UNL d   1      28.245 -16.694  -2.671  0.00  0.00    -0.166 F 
ATOM     12  F   UNL d   1      29.047 -15.225  -1.275  0.00  0.00    -0.166 F 
ENDBRANCH   1   9
BRANCH   1  13
ATOM     13  N   UNL d   1      26.202 -14.558  -1.310  0.00  0.00    -0.293 N 
ATOM     14  C   UNL d   1      26.105 -14.410  -2.709  0.00  0.00     0.347 C 
ATOM     15  O   UNL d   1      26.327 -15.367  -3.420  0.00  0.00    -0.245 OA
ATOM     16  N   UNL d   1      25.905 -13.168  -3.253  0.00  0.00    -0.169 NA
ATOM     17  C   UNL d   1      26.347 -13.057  -4.481  0.00  0.00     0.177 C 
ATOM     18  N   UNL d   1      27.036 -13.921  -5.370  0.00  0.00    -0.334 N 
ATOM     19  S   UNL d   1      26.231 -11.455  -5.257  0.00  0.00    -0.050 SA
ATOM     20  C   UNL d   1      27.780 -13.271  -6.406  0.00  0.00     0.051 C 
ATOM     21  H   UNL d   1      27.321 -14.813  -4.972  0.00  0.00     0.168 HD
ATOM     22  C   UNL d   1      28.835 -13.728  -7.263  0.00  0.00     0.031 C 
ATOM     23  C   UNL d   1      27.390 -11.944  -6.526  0.00  0.00     0.035 C 
ATOM     24  C   UNL d   1      29.421 -12.892  -8.218  0.00  0.00     0.002 C 
ATOM     25  C   UNL d   1      28.892 -11.625  -8.394  0.00  0.00     0.002 C 
ATOM     26  C   UNL d   1      27.911 -11.139  -7.521  0.00  0.00     0.021 C 
ATOM     27  H   UNL d   1      25.848 -13.901  -0.625  0.00  0.00     0.168 HD
ENDBRANCH   1  13
BRANCH   1  28
ATOM     28  C   UNL d   1      27.093 -15.690   0.610  0.00  0.00     0.325 C 
ATOM     29  O   UNL d   1      27.404 -16.622   1.357  0.00  0.00    -0.259 OA
BRANCH  28  30
ATOM     30  O   UNL d   1      27.109 -14.384   0.992  0.00  0.00    -0.318 OA
BRANCH  30  31
ATOM     31  C   UNL d   1      28.111 -14.105   1.984  0.00  0.00     0.174 C 
ATOM     32  C   UNL d   1      27.402 -13.665   3.245  0.00  0.00     0.034 C 
ENDBRANCH  30  31
ENDBRANCH  28  30
ENDBRANCH   1  28
TORSDOF 7
ENDMDL
MODEL 7
REMARK VINA RESULT:    -6.468      4.942      7.755
REMARK INTER + INTRA:         -10.449
REMARK INTER:                  -8.556
REMARK INTRA:                  -1.892
REMARK CONF_INDEPENDENT:        2.088
REMARK UNBOUND:                -1.892
REMARK  7 active torsions:
REMARK  status: ('A' for Active; 'I' for Inactive)
REMARK    1  A    between atoms: C_2  and  O_3 
REMARK    2  A    between atoms: O_3  and  C_4 
REMARK    3  A    between atoms: C_6  and  C_4 
REMARK    4  A    between atoms: C_6  and  O_20 
REMARK    5  A    between atoms: C_6  and  C_27 
REMARK    6  A    between atoms: C_6  and  N_7 
REMARK       I    between atoms: N_7  and  C_8 
REMARK       I    between atoms: C_8  and  N_10 
REMARK    7  A    between atoms: O_20  and  C_21 
ROOT
ATOM      1  C   UNL d   1      26.749 -14.584  -3.531  0.00  0.00     0.333 C 
ENDROOT
BRANCH   1   2
ATOM      2  O   UNL d   1      25.565 -15.071  -2.842  0.00  0.00    -0.303 OA
BRANCH   2   3
ATOM      3  C   UNL d   1      25.599 -15.899  -1.761  0.00  0.00     0.072 C 
ATOM      4  C   UNL d   1      26.613 -15.862  -0.793  0.00  0.00     0.037 C 
ATOM      5  C   UNL d   1      26.717 -16.912   0.091  0.00  0.00     0.003 C 
ATOM      6  C   UNL d   1      25.751 -17.903  -0.020  0.00  0.00     0.000 C 
ATOM      7  C   UNL d   1      24.581 -17.816  -0.719  0.00  0.00     0.003 C 
ATOM      8  C   UNL d   1      24.540 -16.817  -1.653  0.00  0.00     0.037 C 
ENDBRANCH   2   3
ENDBRANCH   1   2
BRANCH   1   9
ATOM      9  C   UNL d   1      26.229 -14.379  -4.983  0.00  0.00     0.449 C 
ATOM     10  F   UNL d   1      25.098 -13.627  -5.020  0.00  0.00    -0.166 F 
ATOM     11  F   UNL d   1      27.115 -13.776  -5.805  0.00  0.00    -0.166 F 
ATOM     12  F   UNL d   1      25.904 -15.572  -5.559  0.00  0.00    -0.166 F 
ENDBRANCH   1   9
BRANCH   1  13
ATOM     13  N   UNL d   1      27.367 -13.429  -2.813  0.00  0.00    -0.293 N 
ATOM     14  C   UNL d   1      26.499 -12.322  -2.721  0.00  0.00     0.347 C 
ATOM     15  O   UNL d   1      25.347 -12.445  -3.078  0.00  0.00    -0.245 OA
ATOM     16  N   UNL d   1      26.993 -11.092  -2.371  0.00  0.00    -0.169 NA
ATOM     17  C   UNL d   1      26.274 -10.093  -2.816  0.00  0.00     0.177 C 
ATOM     18  N   UNL d   1      25.115  -9.987  -3.627  0.00  0.00    -0.334 N 
ATOM     19  S   UNL d   1      26.875  -8.442  -2.506  0.00  0.00    -0.050 SA
ATOM     20  C   UNL d   1      24.946  -8.734  -4.298  0.00  0.00     0.051 C 
ATOM     21  H   UNL d   1      24.780 -10.865  -4.018  0.00  0.00     0.168 HD
ATOM     22  C   UNL d   1      24.139  -8.345  -5.418  0.00  0.00     0.031 C 
ATOM     23  C   UNL d   1      25.772  -7.768  -3.741  0.00  0.00     0.035 C 
ATOM     24  C   UNL d   1      24.143  -7.035  -5.906  0.00  0.00     0.002 C 
ATOM     25  C   UNL d   1      24.874  -6.080  -5.220  0.00  0.00     0.002 C 
ATOM     26  C   UNL d   1      25.719  -6.455  -4.170  0.00  0.00     0.021 C 
ATOM     27  H   UNL d   1      28.273 -13.503  -2.364  0.00  0.00     0.168 HD
ENDBRANCH   1  13
BRANCH   1  28
ATOM     28  C   UNL d   1      27.984 -15.489  -3.878  0.00  0.00     0.325 C 
ATOM     29  O   UNL d   1      28.161 -15.991  -4.993  0.00  0.00    -0.259 OA
BRANCH  28  30
ATOM     30  O   UNL d   1      28.887 -15.576  -2.865  0.00  0.00    -0.318 OA
BRANCH  30  31
ATOM     31  C   UNL d   1      29.678 -16.775  -2.923  0.00  0.00     0.174 C 
ATOM     32  C   UNL d   1      29.761 -17.342  -1.523  0.00  0.00     0.034 C 
ENDBRANCH  30  31
ENDBRANCH  28  30
ENDBRANCH   1  28
TORSDOF 7
ENDMDL
MODEL 8
REMARK VINA RESULT:    -6.364      3.598      5.411
REMARK INTER + INTRA:         -10.524
REMARK INTER:                  -8.452
REMARK INTRA:                  -2.073
REMARK CONF_INDEPENDENT:        2.088
REMARK UNBOUND:                -2.073
REMARK  7 active torsions:
REMARK  status: ('A' for Active; 'I' for Inactive)
REMARK    1  A    between atoms: C_2  and  O_3 
REMARK    2  A    between atoms: O_3  and  C_4 
REMARK    3  A    between atoms: C_6  and  C_4 
REMARK    4  A    between atoms: C_6  and  O_20 
REMARK    5  A    between atoms: C_6  and  C_27 
REMARK    6  A    between atoms: C_6  and  N_7 
REMARK       I    between atoms: N_7  and  C_8 
REMARK       I    between atoms: C_8  and  N_10 
REMARK    7  A    between atoms: O_20  and  C_21 
ROOT
ATOM      1  C   UNL d   1      25.860 -15.132  -1.961  0.00  0.00     0.333 C 
ENDROOT
BRANCH   1   2
ATOM      2  O   UNL d   1      25.127 -15.440  -0.743  0.00  0.00    -0.303 OA
BRANCH   2   3
ATOM      3  C   UNL d   1      24.340 -16.541  -0.585  0.00  0.00     0.072 C 
ATOM      4  C   UNL d   1      24.836 -17.794  -0.194  0.00  0.00     0.037 C 
ATOM      5  C   UNL d   1      24.026 -18.896  -0.341  0.00  0.00     0.003 C 
ATOM      6  C   UNL d   1      22.743 -18.655  -0.814  0.00  0.00     0.000 C 
ATOM      7  C   UNL d   1      22.127 -17.439  -0.895  0.00  0.00     0.003 C 
ATOM      8  C   UNL d   1      22.969 -16.361  -0.835  0.00  0.00     0.037 C 
ENDBRANCH   2   3
ENDBRANCH   1   2
BRANCH   1   9
ATOM      9  C   UNL d   1      26.356 -13.681  -1.692  0.00  0.00     0.449 C 
ATOM     10  F   UNL d   1      27.657 -13.513  -2.043  0.00  0.00    -0.166 F 
ATOM     11  F   UNL d   1      25.657 -12.731  -2.349  0.00  0.00    -0.166 F 
ATOM     12  F   UNL d   1      26.283 -13.378  -0.364  0.00  0.00    -0.166 F 
ENDBRANCH   1   9
BRANCH   1  13
ATOM     13  N   UNL d   1      26.861 -16.192  -2.284  0.00  0.00    -0.293 N 
ATOM     14  C   UNL d   1      27.714 -16.479  -1.199  0.00  0.00     0.347 C 
ATOM     15  O   UNL d   1      27.482 -15.980  -0.119  0.00  0.00    -0.245 OA
ATOM     16  N   UNL d   1      28.866 -17.193  -1.405  0.00  0.00    -0.169 NA
ATOM     17  C   UNL d   1      29.796 -16.953  -0.515  0.00  0.00     0.177 C 
ATOM     18  N   UNL d   1      29.906 -16.080   0.596  0.00  0.00    -0.334 N 
ATOM     19  S   UNL d   1      31.376 -17.752  -0.739  0.00  0.00    -0.050 SA
ATOM     20  C   UNL d   1      31.242 -15.749   0.990  0.00  0.00     0.051 C 
ATOM     21  H   UNL d   1      29.127 -15.436   0.719  0.00  0.00     0.168 HD
ATOM     22  C   UNL d   1      31.772 -14.692   1.801  0.00  0.00     0.031 C 
ATOM     23  C   UNL d   1      32.150 -16.628   0.415  0.00  0.00     0.035 C 
ATOM     24  C   UNL d   1      33.143 -14.570   2.047  0.00  0.00     0.002 C 
ATOM     25  C   UNL d   1      33.985 -15.559   1.570  0.00  0.00     0.002 C 
ATOM     26  C   UNL d   1      33.496 -16.558   0.720  0.00  0.00     0.021 C 
ATOM     27  H   UNL d   1      26.835 -16.700  -3.160  0.00  0.00     0.168 HD
ENDBRANCH   1  13
BRANCH   1  28
ATOM     28  C   UNL d   1      25.167 -14.862  -3.344  0.00  0.00     0.325 C 
ATOM     29  O   UNL d   1      24.224 -14.077  -3.484  0.00  0.00    -0.259 OA
BRANCH  28  30
ATOM     30  O   UNL d   1      25.778 -15.495  -4.382  0.00  0.00    -0.318 OA
BRANCH  30  31
ATOM     31  C   UNL d   1      26.637 -14.625  -5.138  0.00  0.00     0.174 C 
ATOM     32  C   UNL d   1      28.046 -15.164  -5.035  0.00  0.00     0.034 C 
ENDBRANCH  30  31
ENDBRANCH  28  30
ENDBRANCH   1  28
TORSDOF 7
ENDMDL
MODEL 9
REMARK VINA RESULT:    -6.152      1.494      2.289
REMARK INTER + INTRA:         -10.313
REMARK INTER:                  -8.240
REMARK INTRA:                  -2.073
REMARK CONF_INDEPENDENT:        2.088
REMARK UNBOUND:                -2.073
REMARK  7 active torsions:
REMARK  status: ('A' for Active; 'I' for Inactive)
REMARK    1  A    between atoms: C_2  and  O_3 
REMARK    2  A    between atoms: O_3  and  C_4 
REMARK    3  A    between atoms: C_6  and  C_4 
REMARK    4  A    between atoms: C_6  and  O_20 
REMARK    5  A    between atoms: C_6  and  C_27 
REMARK    6  A    between atoms: C_6  and  N_7 
REMARK       I    between atoms: N_7  and  C_8 
REMARK       I    between atoms: C_8  and  N_10 
REMARK    7  A    between atoms: O_20  and  C_21 
ROOT
ATOM      1  C   UNL d   1      26.548 -15.986  -1.247  0.00  0.00     0.333 C 
ENDROOT
BRANCH   1   2
ATOM      2  O   UNL d   1      27.905 -16.421  -1.535  0.00  0.00    -0.303 OA
BRANCH   2   3
ATOM      3  C   UNL d   1      28.540 -16.202  -2.721  0.00  0.00     0.072 C 
ATOM      4  C   UNL d   1      28.166 -15.194  -3.621  0.00  0.00     0.037 C 
ATOM      5  C   UNL d   1      28.670 -15.235  -4.901  0.00  0.00     0.003 C 
ATOM      6  C   UNL d   1      29.570 -16.257  -5.172  0.00  0.00     0.000 C 
ATOM      7  C   UNL d   1      30.197 -17.047  -4.251  0.00  0.00     0.003 C 
ATOM      8  C   UNL d   1      29.620 -17.054  -3.010  0.00  0.00     0.037 C 
ENDBRANCH   2   3
ENDBRANCH   1   2
BRANCH   1   9
ATOM      9  C   UNL d   1      26.054 -17.076  -0.252  0.00  0.00     0.449 C 
ATOM     10  F   UNL d   1      26.672 -16.985   0.954  0.00  0.00    -0.166 F 
ATOM     11  F   UNL d   1      24.727 -17.034  -0.006  0.00  0.00    -0.166 F 
ATOM     12  F   UNL d   1      26.330 -18.327  -0.721  0.00  0.00    -0.166 F 
ENDBRANCH   1   9
BRANCH   1  13
ATOM     13  N   UNL d   1      26.507 -14.552  -0.831  0.00  0.00    -0.293 N 
ATOM     14  C   UNL d   1      27.456 -14.252   0.168  0.00  0.00     0.347 C 
ATOM     15  O   UNL d   1      28.273 -15.093   0.477  0.00  0.00    -0.245 OA
ATOM     16  N   UNL d   1      27.359 -13.081   0.874  0.00  0.00    -0.169 NA
ATOM     17  C   UNL d   1      27.910 -13.138   2.061  0.00  0.00     0.177 C 
ATOM     18  N   UNL d   1      28.548 -14.158   2.811  0.00  0.00    -0.334 N 
ATOM     19  S   UNL d   1      27.757 -11.704   3.110  0.00  0.00    -0.050 SA
ATOM     20  C   UNL d   1      28.547 -13.971   4.231  0.00  0.00     0.051 C 
ATOM     21  H   UNL d   1      28.535 -15.082   2.384  0.00  0.00     0.168 HD
ATOM     22  C   UNL d   1      28.771 -14.876   5.320  0.00  0.00     0.031 C 
ATOM     23  C   UNL d   1      28.223 -12.659   4.548  0.00  0.00     0.035 C 
ATOM     24  C   UNL d   1      28.713 -14.452   6.651  0.00  0.00     0.002 C 
ATOM     25  C   UNL d   1      28.532 -13.104   6.904  0.00  0.00     0.002 C 
ATOM     26  C   UNL d   1      28.244 -12.219   5.858  0.00  0.00     0.021 C 
ATOM     27  H   UNL d   1      25.922 -13.875  -1.306  0.00  0.00     0.168 HD
ENDBRANCH   1  13
BRANCH   1  28
ATOM     28  C   UNL d   1      25.367 -16.092  -2.276  0.00  0.00     0.325 C 
ATOM     29  O   UNL d   1      24.924 -17.169  -2.686  0.00  0.00    -0.259 OA
BRANCH  28  30
ATOM     30  O   UNL d   1      24.814 -14.888  -2.583  0.00  0.00    -0.318 OA
BRANCH  30  31
ATOM     31  C   UNL d   1      25.154 -14.439  -3.906  0.00  0.00     0.174 C 
ATOM     32  C   UNL d   1      25.529 -12.977  -3.815  0.00  0.00     0.034 C 
ENDBRANCH  30  31
ENDBRANCH  28  30
ENDBRANCH   1  28
TORSDOF 7
ENDMDL
