MODEL 1
REMARK VINA RESULT:   -10.942      0.000      0.000
REMARK INTER + INTRA:         -17.218
REMARK INTER:                 -14.522
REMARK INTRA:                  -2.696
REMARK CONF_INDEPENDENT:        3.580
REMARK UNBOUND:                -2.696
REMARK  12 active torsions:
REMARK  status: ('A' for Active; 'I' for Inactive)
REMARK    1  A    between atoms: C_2  and  C_3 
REMARK    2  A    between atoms: C_3  and  N_4 
REMARK       I    between atoms: N_4  and  C_5 
REMARK    3  A    between atoms: N_4  and  C_17 
REMARK    4  A    between atoms: C_5  and  C_7 
REMARK    5  A    between atoms: C_7  and  N_8 
REMARK       I    between atoms: N_8  and  C_9 
REMARK    6  A    between atoms: C_9  and  C_11 
REMARK    7  A    between atoms: C_17  and  C_18 
REMARK    8  A    between atoms: C_17  and  C_27 
REMARK       I    between atoms: C_18  and  N_20 
REMARK    9  A    between atoms: N_20  and  C_21 
REMARK   10  A    between atoms: C_28  and  O_29 
REMARK   11  A    between atoms: C_31  and  O_32 
REMARK   12  A    between atoms: C_34  and  O_35 
ROOT
ATOM      1  C   UNL d   1      25.672 -15.245  -1.753  0.00  0.00     0.218 C 
ENDROOT
BRANCH   1   2
ATOM      2  N   UNL d   1      25.464 -16.693  -1.340  0.00  0.00    -0.333 N 
ATOM      3  C   UNL d   1      24.200 -17.077  -0.762  0.00  0.00     0.238 C 
ATOM      4  O   UNL d   1      23.367 -16.289  -0.314  0.00  0.00    -0.272 OA
BRANCH   2   5
ATOM      5  C   UNL d   1      26.697 -17.409  -0.943  0.00  0.00     0.127 C 
BRANCH   5   6
ATOM      6  C   UNL d   1      27.017 -17.388   0.526  0.00  0.00     0.015 C 
ATOM      7  C   UNL d   1      26.654 -18.575   1.355  0.00  0.00     0.006 C 
ENDBRANCH   5   6
ENDBRANCH   2   5
BRANCH   3   8
ATOM      8  C   UNL d   1      23.817 -18.569  -0.920  0.00  0.00     0.225 C 
BRANCH   8   9
ATOM      9  N   UNL d   1      22.761 -19.144  -0.142  0.00  0.00    -0.348 N 
ATOM     10  C   UNL d   1      21.481 -18.722  -0.427  0.00  0.00     0.252 C 
ATOM     11  O   UNL d   1      21.217 -17.857  -1.270  0.00  0.00    -0.268 OA
ATOM     12  H   UNL d   1      22.983 -19.838   0.561  0.00  0.00     0.163 HD
BRANCH  10  13
ATOM     13  C   UNL d   1      20.387 -19.368   0.301  0.00  0.00     0.032 A 
ATOM     14  C   UNL d   1      20.425 -19.365   1.699  0.00  0.00     0.017 A 
ATOM     15  C   UNL d   1      19.465 -20.075   2.413  0.00  0.00     0.001 A 
ATOM     16  C   UNL d   1      18.441 -20.732   1.730  0.00  0.00     0.000 A 
ATOM     17  C   UNL d   1      18.399 -20.719   0.334  0.00  0.00     0.001 A 
ATOM     18  C   UNL d   1      19.380 -20.044  -0.388  0.00  0.00     0.017 A 
ENDBRANCH  10  13
ENDBRANCH   8   9
ENDBRANCH   3   8
ENDBRANCH   1   2
BRANCH   1  19
ATOM     19  C   UNL d   1      26.497 -14.331  -0.750  0.00  0.00     0.245 C 
ATOM     20  O   UNL d   1      27.084 -13.323  -1.156  0.00  0.00    -0.271 OA
ATOM     21  N   UNL d   1      26.518 -14.630   0.602  0.00  0.00    -0.354 N 
ATOM     22  H   UNL d   1      25.781 -15.192   1.004  0.00  0.00     0.162 HD
BRANCH  21  23
ATOM     23  C   UNL d   1      27.362 -13.875   1.533  0.00  0.00     0.084 C 
ATOM     24  C   UNL d   1      26.653 -12.598   2.026  0.00  0.00     0.025 C 
ATOM     25  C   UNL d   1      27.405 -11.863   3.120  0.00  0.00     0.002 C 
ATOM     26  C   UNL d   1      27.780 -12.807   4.257  0.00  0.00     0.000 C 
ATOM     27  C   UNL d   1      28.610 -13.977   3.742  0.00  0.00     0.002 C 
ATOM     28  C   UNL d   1      27.856 -14.767   2.678  0.00  0.00     0.025 C 
ENDBRANCH  21  23
ENDBRANCH   1  19
BRANCH   1  29
ATOM     29  C   UNL d   1      26.426 -15.111  -3.078  0.00  0.00     0.040 C 
ATOM     30  C   UNL d   1      27.819 -15.293  -3.192  0.00  0.00     0.080 C 
ATOM     31  C   UNL d   1      28.449 -15.249  -4.423  0.00  0.00     0.073 C 
ATOM     32  C   UNL d   1      27.722 -14.868  -5.538  0.00  0.00     0.071 C 
ATOM     33  C   UNL d   1      26.383 -14.505  -5.437  0.00  0.00     0.073 C 
ATOM     34  C   UNL d   1      25.731 -14.660  -4.216  0.00  0.00     0.080 C 
BRANCH  30  35
ATOM     35  O   UNL d   1      28.661 -15.559  -2.143  0.00  0.00    -0.360 OA
ATOM     36  H   UNL d   1      28.308 -15.128  -1.348  0.00  0.00     0.217 HD
ENDBRANCH  30  35
BRANCH  32  37
ATOM     37  O   UNL d   1      28.317 -14.830  -6.764  0.00  0.00    -0.361 OA
ATOM     38  H   UNL d   1      28.809 -13.993  -6.821  0.00  0.00     0.217 HD
ENDBRANCH  32  37
BRANCH  34  39
ATOM     39  O   UNL d   1      24.404 -14.333  -4.099  0.00  0.00    -0.360 OA
ATOM     40  H   UNL d   1      24.092 -13.989  -4.954  0.00  0.00     0.217 HD
ENDBRANCH  34  39
ENDBRANCH   1  29
TORSDOF 12
ENDMDL
MODEL 2
REMARK VINA RESULT:    -9.117      1.620      2.530
REMARK INTER + INTRA:         -14.780
REMARK INTER:                 -12.696
REMARK INTRA:                  -2.084
REMARK CONF_INDEPENDENT:        3.580
REMARK UNBOUND:                -2.084
REMARK  12 active torsions:
REMARK  status: ('A' for Active; 'I' for Inactive)
REMARK    1  A    between atoms: C_2  and  C_3 
REMARK    2  A    between atoms: C_3  and  N_4 
REMARK       I    between atoms: N_4  and  C_5 
REMARK    3  A    between atoms: N_4  and  C_17 
REMARK    4  A    between atoms: C_5  and  C_7 
REMARK    5  A    between atoms: C_7  and  N_8 
REMARK       I    between atoms: N_8  and  C_9 
REMARK    6  A    between atoms: C_9  and  C_11 
REMARK    7  A    between atoms: C_17  and  C_18 
REMARK    8  A    between atoms: C_17  and  C_27 
REMARK       I    between atoms: C_18  and  N_20 
REMARK    9  A    between atoms: N_20  and  C_21 
REMARK   10  A    between atoms: C_28  and  O_29 
REMARK   11  A    between atoms: C_31  and  O_32 
REMARK   12  A    between atoms: C_34  and  O_35 
ROOT
ATOM      1  C   UNL d   1      25.424 -14.971  -1.390  0.00  0.00     0.218 C 
ENDROOT
BRANCH   1   2
ATOM      2  N   UNL d   1      25.046 -16.340  -0.849  0.00  0.00    -0.333 N 
ATOM      3  C   UNL d   1      23.653 -16.712  -0.812  0.00  0.00     0.238 C 
ATOM      4  O   UNL d   1      22.714 -15.923  -0.918  0.00  0.00    -0.272 OA
BRANCH   2   5
ATOM      5  C   UNL d   1      25.977 -16.887   0.163  0.00  0.00     0.127 C 
BRANCH   5   6
ATOM      6  C   UNL d   1      26.545 -18.245  -0.145  0.00  0.00     0.015 C 
ATOM      7  C   UNL d   1      27.030 -19.091   0.985  0.00  0.00     0.006 C 
ENDBRANCH   5   6
ENDBRANCH   2   5
BRANCH   3   8
ATOM      8  C   UNL d   1      23.366 -18.234  -0.843  0.00  0.00     0.225 C 
BRANCH   8   9
ATOM      9  N   UNL d   1      22.354 -18.810  -0.008  0.00  0.00    -0.348 N 
ATOM     10  C   UNL d   1      21.178 -19.175  -0.624  0.00  0.00     0.252 C 
ATOM     11  O   UNL d   1      20.947 -18.990  -1.824  0.00  0.00    -0.268 OA
ATOM     12  H   UNL d   1      22.540 -18.942   0.978  0.00  0.00     0.163 HD
BRANCH  10  13
ATOM     13  C   UNL d   1      20.171 -19.844   0.203  0.00  0.00     0.032 A 
ATOM     14  C   UNL d   1      19.060 -20.410  -0.429  0.00  0.00     0.017 A 
ATOM     15  C   UNL d   1      18.030 -20.944   0.340  0.00  0.00     0.001 A 
ATOM     16  C   UNL d   1      18.145 -20.964   1.730  0.00  0.00     0.000 A 
ATOM     17  C   UNL d   1      19.265 -20.411   2.356  0.00  0.00     0.001 A 
ATOM     18  C   UNL d   1      20.280 -19.838   1.594  0.00  0.00     0.017 A 
ENDBRANCH  10  13
ENDBRANCH   8   9
ENDBRANCH   3   8
ENDBRANCH   1   2
BRANCH   1  19
ATOM     19  C   UNL d   1      26.385 -14.089  -0.484  0.00  0.00     0.245 C 
ATOM     20  O   UNL d   1      26.234 -14.051   0.742  0.00  0.00    -0.271 OA
ATOM     21  N   UNL d   1      27.437 -13.397  -1.060  0.00  0.00    -0.354 N 
ATOM     22  H   UNL d   1      27.803 -13.691  -1.954  0.00  0.00     0.162 HD
BRANCH  21  23
ATOM     23  C   UNL d   1      28.269 -12.485  -0.269  0.00  0.00     0.084 C 
ATOM     24  C   UNL d   1      29.374 -11.842  -1.129  0.00  0.00     0.025 C 
ATOM     25  C   UNL d   1      30.161 -10.762  -0.410  0.00  0.00     0.002 C 
ATOM     26  C   UNL d   1      29.229  -9.733   0.220  0.00  0.00     0.000 C 
ATOM     27  C   UNL d   1      28.252 -10.400   1.181  0.00  0.00     0.002 C 
ATOM     28  C   UNL d   1      27.408 -11.454   0.471  0.00  0.00     0.025 C 
ENDBRANCH  21  23
ENDBRANCH   1  19
BRANCH   1  29
ATOM     29  C   UNL d   1      26.152 -15.047  -2.734  0.00  0.00     0.040 C 
ATOM     30  C   UNL d   1      25.561 -14.653  -3.951  0.00  0.00     0.080 C 
ATOM     31  C   UNL d   1      26.283 -14.655  -5.131  0.00  0.00     0.073 C 
ATOM     32  C   UNL d   1      27.556 -15.198  -5.141  0.00  0.00     0.071 C 
ATOM     33  C   UNL d   1      28.108 -15.763  -3.997  0.00  0.00     0.073 C 
ATOM     34  C   UNL d   1      27.420 -15.656  -2.791  0.00  0.00     0.080 C 
BRANCH  30  35
ATOM     35  O   UNL d   1      24.271 -14.207  -4.086  0.00  0.00    -0.360 OA
ATOM     36  H   UNL d   1      24.018 -14.276  -5.020  0.00  0.00     0.217 HD
ENDBRANCH  30  35
BRANCH  32  37
ATOM     37  O   UNL d   1      28.292 -15.200  -6.288  0.00  0.00    -0.361 OA
ATOM     38  H   UNL d   1      27.938 -14.498  -6.861  0.00  0.00     0.217 HD
ENDBRANCH  32  37
BRANCH  34  39
ATOM     39  O   UNL d   1      27.955 -16.183  -1.644  0.00  0.00    -0.360 OA
ATOM     40  H   UNL d   1      28.909 -15.988  -1.628  0.00  0.00     0.217 HD
ENDBRANCH  34  39
ENDBRANCH   1  29
TORSDOF 12
ENDMDL
MODEL 3
REMARK VINA RESULT:    -8.712      2.539      5.207
REMARK INTER + INTRA:         -15.000
REMARK INTER:                 -12.291
REMARK INTRA:                  -2.709
REMARK CONF_INDEPENDENT:        3.580
REMARK UNBOUND:                -2.709
REMARK  12 active torsions:
REMARK  status: ('A' for Active; 'I' for Inactive)
REMARK    1  A    between atoms: C_2  and  C_3 
REMARK    2  A    between atoms: C_3  and  N_4 
REMARK       I    between atoms: N_4  and  C_5 
REMARK    3  A    between atoms: N_4  and  C_17 
REMARK    4  A    between atoms: C_5  and  C_7 
REMARK    5  A    between atoms: C_7  and  N_8 
REMARK       I    between atoms: N_8  and  C_9 
REMARK    6  A    between atoms: C_9  and  C_11 
REMARK    7  A    between atoms: C_17  and  C_18 
REMARK    8  A    between atoms: C_17  and  C_27 
REMARK       I    between atoms: C_18  and  N_20 
REMARK    9  A    between atoms: N_20  and  C_21 
REMARK   10  A    between atoms: C_28  and  O_29 
REMARK   11  A    between atoms: C_31  and  O_32 
REMARK   12  A    between atoms: C_34  and  O_35 
ROOT
ATOM      1  C   UNL d   1      27.326 -16.216   0.150  0.00  0.00     0.218 C 
ENDROOT
BRANCH   1   2
ATOM      2  N   UNL d   1      26.087 -16.665  -0.607  0.00  0.00    -0.333 N 
ATOM      3  C   UNL d   1      25.244 -17.679  -0.022  0.00  0.00     0.238 C 
ATOM      4  O   UNL d   1      25.578 -18.418   0.904  0.00  0.00    -0.272 OA
BRANCH   2   5
ATOM      5  C   UNL d   1      26.184 -16.553  -2.079  0.00  0.00     0.127 C 
BRANCH   5   6
ATOM      6  C   UNL d   1      25.153 -15.675  -2.733  0.00  0.00     0.015 C 
ATOM      7  C   UNL d   1      25.530 -14.928  -3.969  0.00  0.00     0.006 C 
ENDBRANCH   5   6
ENDBRANCH   2   5
BRANCH   3   8
ATOM      8  C   UNL d   1      23.765 -17.667  -0.481  0.00  0.00     0.225 C 
BRANCH   8   9
ATOM      9  N   UNL d   1      22.773 -18.431   0.213  0.00  0.00    -0.348 N 
ATOM     10  C   UNL d   1      21.493 -18.390  -0.296  0.00  0.00     0.252 C 
ATOM     11  O   UNL d   1      21.165 -17.704  -1.270  0.00  0.00    -0.268 OA
ATOM     12  H   UNL d   1      23.042 -18.977   1.022  0.00  0.00     0.163 HD
BRANCH  10  13
ATOM     13  C   UNL d   1      20.489 -19.237   0.353  0.00  0.00     0.032 A 
ATOM     14  C   UNL d   1      20.526 -19.364   1.745  0.00  0.00     0.017 A 
ATOM     15  C   UNL d   1      19.663 -20.256   2.376  0.00  0.00     0.001 A 
ATOM     16  C   UNL d   1      18.731 -20.968   1.620  0.00  0.00     0.000 A 
ATOM     17  C   UNL d   1      18.689 -20.826   0.231  0.00  0.00     0.001 A 
ATOM     18  C   UNL d   1      19.578 -19.965  -0.411  0.00  0.00     0.017 A 
ENDBRANCH  10  13
ENDBRANCH   8   9
ENDBRANCH   3   8
ENDBRANCH   1   2
BRANCH   1  19
ATOM     19  C   UNL d   1      28.716 -16.375  -0.602  0.00  0.00     0.245 C 
ATOM     20  O   UNL d   1      29.214 -15.422  -1.211  0.00  0.00    -0.271 OA
ATOM     21  N   UNL d   1      29.406 -17.573  -0.534  0.00  0.00    -0.354 N 
ATOM     22  H   UNL d   1      29.227 -18.215   0.225  0.00  0.00     0.162 HD
BRANCH  21  23
ATOM     23  C   UNL d   1      30.631 -17.788  -1.311  0.00  0.00     0.084 C 
ATOM     24  C   UNL d   1      31.215 -19.194  -1.064  0.00  0.00     0.025 C 
ATOM     25  C   UNL d   1      32.385 -19.538  -1.966  0.00  0.00     0.002 C 
ATOM     26  C   UNL d   1      32.040 -19.291  -3.430  0.00  0.00     0.000 C 
ATOM     27  C   UNL d   1      31.613 -17.845  -3.652  0.00  0.00     0.002 C 
ATOM     28  C   UNL d   1      30.402 -17.486  -2.797  0.00  0.00     0.025 C 
ENDBRANCH  21  23
ENDBRANCH   1  19
BRANCH   1  29
ATOM     29  C   UNL d   1      27.281 -14.734   0.531  0.00  0.00     0.040 C 
ATOM     30  C   UNL d   1      27.155 -13.700  -0.417  0.00  0.00     0.080 C 
ATOM     31  C   UNL d   1      27.030 -12.379  -0.026  0.00  0.00     0.073 C 
ATOM     32  C   UNL d   1      27.187 -12.056   1.311  0.00  0.00     0.071 C 
ATOM     33  C   UNL d   1      27.494 -13.028   2.257  0.00  0.00     0.073 C 
ATOM     34  C   UNL d   1      27.507 -14.366   1.872  0.00  0.00     0.080 C 
BRANCH  30  35
ATOM     35  O   UNL d   1      27.105 -13.887  -1.775  0.00  0.00    -0.360 OA
ATOM     36  H   UNL d   1      27.953 -14.258  -2.065  0.00  0.00     0.217 HD
ENDBRANCH  30  35
BRANCH  32  37
ATOM     37  O   UNL d   1      27.057 -10.764   1.724  0.00  0.00    -0.361 OA
ATOM     38  H   UNL d   1      27.819 -10.563   2.293  0.00  0.00     0.217 HD
ENDBRANCH  32  37
BRANCH  34  39
ATOM     39  O   UNL d   1      27.780 -15.345   2.792  0.00  0.00    -0.360 OA
ATOM     40  H   UNL d   1      28.729 -15.555   2.750  0.00  0.00     0.217 HD
ENDBRANCH  34  39
ENDBRANCH   1  29
TORSDOF 12
ENDMDL
MODEL 4
REMARK VINA RESULT:    -8.048      3.866      8.206
REMARK INTER + INTRA:         -15.472
REMARK INTER:                 -11.627
REMARK INTRA:                  -3.845
REMARK CONF_INDEPENDENT:        3.580
REMARK UNBOUND:                -3.845
REMARK  12 active torsions:
REMARK  status: ('A' for Active; 'I' for Inactive)
REMARK    1  A    between atoms: C_2  and  C_3 
REMARK    2  A    between atoms: C_3  and  N_4 
REMARK       I    between atoms: N_4  and  C_5 
REMARK    3  A    between atoms: N_4  and  C_17 
REMARK    4  A    between atoms: C_5  and  C_7 
REMARK    5  A    between atoms: C_7  and  N_8 
REMARK       I    between atoms: N_8  and  C_9 
REMARK    6  A    between atoms: C_9  and  C_11 
REMARK    7  A    between atoms: C_17  and  C_18 
REMARK    8  A    between atoms: C_17  and  C_27 
REMARK       I    between atoms: C_18  and  N_20 
REMARK    9  A    between atoms: N_20  and  C_21 
REMARK   10  A    between atoms: C_28  and  O_29 
REMARK   11  A    between atoms: C_31  and  O_32 
REMARK   12  A    between atoms: C_34  and  O_35 
ROOT
ATOM      1  C   UNL d   1      26.257 -13.023  -4.761  0.00  0.00     0.218 C 
ENDROOT
BRANCH   1   2
ATOM      2  N   UNL d   1      27.700 -13.352  -5.106  0.00  0.00    -0.333 N 
ATOM      3  C   UNL d   1      27.994 -14.616  -5.736  0.00  0.00     0.238 C 
ATOM      4  O   UNL d   1      27.223 -15.575  -5.773  0.00  0.00    -0.272 OA
BRANCH   2   5
ATOM      5  C   UNL d   1      28.709 -12.722  -4.224  0.00  0.00     0.127 C 
BRANCH   5   6
ATOM      6  C   UNL d   1      29.575 -13.674  -3.446  0.00  0.00     0.015 C 
ATOM      7  C   UNL d   1      29.271 -13.900  -2.002  0.00  0.00     0.006 C 
ENDBRANCH   5   6
ENDBRANCH   2   5
BRANCH   3   8
ATOM      8  C   UNL d   1      29.289 -14.656  -6.584  0.00  0.00     0.225 C 
BRANCH   8   9
ATOM      9  N   UNL d   1      29.867 -15.903  -6.986  0.00  0.00    -0.348 N 
ATOM     10  C   UNL d   1      30.081 -16.834  -5.995  0.00  0.00     0.252 C 
ATOM     11  O   UNL d   1      29.844 -16.629  -4.799  0.00  0.00    -0.268 OA
ATOM     12  H   UNL d   1      30.078 -16.060  -7.964  0.00  0.00     0.163 HD
BRANCH  10  13
ATOM     13  C   UNL d   1      30.590 -18.144  -6.408  0.00  0.00     0.032 A 
ATOM     14  C   UNL d   1      31.162 -18.266  -7.678  0.00  0.00     0.017 A 
ATOM     15  C   UNL d   1      31.542 -19.521  -8.143  0.00  0.00     0.001 A 
ATOM     16  C   UNL d   1      31.405 -20.635  -7.315  0.00  0.00     0.000 A 
ATOM     17  C   UNL d   1      30.846 -20.506  -6.040  0.00  0.00     0.001 A 
ATOM     18  C   UNL d   1      30.426 -19.259  -5.585  0.00  0.00     0.017 A 
ENDBRANCH  10  13
ENDBRANCH   8   9
ENDBRANCH   3   8
ENDBRANCH   1   2
BRANCH   1  19
ATOM     19  C   UNL d   1      25.602 -13.851  -3.575  0.00  0.00     0.245 C 
ATOM     20  O   UNL d   1      24.492 -13.540  -3.129  0.00  0.00    -0.271 OA
ATOM     21  N   UNL d   1      26.250 -14.964  -3.067  0.00  0.00    -0.354 N 
ATOM     22  H   UNL d   1      26.938 -15.445  -3.629  0.00  0.00     0.162 HD
BRANCH  21  23
ATOM     23  C   UNL d   1      25.728 -15.679  -1.898  0.00  0.00     0.084 C 
ATOM     24  C   UNL d   1      24.782 -16.822  -2.313  0.00  0.00     0.025 C 
ATOM     25  C   UNL d   1      24.344 -17.704  -1.160  0.00  0.00     0.002 C 
ATOM     26  C   UNL d   1      25.544 -18.193  -0.357  0.00  0.00     0.000 C 
ATOM     27  C   UNL d   1      26.366 -17.019   0.162  0.00  0.00     0.002 C 
ATOM     28  C   UNL d   1      26.867 -16.144  -0.982  0.00  0.00     0.025 C 
ENDBRANCH  21  23
ENDBRANCH   1  19
BRANCH   1  29
ATOM     29  C   UNL d   1      26.068 -11.564  -4.340  0.00  0.00     0.040 C 
ATOM     30  C   UNL d   1      26.284 -11.109  -3.024  0.00  0.00     0.080 C 
ATOM     31  C   UNL d   1      26.187  -9.767  -2.704  0.00  0.00     0.073 C 
ATOM     32  C   UNL d   1      25.720  -8.880  -3.659  0.00  0.00     0.071 C 
ATOM     33  C   UNL d   1      25.324  -9.317  -4.918  0.00  0.00     0.073 C 
ATOM     34  C   UNL d   1      25.530 -10.650  -5.267  0.00  0.00     0.080 C 
BRANCH  30  35
ATOM     35  O   UNL d   1      26.636 -11.911  -1.968  0.00  0.00    -0.360 OA
ATOM     36  H   UNL d   1      25.902 -12.519  -1.786  0.00  0.00     0.217 HD
ENDBRANCH  30  35
BRANCH  32  37
ATOM     37  O   UNL d   1      25.628  -7.550  -3.373  0.00  0.00    -0.361 OA
ATOM     38  H   UNL d   1      24.779  -7.410  -2.920  0.00  0.00     0.217 HD
ENDBRANCH  32  37
BRANCH  34  39
ATOM     39  O   UNL d   1      25.172 -11.099  -6.511  0.00  0.00    -0.360 OA
ATOM     40  H   UNL d   1      24.203 -11.186  -6.543  0.00  0.00     0.217 HD
ENDBRANCH  34  39
ENDBRANCH   1  29
TORSDOF 12
ENDMDL
