MODEL 1
REMARK VINA RESULT:   -11.394      0.000      0.000
REMARK INTER + INTRA:         -13.898
REMARK INTER:                 -13.184
REMARK INTRA:                  -0.714
REMARK CONF_INDEPENDENT:        1.790
REMARK UNBOUND:                -0.714
REMARK  6 active torsions:
REMARK  status: ('A' for Active; 'I' for Inactive)
REMARK       I    between atoms: C_2  and  N_3 
REMARK    1  A    between atoms: C_2  and  C_18 
REMARK    2  A    between atoms: N_3  and  C_4 
REMARK    3  A    between atoms: C_4  and  C_5 
REMARK    4  A    between atoms: C_9  and  N_10 
REMARK       I    between atoms: N_10  and  C_11 
REMARK    5  A    between atoms: C_11  and  C_13 
REMARK    6  A    between atoms: C_24  and  N_25 
ROOT
ATOM      1  O   UNL d   1      27.108 -14.360  -0.828  0.00  0.00    -0.266 OA
ATOM      2  C   UNL d   1      27.152 -14.410   0.384  0.00  0.00     0.268 C 
ATOM      3  N   UNL d   1      27.355 -15.637   1.071  0.00  0.00    -0.351 N 
ATOM      4  H   UNL d   1      27.336 -15.659   2.071  0.00  0.00     0.163 HD
ENDROOT
BRANCH   3   5
ATOM      5  C   UNL d   1      27.403 -16.965   0.471  0.00  0.00     0.161 C 
BRANCH   5   6
ATOM      6  C   UNL d   1      26.213 -17.286  -0.441  0.00  0.00    -0.038 A 
ATOM      7  C   UNL d   1      26.002 -16.716  -1.695  0.00  0.00     0.009 A 
ATOM      8  C   UNL d   1      24.776 -16.907  -2.362  0.00  0.00     0.003 A 
ATOM      9  C   UNL d   1      23.772 -17.737  -1.827  0.00  0.00     0.029 A 
ATOM     10  C   UNL d   1      23.975 -18.361  -0.595  0.00  0.00     0.035 A 
ATOM     11  C   UNL d   1      25.197 -18.114   0.060  0.00  0.00     0.038 A 
BRANCH  10  12
ATOM     12  N   UNL d   1      22.945 -19.163  -0.006  0.00  0.00    -0.327 N 
ATOM     13  C   UNL d   1      21.585 -18.963  -0.237  0.00  0.00     0.226 C 
ATOM     14  O   UNL d   1      21.122 -18.015  -0.890  0.00  0.00    -0.273 OA
ATOM     15  H   UNL d   1      23.234 -19.962   0.548  0.00  0.00     0.169 HD
BRANCH  13  16
ATOM     16  C   UNL d   1      20.552 -19.953   0.244  0.00  0.00     0.078 C 
ATOM     17  C   UNL d   1      19.714 -19.974   1.532  0.00  0.00     0.014 C 
ATOM     18  C   UNL d   1      18.553 -20.557   0.668  0.00  0.00     0.002 C 
ATOM     19  C   UNL d   1      19.178 -19.800  -0.504  0.00  0.00     0.014 C 
ENDBRANCH  13  16
ENDBRANCH  10  12
ENDBRANCH   5   6
ENDBRANCH   3   5
BRANCH   2  20
ATOM     20  C   UNL d   1      27.061 -13.217   1.296  0.00  0.00     0.102 C 
ATOM     21  C   UNL d   1      27.038 -13.345   2.658  0.00  0.00     0.049 C 
ATOM     22  C   UNL d   1      27.409 -12.134   3.234  0.00  0.00    -0.005 C 
ATOM     23  C   UNL d   1      27.936 -11.907   4.504  0.00  0.00     0.014 C 
ATOM     24  C   UNL d   1      27.041 -11.097   2.374  0.00  0.00     0.076 C 
ATOM     25  C   UNL d   1      27.912 -10.658   5.069  0.00  0.00     0.003 C 
ATOM     26  C   UNL d   1      27.339  -9.627   4.352  0.00  0.00     0.038 C 
ATOM     27  C   UNL d   1      26.857  -9.779   3.001  0.00  0.00     0.130 C 
ATOM     28  N   UNL d   1      27.088 -11.785   1.105  0.00  0.00    -0.349 N 
ATOM     29  H   UNL d   1      27.374 -11.365   0.224  0.00  0.00     0.166 HD
BRANCH  27  30
ATOM     30  N   UNL d   1      26.019  -8.608   2.594  0.00  0.00    -0.113 N 
ATOM     31  O   UNL d   1      25.151  -8.791   1.715  0.00  0.00    -0.532 OA
ATOM     32  O   UNL d   1      26.281  -7.503   3.075  0.00  0.00    -0.532 OA
ENDBRANCH  27  30
ENDBRANCH   2  20
TORSDOF 6
ENDMDL
MODEL 2
REMARK VINA RESULT:   -10.225      5.107      7.952
REMARK INTER + INTRA:         -12.857
REMARK INTER:                 -12.015
REMARK INTRA:                  -0.842
REMARK CONF_INDEPENDENT:        1.790
REMARK UNBOUND:                -0.842
REMARK  6 active torsions:
REMARK  status: ('A' for Active; 'I' for Inactive)
REMARK       I    between atoms: C_2  and  N_3 
REMARK    1  A    between atoms: C_2  and  C_18 
REMARK    2  A    between atoms: N_3  and  C_4 
REMARK    3  A    between atoms: C_4  and  C_5 
REMARK    4  A    between atoms: C_9  and  N_10 
REMARK       I    between atoms: N_10  and  C_11 
REMARK    5  A    between atoms: C_11  and  C_13 
REMARK    6  A    between atoms: C_24  and  N_25 
ROOT
ATOM      1  O   UNL d   1      25.146 -14.706  -4.998  0.00  0.00    -0.266 OA
ATOM      2  C   UNL d   1      26.231 -14.944  -4.508  0.00  0.00     0.268 C 
ATOM      3  N   UNL d   1      26.387 -15.142  -3.109  0.00  0.00    -0.351 N 
ATOM      4  H   UNL d   1      27.299 -15.286  -2.723  0.00  0.00     0.163 HD
ENDROOT
BRANCH   3   5
ATOM      5  C   UNL d   1      25.358 -14.968  -2.092  0.00  0.00     0.161 C 
BRANCH   5   6
ATOM      6  C   UNL d   1      25.164 -16.186  -1.181  0.00  0.00    -0.038 A 
ATOM      7  C   UNL d   1      26.170 -17.088  -0.841  0.00  0.00     0.009 A 
ATOM      8  C   UNL d   1      25.851 -18.290  -0.180  0.00  0.00     0.003 A 
ATOM      9  C   UNL d   1      24.533 -18.575   0.228  0.00  0.00     0.029 A 
ATOM     10  C   UNL d   1      23.511 -17.667  -0.056  0.00  0.00     0.035 A 
ATOM     11  C   UNL d   1      23.863 -16.495  -0.754  0.00  0.00     0.038 A 
BRANCH  10  12
ATOM     12  N   UNL d   1      22.155 -17.962   0.298  0.00  0.00    -0.327 N 
ATOM     13  C   UNL d   1      21.334 -18.816  -0.438  0.00  0.00     0.226 C 
ATOM     14  O   UNL d   1      21.655 -19.325  -1.523  0.00  0.00    -0.273 OA
ATOM     15  H   UNL d   1      21.807 -17.583   1.172  0.00  0.00     0.169 HD
BRANCH  13  16
ATOM     16  C   UNL d   1      19.986 -19.251   0.082  0.00  0.00     0.078 C 
ATOM     17  C   UNL d   1      19.201 -20.553  -0.145  0.00  0.00     0.014 C 
ATOM     18  C   UNL d   1      18.720 -20.422   1.333  0.00  0.00     0.002 C 
ATOM     19  C   UNL d   1      20.033 -19.684   1.592  0.00  0.00     0.014 C 
ENDBRANCH  13  16
ENDBRANCH  10  12
ENDBRANCH   5   6
ENDBRANCH   3   5
BRANCH   2  20
ATOM     20  C   UNL d   1      27.507 -15.114  -5.286  0.00  0.00     0.102 C 
ATOM     21  C   UNL d   1      27.837 -14.291  -6.329  0.00  0.00     0.049 C 
ATOM     22  C   UNL d   1      29.208 -14.368  -6.551  0.00  0.00    -0.005 C 
ATOM     23  C   UNL d   1      30.036 -13.434  -7.172  0.00  0.00     0.014 C 
ATOM     24  C   UNL d   1      29.655 -15.634  -6.167  0.00  0.00     0.076 C 
ATOM     25  C   UNL d   1      31.274 -13.788  -7.645  0.00  0.00     0.003 C 
ATOM     26  C   UNL d   1      31.678 -15.100  -7.503  0.00  0.00     0.038 C 
ATOM     27  C   UNL d   1      30.905 -16.089  -6.792  0.00  0.00     0.130 C 
ATOM     28  N   UNL d   1      28.672 -15.959  -5.159  0.00  0.00    -0.349 N 
ATOM     29  H   UNL d   1      28.857 -16.498  -4.315  0.00  0.00     0.166 HD
BRANCH  27  30
ATOM     30  N   UNL d   1      31.421 -17.468  -7.061  0.00  0.00    -0.113 N 
ATOM     31  O   UNL d   1      32.546 -17.575  -7.593  0.00  0.00    -0.532 OA
ATOM     32  O   UNL d   1      30.681 -18.428  -6.832  0.00  0.00    -0.532 OA
ENDBRANCH  27  30
ENDBRANCH   2  20
TORSDOF 6
ENDMDL
MODEL 3
REMARK VINA RESULT:    -9.864      5.294      7.523
REMARK INTER + INTRA:         -12.555
REMARK INTER:                 -11.654
REMARK INTRA:                  -0.901
REMARK CONF_INDEPENDENT:        1.790
REMARK UNBOUND:                -0.901
REMARK  6 active torsions:
REMARK  status: ('A' for Active; 'I' for Inactive)
REMARK       I    between atoms: C_2  and  N_3 
REMARK    1  A    between atoms: C_2  and  C_18 
REMARK    2  A    between atoms: N_3  and  C_4 
REMARK    3  A    between atoms: C_4  and  C_5 
REMARK    4  A    between atoms: C_9  and  N_10 
REMARK       I    between atoms: N_10  and  C_11 
REMARK    5  A    between atoms: C_11  and  C_13 
REMARK    6  A    between atoms: C_24  and  N_25 
ROOT
ATOM      1  O   UNL d   1      25.297 -15.574  -5.232  0.00  0.00    -0.266 OA
ATOM      2  C   UNL d   1      26.299 -15.223  -4.643  0.00  0.00     0.268 C 
ATOM      3  N   UNL d   1      26.283 -14.946  -3.250  0.00  0.00    -0.351 N 
ATOM      4  H   UNL d   1      27.110 -14.609  -2.797  0.00  0.00     0.163 HD
ENDROOT
BRANCH   3   5
ATOM      5  C   UNL d   1      25.108 -14.913  -2.388  0.00  0.00     0.161 C 
BRANCH   5   6
ATOM      6  C   UNL d   1      25.012 -16.091  -1.412  0.00  0.00    -0.038 A 
ATOM      7  C   UNL d   1      26.082 -16.906  -1.048  0.00  0.00     0.009 A 
ATOM      8  C   UNL d   1      25.855 -18.090  -0.319  0.00  0.00     0.003 A 
ATOM      9  C   UNL d   1      24.566 -18.438   0.132  0.00  0.00     0.029 A 
ATOM     10  C   UNL d   1      23.481 -17.614  -0.176  0.00  0.00     0.035 A 
ATOM     11  C   UNL d   1      23.743 -16.461  -0.941  0.00  0.00     0.038 A 
BRANCH  10  12
ATOM     12  N   UNL d   1      22.155 -17.978   0.222  0.00  0.00    -0.327 N 
ATOM     13  C   UNL d   1      21.345 -18.853  -0.501  0.00  0.00     0.226 C 
ATOM     14  O   UNL d   1      21.646 -19.325  -1.609  0.00  0.00    -0.273 OA
ATOM     15  H   UNL d   1      21.824 -17.634   1.116  0.00  0.00     0.169 HD
BRANCH  13  16
ATOM     16  C   UNL d   1      20.038 -19.360   0.059  0.00  0.00     0.078 C 
ATOM     17  C   UNL d   1      19.499 -20.793   0.195  0.00  0.00     0.014 C 
ATOM     18  C   UNL d   1      18.857 -20.333   1.540  0.00  0.00     0.002 C 
ATOM     19  C   UNL d   1      20.003 -19.325   1.630  0.00  0.00     0.014 C 
ENDBRANCH  13  16
ENDBRANCH  10  12
ENDBRANCH   5   6
ENDBRANCH   3   5
BRANCH   2  20
ATOM     20  C   UNL d   1      27.661 -15.090  -5.269  0.00  0.00     0.102 C 
ATOM     21  C   UNL d   1      28.699 -15.915  -4.929  0.00  0.00     0.049 C 
ATOM     22  C   UNL d   1      29.652 -15.884  -5.942  0.00  0.00    -0.005 C 
ATOM     23  C   UNL d   1      30.620 -16.840  -6.246  0.00  0.00     0.014 C 
ATOM     24  C   UNL d   1      29.600 -14.639  -6.570  0.00  0.00     0.076 C 
ATOM     25  C   UNL d   1      31.709 -16.526  -7.017  0.00  0.00     0.003 C 
ATOM     26  C   UNL d   1      31.834 -15.230  -7.477  0.00  0.00     0.038 C 
ATOM     27  C   UNL d   1      30.824 -14.221  -7.270  0.00  0.00     0.130 C 
ATOM     28  N   UNL d   1      28.219 -14.288  -6.334  0.00  0.00    -0.349 N 
ATOM     29  H   UNL d   1      27.630 -13.765  -6.978  0.00  0.00     0.166 HD
BRANCH  27  30
ATOM     30  N   UNL d   1      31.352 -12.859  -7.594  0.00  0.00    -0.113 N 
ATOM     31  O   UNL d   1      32.431 -12.786  -8.218  0.00  0.00    -0.532 OA
ATOM     32  O   UNL d   1      30.750 -11.875  -7.155  0.00  0.00    -0.532 OA
ENDBRANCH  27  30
ENDBRANCH   2  20
TORSDOF 6
ENDMDL
MODEL 4
REMARK VINA RESULT:    -9.833      1.216      1.627
REMARK INTER + INTRA:         -12.546
REMARK INTER:                 -11.623
REMARK INTRA:                  -0.923
REMARK CONF_INDEPENDENT:        1.790
REMARK UNBOUND:                -0.923
REMARK  6 active torsions:
REMARK  status: ('A' for Active; 'I' for Inactive)
REMARK       I    between atoms: C_2  and  N_3 
REMARK    1  A    between atoms: C_2  and  C_18 
REMARK    2  A    between atoms: N_3  and  C_4 
REMARK    3  A    between atoms: C_4  and  C_5 
REMARK    4  A    between atoms: C_9  and  N_10 
REMARK       I    between atoms: N_10  and  C_11 
REMARK    5  A    between atoms: C_11  and  C_13 
REMARK    6  A    between atoms: C_24  and  N_25 
ROOT
ATOM      1  O   UNL d   1      27.814 -14.490   0.645  0.00  0.00    -0.266 OA
ATOM      2  C   UNL d   1      27.074 -13.554   0.422  0.00  0.00     0.268 C 
ATOM      3  N   UNL d   1      26.101 -13.606  -0.612  0.00  0.00    -0.351 N 
ATOM      4  H   UNL d   1      25.537 -12.802  -0.809  0.00  0.00     0.163 HD
ENDROOT
BRANCH   3   5
ATOM      5  C   UNL d   1      25.940 -14.671  -1.595  0.00  0.00     0.161 C 
BRANCH   5   6
ATOM      6  C   UNL d   1      25.600 -16.037  -0.988  0.00  0.00    -0.038 A 
ATOM      7  C   UNL d   1      26.495 -17.101  -0.883  0.00  0.00     0.009 A 
ATOM      8  C   UNL d   1      26.035 -18.380  -0.514  0.00  0.00     0.003 A 
ATOM      9  C   UNL d   1      24.689 -18.602  -0.161  0.00  0.00     0.029 A 
ATOM     10  C   UNL d   1      23.780 -17.544  -0.209  0.00  0.00     0.035 A 
ATOM     11  C   UNL d   1      24.269 -16.289  -0.622  0.00  0.00     0.038 A 
BRANCH  10  12
ATOM     12  N   UNL d   1      22.396 -17.759   0.090  0.00  0.00    -0.327 N 
ATOM     13  C   UNL d   1      21.566 -18.592  -0.659  0.00  0.00     0.226 C 
ATOM     14  O   UNL d   1      21.908 -19.150  -1.714  0.00  0.00    -0.273 OA
ATOM     15  H   UNL d   1      22.028 -17.336   0.935  0.00  0.00     0.169 HD
BRANCH  13  16
ATOM     16  C   UNL d   1      20.174 -18.942  -0.191  0.00  0.00     0.078 C 
ATOM     17  C   UNL d   1      19.076 -19.783  -0.864  0.00  0.00     0.014 C 
ATOM     18  C   UNL d   1      18.707 -20.290   0.564  0.00  0.00     0.002 C 
ATOM     19  C   UNL d   1      20.174 -20.052   0.922  0.00  0.00     0.014 C 
ENDBRANCH  13  16
ENDBRANCH  10  12
ENDBRANCH   5   6
ENDBRANCH   3   5
BRANCH   2  20
ATOM     20  C   UNL d   1      27.042 -12.277   1.216  0.00  0.00     0.102 C 
ATOM     21  C   UNL d   1      27.263 -12.256   2.567  0.00  0.00     0.049 C 
ATOM     22  C   UNL d   1      27.625 -10.967   2.946  0.00  0.00    -0.005 C 
ATOM     23  C   UNL d   1      28.342 -10.568   4.074  0.00  0.00     0.014 C 
ATOM     24  C   UNL d   1      27.032 -10.057   2.070  0.00  0.00     0.076 C 
ATOM     25  C   UNL d   1      28.312  -9.269   4.510  0.00  0.00     0.003 C 
ATOM     26  C   UNL d   1      27.542  -8.361   3.810  0.00  0.00     0.038 C 
ATOM     27  C   UNL d   1      26.850  -8.693   2.588  0.00  0.00     0.130 C 
ATOM     28  N   UNL d   1      26.918 -10.875   0.885  0.00  0.00    -0.349 N 
ATOM     29  H   UNL d   1      27.014 -10.537  -0.070  0.00  0.00     0.166 HD
BRANCH  27  30
ATOM     30  N   UNL d   1      25.861  -7.629   2.226  0.00  0.00    -0.113 N 
ATOM     31  O   UNL d   1      25.128  -7.830   1.235  0.00  0.00    -0.532 OA
ATOM     32  O   UNL d   1      25.875  -6.572   2.862  0.00  0.00    -0.532 OA
ENDBRANCH  27  30
ENDBRANCH   2  20
TORSDOF 6
ENDMDL
MODEL 5
REMARK VINA RESULT:    -9.696      1.685      2.184
REMARK INTER + INTRA:         -12.256
REMARK INTER:                 -11.486
REMARK INTRA:                  -0.770
REMARK CONF_INDEPENDENT:        1.790
REMARK UNBOUND:                -0.770
REMARK  6 active torsions:
REMARK  status: ('A' for Active; 'I' for Inactive)
REMARK       I    between atoms: C_2  and  N_3 
REMARK    1  A    between atoms: C_2  and  C_18 
REMARK    2  A    between atoms: N_3  and  C_4 
REMARK    3  A    between atoms: C_4  and  C_5 
REMARK    4  A    between atoms: C_9  and  N_10 
REMARK       I    between atoms: N_10  and  C_11 
REMARK    5  A    between atoms: C_11  and  C_13 
REMARK    6  A    between atoms: C_24  and  N_25 
ROOT
ATOM      1  O   UNL d   1      27.407 -14.459   3.052  0.00  0.00    -0.266 OA
ATOM      2  C   UNL d   1      27.307 -13.978   1.942  0.00  0.00     0.268 C 
ATOM      3  N   UNL d   1      27.086 -14.790   0.798  0.00  0.00    -0.351 N 
ATOM      4  H   UNL d   1      27.058 -14.375  -0.113  0.00  0.00     0.163 HD
ENDROOT
BRANCH   3   5
ATOM      5  C   UNL d   1      27.078 -16.248   0.760  0.00  0.00     0.161 C 
BRANCH   5   6
ATOM      6  C   UNL d   1      26.062 -16.845  -0.219  0.00  0.00    -0.038 A 
ATOM      7  C   UNL d   1      25.941 -16.475  -1.558  0.00  0.00     0.009 A 
ATOM      8  C   UNL d   1      24.842 -16.919  -2.319  0.00  0.00     0.003 A 
ATOM      9  C   UNL d   1      23.889 -17.807  -1.782  0.00  0.00     0.029 A 
ATOM     10  C   UNL d   1      24.011 -18.233  -0.458  0.00  0.00     0.035 A 
ATOM     11  C   UNL d   1      25.101 -17.736   0.282  0.00  0.00     0.038 A 
BRANCH  10  12
ATOM     12  N   UNL d   1      23.023 -19.090   0.125  0.00  0.00    -0.327 N 
ATOM     13  C   UNL d   1      21.650 -18.875   0.008  0.00  0.00     0.226 C 
ATOM     14  O   UNL d   1      21.145 -17.873  -0.522  0.00  0.00    -0.273 OA
ATOM     15  H   UNL d   1      23.347 -19.934   0.583  0.00  0.00     0.169 HD
BRANCH  13  16
ATOM     16  C   UNL d   1      20.650 -19.908   0.467  0.00  0.00     0.078 C 
ATOM     17  C   UNL d   1      19.573 -19.838   1.561  0.00  0.00     0.014 C 
ATOM     18  C   UNL d   1      18.682 -20.709   0.623  0.00  0.00     0.002 C 
ATOM     19  C   UNL d   1      19.451 -20.073  -0.535  0.00  0.00     0.014 C 
ENDBRANCH  13  16
ENDBRANCH  10  12
ENDBRANCH   5   6
ENDBRANCH   3   5
BRANCH   2  20
ATOM     20  C   UNL d   1      27.344 -12.505   1.638  0.00  0.00     0.102 C 
ATOM     21  C   UNL d   1      28.445 -11.905   1.089  0.00  0.00     0.049 C 
ATOM     22  C   UNL d   1      28.061 -10.702   0.506  0.00  0.00    -0.005 C 
ATOM     23  C   UNL d   1      28.703  -9.989  -0.506  0.00  0.00     0.014 C 
ATOM     24  C   UNL d   1      26.955 -10.201   1.195  0.00  0.00     0.076 C 
ATOM     25  C   UNL d   1      28.425  -8.665  -0.727  0.00  0.00     0.003 C 
ATOM     26  C   UNL d   1      27.499  -8.046   0.089  0.00  0.00     0.038 C 
ATOM     27  C   UNL d   1      26.739  -8.750   1.093  0.00  0.00     0.130 C 
ATOM     28  N   UNL d   1      26.379 -11.431   1.687  0.00  0.00    -0.349 N 
ATOM     29  H   UNL d   1      25.383 -11.607   1.794  0.00  0.00     0.166 HD
BRANCH  27  30
ATOM     30  N   UNL d   1      26.057  -7.793   2.019  0.00  0.00    -0.113 N 
ATOM     31  O   UNL d   1      25.366  -6.884   1.512  0.00  0.00    -0.532 OA
ATOM     32  O   UNL d   1      26.279  -7.886   3.230  0.00  0.00    -0.532 OA
ENDBRANCH  27  30
ENDBRANCH   2  20
TORSDOF 6
ENDMDL
MODEL 6
REMARK VINA RESULT:    -9.238      4.885      6.672
REMARK INTER + INTRA:         -11.822
REMARK INTER:                 -11.028
REMARK INTRA:                  -0.794
REMARK CONF_INDEPENDENT:        1.790
REMARK UNBOUND:                -0.794
REMARK  6 active torsions:
REMARK  status: ('A' for Active; 'I' for Inactive)
REMARK       I    between atoms: C_2  and  N_3 
REMARK    1  A    between atoms: C_2  and  C_18 
REMARK    2  A    between atoms: N_3  and  C_4 
REMARK    3  A    between atoms: C_4  and  C_5 
REMARK    4  A    between atoms: C_9  and  N_10 
REMARK       I    between atoms: N_10  and  C_11 
REMARK    5  A    between atoms: C_11  and  C_13 
REMARK    6  A    between atoms: C_24  and  N_25 
ROOT
ATOM      1  O   UNL d   1      25.697 -15.800  -5.073  0.00  0.00    -0.266 OA
ATOM      2  C   UNL d   1      26.064 -14.751  -4.585  0.00  0.00     0.268 C 
ATOM      3  N   UNL d   1      25.508 -14.260  -3.373  0.00  0.00    -0.351 N 
ATOM      4  H   UNL d   1      25.792 -13.368  -3.018  0.00  0.00     0.163 HD
ENDROOT
BRANCH   3   5
ATOM      5  C   UNL d   1      24.386 -14.835  -2.641  0.00  0.00     0.161 C 
BRANCH   5   6
ATOM      6  C   UNL d   1      24.779 -15.949  -1.664  0.00  0.00    -0.038 A 
ATOM      7  C   UNL d   1      26.085 -16.222  -1.259  0.00  0.00     0.009 A 
ATOM      8  C   UNL d   1      26.371 -17.395  -0.533  0.00  0.00     0.003 A 
ATOM      9  C   UNL d   1      25.347 -18.272  -0.125  0.00  0.00     0.029 A 
ATOM     10  C   UNL d   1      24.023 -17.998  -0.473  0.00  0.00     0.035 A 
ATOM     11  C   UNL d   1      23.782 -16.838  -1.234  0.00  0.00     0.038 A 
BRANCH  10  12
ATOM     12  N   UNL d   1      22.974 -18.906  -0.119  0.00  0.00    -0.327 N 
ATOM     13  C   UNL d   1      21.628 -18.678  -0.402  0.00  0.00     0.226 C 
ATOM     14  O   UNL d   1      21.189 -17.627  -0.895  0.00  0.00    -0.273 OA
ATOM     15  H   UNL d   1      23.242 -19.792   0.295  0.00  0.00     0.169 HD
BRANCH  13  16
ATOM     16  C   UNL d   1      20.586 -19.749  -0.188  0.00  0.00     0.078 C 
ATOM     17  C   UNL d   1      19.751 -20.096   1.055  0.00  0.00     0.014 C 
ATOM     18  C   UNL d   1      18.583 -20.426   0.075  0.00  0.00     0.002 C 
ATOM     19  C   UNL d   1      19.212 -19.398  -0.865  0.00  0.00     0.014 C 
ENDBRANCH  13  16
ENDBRANCH  10  12
ENDBRANCH   5   6
ENDBRANCH   3   5
BRANCH   2  20
ATOM     20  C   UNL d   1      27.158 -13.881  -5.142  0.00  0.00     0.102 C 
ATOM     21  C   UNL d   1      28.000 -14.316  -6.130  0.00  0.00     0.049 C 
ATOM     22  C   UNL d   1      28.576 -13.214  -6.752  0.00  0.00    -0.005 C 
ATOM     23  C   UNL d   1      29.123 -13.132  -8.032  0.00  0.00     0.014 C 
ATOM     24  C   UNL d   1      28.660 -12.170  -5.829  0.00  0.00     0.076 C 
ATOM     25  C   UNL d   1      29.971 -12.112  -8.377  0.00  0.00     0.003 C 
ATOM     26  C   UNL d   1      30.282 -11.167  -7.419  0.00  0.00     0.038 C 
ATOM     27  C   UNL d   1      29.680 -11.148  -6.108  0.00  0.00     0.130 C 
ATOM     28  N   UNL d   1      27.556 -12.504  -4.960  0.00  0.00    -0.349 N 
ATOM     29  H   UNL d   1      26.957 -11.828  -4.491  0.00  0.00     0.166 HD
BRANCH  27  30
ATOM     30  N   UNL d   1      30.420 -10.224  -5.192  0.00  0.00    -0.113 N 
ATOM     31  O   UNL d   1      29.914  -9.106  -4.960  0.00  0.00    -0.532 OA
ATOM     32  O   UNL d   1      31.531 -10.570  -4.781  0.00  0.00    -0.532 OA
ENDBRANCH  27  30
ENDBRANCH   2  20
TORSDOF 6
ENDMDL
MODEL 7
REMARK VINA RESULT:    -9.237      4.067      4.537
REMARK INTER + INTRA:         -11.899
REMARK INTER:                 -11.027
REMARK INTRA:                  -0.872
REMARK CONF_INDEPENDENT:        1.790
REMARK UNBOUND:                -0.872
REMARK  6 active torsions:
REMARK  status: ('A' for Active; 'I' for Inactive)
REMARK       I    between atoms: C_2  and  N_3 
REMARK    1  A    between atoms: C_2  and  C_18 
REMARK    2  A    between atoms: N_3  and  C_4 
REMARK    3  A    between atoms: C_4  and  C_5 
REMARK    4  A    between atoms: C_9  and  N_10 
REMARK       I    between atoms: N_10  and  C_11 
REMARK    5  A    between atoms: C_11  and  C_13 
REMARK    6  A    between atoms: C_24  and  N_25 
ROOT
ATOM      1  O   UNL d   1      24.068 -13.949  -4.222  0.00  0.00    -0.266 OA
ATOM      2  C   UNL d   1      25.097 -13.725  -3.619  0.00  0.00     0.268 C 
ATOM      3  N   UNL d   1      25.904 -14.777  -3.107  0.00  0.00    -0.351 N 
ATOM      4  H   UNL d   1      26.721 -14.564  -2.569  0.00  0.00     0.163 HD
ENDROOT
BRANCH   3   5
ATOM      5  C   UNL d   1      25.574 -16.197  -3.107  0.00  0.00     0.161 C 
BRANCH   5   6
ATOM      6  C   UNL d   1      25.332 -16.785  -1.712  0.00  0.00    -0.038 A 
ATOM      7  C   UNL d   1      26.339 -17.222  -0.853  0.00  0.00     0.009 A 
ATOM      8  C   UNL d   1      26.012 -17.944   0.312  0.00  0.00     0.003 A 
ATOM      9  C   UNL d   1      24.672 -18.170   0.682  0.00  0.00     0.029 A 
ATOM     10  C   UNL d   1      23.641 -17.701  -0.135  0.00  0.00     0.035 A 
ATOM     11  C   UNL d   1      24.009 -17.019  -1.311  0.00  0.00     0.038 A 
BRANCH  10  12
ATOM     12  N   UNL d   1      22.273 -17.969   0.193  0.00  0.00    -0.327 N 
ATOM     13  C   UNL d   1      21.449 -18.805  -0.561  0.00  0.00     0.226 C 
ATOM     14  O   UNL d   1      21.780 -19.319  -1.641  0.00  0.00    -0.273 OA
ATOM     15  H   UNL d   1      21.916 -17.585   1.060  0.00  0.00     0.169 HD
BRANCH  13  16
ATOM     16  C   UNL d   1      20.082 -19.213  -0.068  0.00  0.00     0.078 C 
ATOM     17  C   UNL d   1      18.854 -19.722  -0.839  0.00  0.00     0.014 C 
ATOM     18  C   UNL d   1      18.577 -20.652   0.382  0.00  0.00     0.002 C 
ATOM     19  C   UNL d   1      20.086 -20.627   0.619  0.00  0.00     0.014 C 
ENDBRANCH  13  16
ENDBRANCH  10  12
ENDBRANCH   5   6
ENDBRANCH   3   5
BRANCH   2  20
ATOM     20  C   UNL d   1      25.675 -12.355  -3.386  0.00  0.00     0.102 C 
ATOM     21  C   UNL d   1      26.619 -12.119  -2.423  0.00  0.00     0.049 C 
ATOM     22  C   UNL d   1      27.287 -10.937  -2.724  0.00  0.00    -0.005 C 
ATOM     23  C   UNL d   1      28.556 -10.533  -2.312  0.00  0.00     0.014 C 
ATOM     24  C   UNL d   1      26.420 -10.097  -3.425  0.00  0.00     0.076 C 
ATOM     25  C   UNL d   1      28.937  -9.217  -2.373  0.00  0.00     0.003 C 
ATOM     26  C   UNL d   1      28.025  -8.294  -2.844  0.00  0.00     0.038 C 
ATOM     27  C   UNL d   1      26.731  -8.661  -3.366  0.00  0.00     0.130 C 
ATOM     28  N   UNL d   1      25.560 -11.075  -4.048  0.00  0.00    -0.349 N 
ATOM     29  H   UNL d   1      25.141 -10.983  -4.971  0.00  0.00     0.166 HD
BRANCH  27  30
ATOM     30  N   UNL d   1      25.849  -7.459  -3.507  0.00  0.00    -0.113 N 
ATOM     31  O   UNL d   1      26.216  -6.400  -2.956  0.00  0.00    -0.532 OA
ATOM     32  O   UNL d   1      24.764  -7.591  -4.080  0.00  0.00    -0.532 OA
ENDBRANCH  27  30
ENDBRANCH   2  20
TORSDOF 6
ENDMDL
MODEL 8
REMARK VINA RESULT:    -9.056      4.000      4.812
REMARK INTER + INTRA:         -11.667
REMARK INTER:                 -10.846
REMARK INTRA:                  -0.820
REMARK CONF_INDEPENDENT:        1.790
REMARK UNBOUND:                -0.820
REMARK  6 active torsions:
REMARK  status: ('A' for Active; 'I' for Inactive)
REMARK       I    between atoms: C_2  and  N_3 
REMARK    1  A    between atoms: C_2  and  C_18 
REMARK    2  A    between atoms: N_3  and  C_4 
REMARK    3  A    between atoms: C_4  and  C_5 
REMARK    4  A    between atoms: C_9  and  N_10 
REMARK       I    between atoms: N_10  and  C_11 
REMARK    5  A    between atoms: C_11  and  C_13 
REMARK    6  A    between atoms: C_24  and  N_25 
ROOT
ATOM      1  O   UNL d   1      24.090 -13.888  -4.266  0.00  0.00    -0.266 OA
ATOM      2  C   UNL d   1      25.152 -13.585  -3.762  0.00  0.00     0.268 C 
ATOM      3  N   UNL d   1      26.070 -14.573  -3.311  0.00  0.00    -0.351 N 
ATOM      4  H   UNL d   1      26.916 -14.297  -2.853  0.00  0.00     0.163 HD
ENDROOT
BRANCH   3   5
ATOM      5  C   UNL d   1      25.837 -16.011  -3.264  0.00  0.00     0.161 C 
BRANCH   5   6
ATOM      6  C   UNL d   1      25.756 -16.587  -1.846  0.00  0.00    -0.038 A 
ATOM      7  C   UNL d   1      26.766 -16.484  -0.891  0.00  0.00     0.009 A 
ATOM      8  C   UNL d   1      26.690 -17.227   0.303  0.00  0.00     0.003 A 
ATOM      9  C   UNL d   1      25.566 -18.022   0.602  0.00  0.00     0.029 A 
ATOM     10  C   UNL d   1      24.516 -18.106  -0.315  0.00  0.00     0.035 A 
ATOM     11  C   UNL d   1      24.647 -17.380  -1.515  0.00  0.00     0.038 A 
BRANCH  10  12
ATOM     12  N   UNL d   1      23.390 -18.952  -0.057  0.00  0.00    -0.327 N 
ATOM     13  C   UNL d   1      22.068 -18.564  -0.273  0.00  0.00     0.226 C 
ATOM     14  O   UNL d   1      21.725 -17.421  -0.611  0.00  0.00    -0.273 OA
ATOM     15  H   UNL d   1      23.578 -19.907   0.229  0.00  0.00     0.169 HD
BRANCH  13  16
ATOM     16  C   UNL d   1      20.933 -19.554  -0.176  0.00  0.00     0.078 C 
ATOM     17  C   UNL d   1      20.009 -19.902   1.002  0.00  0.00     0.014 C 
ATOM     18  C   UNL d   1      18.870 -20.072  -0.050  0.00  0.00     0.002 C 
ATOM     19  C   UNL d   1      19.629 -19.047  -0.892  0.00  0.00     0.014 C 
ENDBRANCH  13  16
ENDBRANCH  10  12
ENDBRANCH   5   6
ENDBRANCH   3   5
BRANCH   2  20
ATOM     20  C   UNL d   1      25.655 -12.177  -3.599  0.00  0.00     0.102 C 
ATOM     21  C   UNL d   1      25.531 -11.243  -4.592  0.00  0.00     0.049 C 
ATOM     22  C   UNL d   1      25.643  -9.973  -4.036  0.00  0.00    -0.005 C 
ATOM     23  C   UNL d   1      25.166  -8.764  -4.541  0.00  0.00     0.014 C 
ATOM     24  C   UNL d   1      26.456 -10.048  -2.904  0.00  0.00     0.076 C 
ATOM     25  C   UNL d   1      25.654  -7.565  -4.089  0.00  0.00     0.003 C 
ATOM     26  C   UNL d   1      26.643  -7.582  -3.125  0.00  0.00     0.038 C 
ATOM     27  C   UNL d   1      27.112  -8.795  -2.501  0.00  0.00     0.130 C 
ATOM     28  N   UNL d   1      26.221 -11.417  -2.508  0.00  0.00    -0.349 N 
ATOM     29  H   UNL d   1      26.190 -11.751  -1.547  0.00  0.00     0.166 HD
BRANCH  27  30
ATOM     30  N   UNL d   1      28.378  -8.552  -1.740  0.00  0.00    -0.113 N 
ATOM     31  O   UNL d   1      28.542  -9.174  -0.670  0.00  0.00    -0.532 OA
ATOM     32  O   UNL d   1      29.155  -7.688  -2.153  0.00  0.00    -0.532 OA
ENDBRANCH  27  30
ENDBRANCH   2  20
TORSDOF 6
ENDMDL
MODEL 9
REMARK VINA RESULT:    -8.433      4.591     10.001
REMARK INTER + INTRA:         -11.131
REMARK INTER:                 -10.223
REMARK INTRA:                  -0.907
REMARK CONF_INDEPENDENT:        1.790
REMARK UNBOUND:                -0.907
REMARK  6 active torsions:
REMARK  status: ('A' for Active; 'I' for Inactive)
REMARK       I    between atoms: C_2  and  N_3 
REMARK    1  A    between atoms: C_2  and  C_18 
REMARK    2  A    between atoms: N_3  and  C_4 
REMARK    3  A    between atoms: C_4  and  C_5 
REMARK    4  A    between atoms: C_9  and  N_10 
REMARK       I    between atoms: N_10  and  C_11 
REMARK    5  A    between atoms: C_11  and  C_13 
REMARK    6  A    between atoms: C_24  and  N_25 
ROOT
ATOM      1  O   UNL d   1      28.224 -12.427   1.875  0.00  0.00    -0.266 OA
ATOM      2  C   UNL d   1      28.244 -13.634   1.747  0.00  0.00     0.268 C 
ATOM      3  N   UNL d   1      29.004 -14.461   2.618  0.00  0.00    -0.351 N 
ATOM      4  H   UNL d   1      29.045 -15.448   2.460  0.00  0.00     0.163 HD
ENDROOT
BRANCH   3   5
ATOM      5  C   UNL d   1      29.926 -14.009   3.653  0.00  0.00     0.161 C 
BRANCH   5   6
ATOM      6  C   UNL d   1      29.243 -13.561   4.949  0.00  0.00    -0.038 A 
ATOM      7  C   UNL d   1      28.377 -12.473   5.053  0.00  0.00     0.009 A 
ATOM      8  C   UNL d   1      27.971 -12.008   6.319  0.00  0.00     0.003 A 
ATOM      9  C   UNL d   1      28.354 -12.672   7.501  0.00  0.00     0.029 A 
ATOM     10  C   UNL d   1      29.181 -13.795   7.426  0.00  0.00     0.035 A 
ATOM     11  C   UNL d   1      29.599 -14.204   6.144  0.00  0.00     0.038 A 
BRANCH  10  12
ATOM     12  N   UNL d   1      29.629 -14.450   8.617  0.00  0.00    -0.327 N 
ATOM     13  C   UNL d   1      30.472 -13.854   9.555  0.00  0.00     0.226 C 
ATOM     14  O   UNL d   1      31.000 -12.741   9.408  0.00  0.00    -0.273 OA
ATOM     15  H   UNL d   1      29.250 -15.369   8.816  0.00  0.00     0.169 HD
BRANCH  13  16
ATOM     16  C   UNL d   1      30.754 -14.508  10.886  0.00  0.00     0.078 C 
ATOM     17  C   UNL d   1      29.794 -14.986  11.987  0.00  0.00     0.014 C 
ATOM     18  C   UNL d   1      30.781 -16.172  12.217  0.00  0.00     0.002 C 
ATOM     19  C   UNL d   1      31.149 -16.023  10.740  0.00  0.00     0.014 C 
ENDBRANCH  13  16
ENDBRANCH  10  12
ENDBRANCH   5   6
ENDBRANCH   3   5
BRANCH   2  20
ATOM     20  C   UNL d   1      27.454 -14.402   0.723  0.00  0.00     0.102 C 
ATOM     21  C   UNL d   1      27.413 -15.770   0.716  0.00  0.00     0.049 C 
ATOM     22  C   UNL d   1      26.294 -16.186   0.000  0.00  0.00    -0.005 C 
ATOM     23  C   UNL d   1      25.616 -17.401   0.087  0.00  0.00     0.014 C 
ATOM     24  C   UNL d   1      25.998 -15.225  -0.968  0.00  0.00     0.076 C 
ATOM     25  C   UNL d   1      24.774 -17.816  -0.913  0.00  0.00     0.003 C 
ATOM     26  C   UNL d   1      24.623 -17.005  -2.020  0.00  0.00     0.038 C 
ATOM     27  C   UNL d   1      25.227 -15.699  -2.127  0.00  0.00     0.130 C 
ATOM     28  N   UNL d   1      26.534 -14.044  -0.333  0.00  0.00    -0.349 N 
ATOM     29  H   UNL d   1      26.139 -13.110  -0.408  0.00  0.00     0.166 HD
BRANCH  27  30
ATOM     30  N   UNL d   1      25.155 -15.189  -3.532  0.00  0.00    -0.113 N 
ATOM     31  O   UNL d   1      24.550 -14.114  -3.731  0.00  0.00    -0.532 OA
ATOM     32  O   UNL d   1      25.613 -15.891  -4.437  0.00  0.00    -0.532 OA
ENDBRANCH  27  30
ENDBRANCH   2  20
TORSDOF 6
ENDMDL
