MODEL 1
REMARK VINA RESULT:   -29.208      0.000      0.000
REMARK INTER + INTRA:         -35.403
REMARK INTER:                 -33.384
REMARK INTRA:                  -2.020
REMARK CONF_INDEPENDENT:        4.176
REMARK UNBOUND:                -2.020
REMARK  14 active torsions:
REMARK  status: ('A' for Active; 'I' for Inactive)
REMARK    1  A    between atoms: C_2  and  C_3 
REMARK    2  A    between atoms: C_3  and  N_4 
REMARK    3  A    between atoms: C_5  and  S_6 
REMARK    4  A    between atoms: S_6  and  C_7 
REMARK    5  A    between atoms: C_7  and  C_8 
REMARK       I    between atoms: C_8  and  N_10 
REMARK    6  A    between atoms: N_10  and  C_11 
REMARK    7  A    between atoms: C_14  and  S_15 
REMARK    8  A    between atoms: S_15  and  N_18 
REMARK    9  A    between atoms: N_18  and  C_19 
REMARK   10  A    between atoms: C_19  and  C_20 
REMARK   11  A    between atoms: C_20  and  C_21 
REMARK   12  A    between atoms: C_21  and  C_22 
REMARK   13  A    between atoms: C_22  and  C_23 
REMARK   14  A    between atoms: C_29  and  C_30 
ROOT
ATOM      1  C   UNL d   1      26.784 -15.893   0.105  0.00  0.00     0.231 C 
ATOM      2  O   UNL d   1      27.069 -17.086   0.190  0.00  0.00    -0.272 OA
ATOM      3  N   UNL d   1      25.506 -15.454  -0.292  0.00  0.00    -0.327 N 
ATOM      4  H   UNL d   1      25.379 -14.492  -0.576  0.00  0.00     0.169 HD
ENDROOT
BRANCH   3   5
ATOM      5  C   UNL d   1      24.440 -16.359  -0.590  0.00  0.00     0.034 A 
ATOM      6  C   UNL d   1      24.699 -17.680  -0.983  0.00  0.00     0.031 A 
ATOM      7  C   UNL d   1      23.635 -18.568  -1.254  0.00  0.00     0.027 A 
ATOM      8  C   UNL d   1      22.304 -18.146  -1.114  0.00  0.00     0.074 A 
ATOM      9  C   UNL d   1      22.038 -16.822  -0.782  0.00  0.00     0.027 A 
ATOM     10  C   UNL d   1      23.104 -15.942  -0.523  0.00  0.00     0.031 A 
BRANCH   8  11
ATOM     11  S   UNL d   1      21.010 -19.362  -1.275  0.00  0.00     0.241 S 
ATOM     12  O   UNL d   1      20.919 -19.700  -2.684  0.00  0.00    -0.206 OA
ATOM     13  O   UNL d   1      21.236 -20.368  -0.266  0.00  0.00    -0.206 OA
BRANCH  11  14
ATOM     14  N   UNL d   1      19.537 -18.575  -0.895  0.00  0.00    -0.216 NA
ATOM     15  H   UNL d   1      18.904 -18.632  -1.693  0.00  0.00     0.139 HD
BRANCH  14  16
ATOM     16  C   UNL d   1      18.895 -19.168   0.316  0.00  0.00     0.104 C 
BRANCH  16  17
ATOM     17  C   UNL d   1      18.395 -20.582   0.034  0.00  0.00     0.015 C 
BRANCH  17  18
ATOM     18  C   UNL d   1      18.227 -21.349   1.348  0.00  0.00     0.001 C 
BRANCH  18  19
ATOM     19  C   UNL d   1      18.404 -20.433   2.554  0.00  0.00    -0.000 C 
BRANCH  19  20
ATOM     20  C   UNL d   1      19.728 -20.709   3.260  0.00  0.00    -0.005 C 
ATOM     21  C   UNL d   1      19.529 -20.775   4.763  0.00  0.00     0.005 C 
ENDBRANCH  19  20
ENDBRANCH  18  19
ENDBRANCH  17  18
ENDBRANCH  16  17
ENDBRANCH  14  16
ENDBRANCH  11  14
ENDBRANCH   8  11
ENDBRANCH   3   5
BRANCH   1  22
ATOM     22  C   UNL d   1      27.812 -14.759   0.395  0.00  0.00     0.185 C 
BRANCH  22  23
ATOM     23  S   UNL d   1      28.583 -14.128  -1.109  0.00  0.00    -0.081 SA
BRANCH  23  24
ATOM     24  C   UNL d   1      29.327 -15.339  -2.119  0.00  0.00     0.192 A 
ATOM     25  N   UNL d   1      29.174 -15.709  -3.454  0.00  0.00    -0.304 N 
ATOM     26  C   UNL d   1      30.078 -16.776  -3.637  0.00  0.00     0.164 A 
ATOM     27  N   UNL d   1      30.684 -17.008  -2.491  0.00  0.00    -0.128 NA
ATOM     28  N   UNL d   1      30.238 -16.114  -1.569  0.00  0.00    -0.122 NA
BRANCH  25  29
ATOM     29  C   UNL d   1      28.174 -15.168  -4.393  0.00  0.00     0.159 C 
BRANCH  29  30
ATOM     30  C   UNL d   1      26.726 -15.424  -4.120  0.00  0.00    -0.017 C 
ATOM     31  C   UNL d   1      25.906 -15.142  -3.105  0.00  0.00     0.008 C 
ENDBRANCH  29  30
ENDBRANCH  25  29
BRANCH  26  32
ATOM     32  C   UNL d   1      30.396 -17.559  -4.847  0.00  0.00     0.012 C 
ATOM     33  C   UNL d   1      30.358 -18.959  -4.836  0.00  0.00     0.015 C 
ATOM     34  C   UNL d   1      30.628 -19.683  -6.006  0.00  0.00     0.001 C 
ATOM     35  C   UNL d   1      30.780 -19.021  -7.224  0.00  0.00     0.000 C 
ATOM     36  C   UNL d   1      30.823 -17.634  -7.247  0.00  0.00     0.001 C 
ATOM     37  C   UNL d   1      30.769 -16.923  -6.044  0.00  0.00     0.015 C 
ENDBRANCH  26  32
ENDBRANCH  23  24
ENDBRANCH  22  23
ENDBRANCH   1  22
TORSDOF 14
ENDMDL
MODEL 2
REMARK VINA RESULT:   -29.146      3.358      6.042
REMARK INTER + INTRA:         -36.028
REMARK INTER:                 -33.322
REMARK INTRA:                  -2.706
REMARK CONF_INDEPENDENT:        4.176
REMARK UNBOUND:                -2.706
REMARK  14 active torsions:
REMARK  status: ('A' for Active; 'I' for Inactive)
REMARK    1  A    between atoms: C_2  and  C_3 
REMARK    2  A    between atoms: C_3  and  N_4 
REMARK    3  A    between atoms: C_5  and  S_6 
REMARK    4  A    between atoms: S_6  and  C_7 
REMARK    5  A    between atoms: C_7  and  C_8 
REMARK       I    between atoms: C_8  and  N_10 
REMARK    6  A    between atoms: N_10  and  C_11 
REMARK    7  A    between atoms: C_14  and  S_15 
REMARK    8  A    between atoms: S_15  and  N_18 
REMARK    9  A    between atoms: N_18  and  C_19 
REMARK   10  A    between atoms: C_19  and  C_20 
REMARK   11  A    between atoms: C_20  and  C_21 
REMARK   12  A    between atoms: C_21  and  C_22 
REMARK   13  A    between atoms: C_22  and  C_23 
REMARK   14  A    between atoms: C_29  and  C_30 
ROOT
ATOM      1  C   UNL d   1      25.703 -14.685  -2.996  0.00  0.00     0.231 C 
ATOM      2  O   UNL d   1      24.691 -14.602  -3.690  0.00  0.00    -0.272 OA
ATOM      3  N   UNL d   1      25.774 -15.531  -1.873  0.00  0.00    -0.327 N 
ATOM      4  H   UNL d   1      26.518 -15.399  -1.201  0.00  0.00     0.169 HD
ENDROOT
BRANCH   3   5
ATOM      5  C   UNL d   1      24.693 -16.379  -1.480  0.00  0.00     0.034 A 
ATOM      6  C   UNL d   1      24.871 -17.763  -1.339  0.00  0.00     0.031 A 
ATOM      7  C   UNL d   1      23.799 -18.585  -0.929  0.00  0.00     0.027 A 
ATOM      8  C   UNL d   1      22.545 -18.025  -0.638  0.00  0.00     0.074 A 
ATOM      9  C   UNL d   1      22.343 -16.662  -0.832  0.00  0.00     0.027 A 
ATOM     10  C   UNL d   1      23.414 -15.853  -1.249  0.00  0.00     0.031 A 
BRANCH   8  11
ATOM     11  S   UNL d   1      21.290 -19.079   0.063  0.00  0.00     0.241 S 
ATOM     12  O   UNL d   1      21.720 -20.450  -0.150  0.00  0.00    -0.206 OA
ATOM     13  O   UNL d   1      20.989 -18.574   1.380  0.00  0.00    -0.206 OA
BRANCH  11  14
ATOM     14  N   UNL d   1      19.883 -18.885  -0.895  0.00  0.00    -0.216 NA
ATOM     15  H   UNL d   1      20.066 -19.221  -1.840  0.00  0.00     0.139 HD
BRANCH  14  16
ATOM     16  C   UNL d   1      18.715 -19.606  -0.306  0.00  0.00     0.104 C 
BRANCH  16  17
ATOM     17  C   UNL d   1      19.112 -21.005   0.156  0.00  0.00     0.015 C 
BRANCH  17  18
ATOM     18  C   UNL d   1      18.422 -21.333   1.482  0.00  0.00     0.001 C 
BRANCH  18  19
ATOM     19  C   UNL d   1      18.641 -20.229   2.511  0.00  0.00    -0.000 C 
BRANCH  19  20
ATOM     20  C   UNL d   1      19.898 -20.494   3.336  0.00  0.00    -0.005 C 
ATOM     21  C   UNL d   1      19.538 -20.767   4.785  0.00  0.00     0.005 C 
ENDBRANCH  19  20
ENDBRANCH  18  19
ENDBRANCH  17  18
ENDBRANCH  16  17
ENDBRANCH  14  16
ENDBRANCH  11  14
ENDBRANCH   8  11
ENDBRANCH   3   5
BRANCH   1  22
ATOM     22  C   UNL d   1      26.984 -13.841  -3.272  0.00  0.00     0.185 C 
BRANCH  22  23
ATOM     23  S   UNL d   1      28.296 -14.173  -2.078  0.00  0.00    -0.081 SA
BRANCH  23  24
ATOM     24  C   UNL d   1      27.875 -13.859  -0.416  0.00  0.00     0.192 A 
ATOM     25  N   UNL d   1      28.618 -13.666   0.748  0.00  0.00    -0.304 N 
ATOM     26  C   UNL d   1      27.655 -13.466   1.758  0.00  0.00     0.164 A 
ATOM     27  N   UNL d   1      26.458 -13.557   1.217  0.00  0.00    -0.128 NA
ATOM     28  N   UNL d   1      26.595 -13.778  -0.117  0.00  0.00    -0.122 NA
BRANCH  25  29
ATOM     29  C   UNL d   1      30.081 -13.792   0.872  0.00  0.00     0.159 C 
BRANCH  29  30
ATOM     30  C   UNL d   1      30.837 -12.694   1.551  0.00  0.00    -0.017 C 
ATOM     31  C   UNL d   1      30.714 -11.366   1.592  0.00  0.00     0.008 C 
ENDBRANCH  29  30
ENDBRANCH  25  29
BRANCH  26  32
ATOM     32  C   UNL d   1      27.828 -13.177   3.196  0.00  0.00     0.012 C 
ATOM     33  C   UNL d   1      28.024 -14.207   4.125  0.00  0.00     0.015 C 
ATOM     34  C   UNL d   1      28.223 -13.909   5.480  0.00  0.00     0.001 C 
ATOM     35  C   UNL d   1      28.386 -12.586   5.894  0.00  0.00     0.000 C 
ATOM     36  C   UNL d   1      28.190 -11.557   4.983  0.00  0.00     0.001 C 
ATOM     37  C   UNL d   1      27.779 -11.858   3.681  0.00  0.00     0.015 C 
ENDBRANCH  26  32
ENDBRANCH  23  24
ENDBRANCH  22  23
ENDBRANCH   1  22
TORSDOF 14
ENDMDL
MODEL 3
REMARK VINA RESULT:   -28.969      1.497      2.632
REMARK INTER + INTRA:         -34.358
REMARK INTER:                 -33.146
REMARK INTRA:                  -1.212
REMARK CONF_INDEPENDENT:        4.176
REMARK UNBOUND:                -1.212
REMARK  14 active torsions:
REMARK  status: ('A' for Active; 'I' for Inactive)
REMARK    1  A    between atoms: C_2  and  C_3 
REMARK    2  A    between atoms: C_3  and  N_4 
REMARK    3  A    between atoms: C_5  and  S_6 
REMARK    4  A    between atoms: S_6  and  C_7 
REMARK    5  A    between atoms: C_7  and  C_8 
REMARK       I    between atoms: C_8  and  N_10 
REMARK    6  A    between atoms: N_10  and  C_11 
REMARK    7  A    between atoms: C_14  and  S_15 
REMARK    8  A    between atoms: S_15  and  N_18 
REMARK    9  A    between atoms: N_18  and  C_19 
REMARK   10  A    between atoms: C_19  and  C_20 
REMARK   11  A    between atoms: C_20  and  C_21 
REMARK   12  A    between atoms: C_21  and  C_22 
REMARK   13  A    between atoms: C_22  and  C_23 
REMARK   14  A    between atoms: C_29  and  C_30 
ROOT
ATOM      1  C   UNL d   1      26.758 -15.103  -1.389  0.00  0.00     0.231 C 
ATOM      2  O   UNL d   1      27.020 -15.543  -0.271  0.00  0.00    -0.272 OA
ATOM      3  N   UNL d   1      25.564 -15.428  -2.062  0.00  0.00    -0.327 N 
ATOM      4  H   UNL d   1      25.491 -15.247  -3.054  0.00  0.00     0.169 HD
ENDROOT
BRANCH   3   5
ATOM      5  C   UNL d   1      24.557 -16.261  -1.482  0.00  0.00     0.034 A 
ATOM      6  C   UNL d   1      23.248 -15.795  -1.298  0.00  0.00     0.031 A 
ATOM      7  C   UNL d   1      22.259 -16.636  -0.743  0.00  0.00     0.027 A 
ATOM      8  C   UNL d   1      22.569 -17.958  -0.387  0.00  0.00     0.074 A 
ATOM      9  C   UNL d   1      23.879 -18.410  -0.511  0.00  0.00     0.027 A 
ATOM     10  C   UNL d   1      24.859 -17.562  -1.055  0.00  0.00     0.031 A 
BRANCH   8  11
ATOM     11  S   UNL d   1      21.239 -19.031   0.121  0.00  0.00     0.241 S 
ATOM     12  O   UNL d   1      21.640 -20.388  -0.209  0.00  0.00    -0.206 OA
ATOM     13  O   UNL d   1      20.868 -18.653   1.461  0.00  0.00    -0.206 OA
BRANCH  11  14
ATOM     14  N   UNL d   1      19.905 -18.687  -0.897  0.00  0.00    -0.216 NA
ATOM     15  H   UNL d   1      20.189 -18.774  -1.873  0.00  0.00     0.139 HD
BRANCH  14  16
ATOM     16  C   UNL d   1      18.751 -19.590  -0.613  0.00  0.00     0.104 C 
BRANCH  16  17
ATOM     17  C   UNL d   1      19.211 -20.856   0.104  0.00  0.00     0.015 C 
BRANCH  17  18
ATOM     18  C   UNL d   1      18.078 -21.405   0.975  0.00  0.00     0.001 C 
BRANCH  18  19
ATOM     19  C   UNL d   1      18.026 -20.703   2.328  0.00  0.00    -0.000 C 
BRANCH  19  20
ATOM     20  C   UNL d   1      19.430 -20.370   2.824  0.00  0.00    -0.005 C 
ATOM     21  C   UNL d   1      19.612 -20.829   4.259  0.00  0.00     0.005 C 
ENDBRANCH  19  20
ENDBRANCH  18  19
ENDBRANCH  17  18
ENDBRANCH  16  17
ENDBRANCH  14  16
ENDBRANCH  11  14
ENDBRANCH   8  11
ENDBRANCH   3   5
BRANCH   1  22
ATOM     22  C   UNL d   1      27.730 -14.175  -2.178  0.00  0.00     0.185 C 
BRANCH  22  23
ATOM     23  S   UNL d   1      27.309 -14.066  -3.929  0.00  0.00    -0.081 SA
BRANCH  23  24
ATOM     24  C   UNL d   1      28.315 -15.017  -4.989  0.00  0.00     0.192 A 
ATOM     25  N   UNL d   1      29.195 -16.079  -4.789  0.00  0.00    -0.304 N 
ATOM     26  C   UNL d   1      29.693 -16.380  -6.074  0.00  0.00     0.164 A 
ATOM     27  N   UNL d   1      29.155 -15.541  -6.935  0.00  0.00    -0.128 NA
ATOM     28  N   UNL d   1      28.297 -14.721  -6.272  0.00  0.00    -0.122 NA
BRANCH  25  29
ATOM     29  C   UNL d   1      29.591 -16.641  -3.485  0.00  0.00     0.159 C 
BRANCH  29  30
ATOM     30  C   UNL d   1      30.571 -17.771  -3.462  0.00  0.00    -0.017 C 
ATOM     31  C   UNL d   1      31.831 -17.902  -3.041  0.00  0.00     0.008 C 
ENDBRANCH  29  30
ENDBRANCH  25  29
BRANCH  26  32
ATOM     32  C   UNL d   1      30.634 -17.431  -6.509  0.00  0.00     0.012 C 
ATOM     33  C   UNL d   1      31.763 -17.121  -7.278  0.00  0.00     0.015 C 
ATOM     34  C   UNL d   1      32.664 -18.129  -7.649  0.00  0.00     0.001 C 
ATOM     35  C   UNL d   1      32.533 -19.417  -7.130  0.00  0.00     0.000 C 
ATOM     36  C   UNL d   1      31.416 -19.737  -6.371  0.00  0.00     0.001 C 
ATOM     37  C   UNL d   1      30.412 -18.781  -6.184  0.00  0.00     0.015 C 
ENDBRANCH  26  32
ENDBRANCH  23  24
ENDBRANCH  22  23
ENDBRANCH   1  22
TORSDOF 14
ENDMDL
MODEL 4
REMARK VINA RESULT:   -28.624      1.210      2.116
REMARK INTER + INTRA:         -33.867
REMARK INTER:                 -32.800
REMARK INTRA:                  -1.067
REMARK CONF_INDEPENDENT:        4.176
REMARK UNBOUND:                -1.067
REMARK  14 active torsions:
REMARK  status: ('A' for Active; 'I' for Inactive)
REMARK    1  A    between atoms: C_2  and  C_3 
REMARK    2  A    between atoms: C_3  and  N_4 
REMARK    3  A    between atoms: C_5  and  S_6 
REMARK    4  A    between atoms: S_6  and  C_7 
REMARK    5  A    between atoms: C_7  and  C_8 
REMARK       I    between atoms: C_8  and  N_10 
REMARK    6  A    between atoms: N_10  and  C_11 
REMARK    7  A    between atoms: C_14  and  S_15 
REMARK    8  A    between atoms: S_15  and  N_18 
REMARK    9  A    between atoms: N_18  and  C_19 
REMARK   10  A    between atoms: C_19  and  C_20 
REMARK   11  A    between atoms: C_20  and  C_21 
REMARK   12  A    between atoms: C_21  and  C_22 
REMARK   13  A    between atoms: C_22  and  C_23 
REMARK   14  A    between atoms: C_29  and  C_30 
ROOT
ATOM      1  C   UNL d   1      26.893 -15.806  -0.497  0.00  0.00     0.231 C 
ATOM      2  O   UNL d   1      27.226 -16.962  -0.753  0.00  0.00    -0.272 OA
ATOM      3  N   UNL d   1      25.545 -15.399  -0.487  0.00  0.00    -0.327 N 
ATOM      4  H   UNL d   1      25.326 -14.412  -0.508  0.00  0.00     0.169 HD
ENDROOT
BRANCH   3   5
ATOM      5  C   UNL d   1      24.467 -16.304  -0.737  0.00  0.00     0.034 A 
ATOM      6  C   UNL d   1      24.688 -17.545  -1.349  0.00  0.00     0.031 A 
ATOM      7  C   UNL d   1      23.616 -18.436  -1.571  0.00  0.00     0.027 A 
ATOM      8  C   UNL d   1      22.316 -18.099  -1.163  0.00  0.00     0.074 A 
ATOM      9  C   UNL d   1      22.077 -16.847  -0.608  0.00  0.00     0.027 A 
ATOM     10  C   UNL d   1      23.150 -15.961  -0.400  0.00  0.00     0.031 A 
BRANCH   8  11
ATOM     11  S   UNL d   1      21.043 -19.341  -1.287  0.00  0.00     0.241 S 
ATOM     12  O   UNL d   1      20.936 -19.699  -2.690  0.00  0.00    -0.206 OA
ATOM     13  O   UNL d   1      21.302 -20.328  -0.269  0.00  0.00    -0.206 OA
BRANCH  11  14
ATOM     14  N   UNL d   1      19.561 -18.575  -0.895  0.00  0.00    -0.216 NA
ATOM     15  H   UNL d   1      18.902 -18.694  -1.664  0.00  0.00     0.139 HD
BRANCH  14  16
ATOM     16  C   UNL d   1      18.982 -19.117   0.370  0.00  0.00     0.104 C 
BRANCH  16  17
ATOM     17  C   UNL d   1      18.683 -20.608   0.240  0.00  0.00     0.015 C 
BRANCH  17  18
ATOM     18  C   UNL d   1      18.027 -21.123   1.524  0.00  0.00     0.001 C 
BRANCH  18  19
ATOM     19  C   UNL d   1      18.672 -20.512   2.763  0.00  0.00    -0.000 C 
BRANCH  19  20
ATOM     20  C   UNL d   1      20.189 -20.445   2.611  0.00  0.00    -0.005 C 
ATOM     21  C   UNL d   1      20.659 -19.003   2.562  0.00  0.00     0.005 C 
ENDBRANCH  19  20
ENDBRANCH  18  19
ENDBRANCH  17  18
ENDBRANCH  16  17
ENDBRANCH  14  16
ENDBRANCH  11  14
ENDBRANCH   8  11
ENDBRANCH   3   5
BRANCH   1  22
ATOM     22  C   UNL d   1      27.927 -14.680  -0.194  0.00  0.00     0.185 C 
BRANCH  22  23
ATOM     23  S   UNL d   1      29.594 -15.114  -0.731  0.00  0.00    -0.081 SA
BRANCH  23  24
ATOM     24  C   UNL d   1      29.684 -15.918  -2.275  0.00  0.00     0.192 A 
ATOM     25  N   UNL d   1      30.443 -16.979  -2.769  0.00  0.00    -0.304 N 
ATOM     26  C   UNL d   1      30.029 -17.123  -4.109  0.00  0.00     0.164 A 
ATOM     27  N   UNL d   1      29.120 -16.204  -4.365  0.00  0.00    -0.128 NA
ATOM     28  N   UNL d   1      28.896 -15.482  -3.236  0.00  0.00    -0.122 NA
BRANCH  25  29
ATOM     29  C   UNL d   1      31.527 -17.674  -2.051  0.00  0.00     0.159 C 
BRANCH  29  30
ATOM     30  C   UNL d   1      31.338 -19.116  -1.697  0.00  0.00    -0.017 C 
ATOM     31  C   UNL d   1      31.381 -19.807  -0.556  0.00  0.00     0.008 C 
ENDBRANCH  29  30
ENDBRANCH  25  29
BRANCH  26  32
ATOM     32  C   UNL d   1      30.446 -18.099  -5.135  0.00  0.00     0.012 C 
ATOM     33  C   UNL d   1      30.607 -19.455  -4.824  0.00  0.00     0.015 C 
ATOM     34  C   UNL d   1      30.967 -20.371  -5.822  0.00  0.00     0.001 C 
ATOM     35  C   UNL d   1      31.015 -19.974  -7.159  0.00  0.00     0.000 C 
ATOM     36  C   UNL d   1      30.862 -18.632  -7.478  0.00  0.00     0.001 C 
ATOM     37  C   UNL d   1      30.717 -17.692  -6.454  0.00  0.00     0.015 C 
ENDBRANCH  26  32
ENDBRANCH  23  24
ENDBRANCH  22  23
ENDBRANCH   1  22
TORSDOF 14
ENDMDL
MODEL 5
REMARK VINA RESULT:   -28.505      3.815      6.980
REMARK INTER + INTRA:         -34.232
REMARK INTER:                 -32.681
REMARK INTRA:                  -1.550
REMARK CONF_INDEPENDENT:        4.176
REMARK UNBOUND:                -1.550
REMARK  14 active torsions:
REMARK  status: ('A' for Active; 'I' for Inactive)
REMARK    1  A    between atoms: C_2  and  C_3 
REMARK    2  A    between atoms: C_3  and  N_4 
REMARK    3  A    between atoms: C_5  and  S_6 
REMARK    4  A    between atoms: S_6  and  C_7 
REMARK    5  A    between atoms: C_7  and  C_8 
REMARK       I    between atoms: C_8  and  N_10 
REMARK    6  A    between atoms: N_10  and  C_11 
REMARK    7  A    between atoms: C_14  and  S_15 
REMARK    8  A    between atoms: S_15  and  N_18 
REMARK    9  A    between atoms: N_18  and  C_19 
REMARK   10  A    between atoms: C_19  and  C_20 
REMARK   11  A    between atoms: C_20  and  C_21 
REMARK   12  A    between atoms: C_21  and  C_22 
REMARK   13  A    between atoms: C_22  and  C_23 
REMARK   14  A    between atoms: C_29  and  C_30 
ROOT
ATOM      1  C   UNL d   1      26.887 -15.959  -0.450  0.00  0.00     0.231 C 
ATOM      2  O   UNL d   1      27.171 -17.156  -0.457  0.00  0.00    -0.272 OA
ATOM      3  N   UNL d   1      25.576 -15.499  -0.674  0.00  0.00    -0.327 N 
ATOM      4  H   UNL d   1      25.425 -14.523  -0.895  0.00  0.00     0.169 HD
ENDROOT
BRANCH   3   5
ATOM      5  C   UNL d   1      24.475 -16.385  -0.890  0.00  0.00     0.034 A 
ATOM      6  C   UNL d   1      24.658 -17.632  -1.505  0.00  0.00     0.031 A 
ATOM      7  C   UNL d   1      23.565 -18.506  -1.693  0.00  0.00     0.027 A 
ATOM      8  C   UNL d   1      22.283 -18.146  -1.247  0.00  0.00     0.074 A 
ATOM      9  C   UNL d   1      22.082 -16.888  -0.689  0.00  0.00     0.027 A 
ATOM     10  C   UNL d   1      23.175 -16.021  -0.515  0.00  0.00     0.031 A 
BRANCH   8  11
ATOM     11  S   UNL d   1      20.986 -19.366  -1.330  0.00  0.00     0.241 S 
ATOM     12  O   UNL d   1      20.831 -19.725  -2.728  0.00  0.00    -0.206 OA
ATOM     13  O   UNL d   1      21.259 -20.355  -0.317  0.00  0.00    -0.206 OA
BRANCH  11  14
ATOM     14  N   UNL d   1      19.530 -18.575  -0.895  0.00  0.00    -0.216 NA
ATOM     15  H   UNL d   1      18.894 -18.568  -1.692  0.00  0.00     0.139 HD
BRANCH  14  16
ATOM     16  C   UNL d   1      18.880 -19.230   0.279  0.00  0.00     0.104 C 
BRANCH  16  17
ATOM     17  C   UNL d   1      18.528 -20.682  -0.031  0.00  0.00     0.015 C 
BRANCH  17  18
ATOM     18  C   UNL d   1      18.093 -21.399   1.251  0.00  0.00     0.001 C 
BRANCH  18  19
ATOM     19  C   UNL d   1      18.230 -20.493   2.469  0.00  0.00    -0.000 C 
BRANCH  19  20
ATOM     20  C   UNL d   1      19.618 -20.620   3.090  0.00  0.00    -0.005 C 
ATOM     21  C   UNL d   1      20.525 -19.504   2.605  0.00  0.00     0.005 C 
ENDBRANCH  19  20
ENDBRANCH  18  19
ENDBRANCH  17  18
ENDBRANCH  16  17
ENDBRANCH  14  16
ENDBRANCH  11  14
ENDBRANCH   8  11
ENDBRANCH   3   5
BRANCH   1  22
ATOM     22  C   UNL d   1      27.952 -14.843  -0.227  0.00  0.00     0.185 C 
BRANCH  22  23
ATOM     23  S   UNL d   1      27.364 -13.542   0.876  0.00  0.00    -0.081 SA
BRANCH  23  24
ATOM     24  C   UNL d   1      27.846 -13.715   2.542  0.00  0.00     0.192 A 
ATOM     25  N   UNL d   1      28.645 -12.961   3.400  0.00  0.00    -0.304 N 
ATOM     26  C   UNL d   1      28.631 -13.668   4.619  0.00  0.00     0.164 A 
ATOM     27  N   UNL d   1      27.899 -14.752   4.463  0.00  0.00    -0.128 NA
ATOM     28  N   UNL d   1      27.403 -14.768   3.197  0.00  0.00    -0.122 NA
BRANCH  25  29
ATOM     29  C   UNL d   1      29.425 -11.766   3.028  0.00  0.00     0.159 C 
BRANCH  29  30
ATOM     30  C   UNL d   1      28.695 -10.576   2.490  0.00  0.00    -0.017 C 
ATOM     31  C   UNL d   1      27.608  -9.901   2.870  0.00  0.00     0.008 C 
ENDBRANCH  29  30
ENDBRANCH  25  29
BRANCH  26  32
ATOM     32  C   UNL d   1      29.264 -13.348   5.914  0.00  0.00     0.012 C 
ATOM     33  C   UNL d   1      29.829 -14.350   6.713  0.00  0.00     0.015 C 
ATOM     34  C   UNL d   1      30.458 -14.020   7.922  0.00  0.00     0.001 C 
ATOM     35  C   UNL d   1      30.667 -12.685   8.265  0.00  0.00     0.000 C 
ATOM     36  C   UNL d   1      30.108 -11.683   7.483  0.00  0.00     0.001 C 
ATOM     37  C   UNL d   1      29.299 -12.028   6.397  0.00  0.00     0.015 C 
ENDBRANCH  26  32
ENDBRANCH  23  24
ENDBRANCH  22  23
ENDBRANCH   1  22
TORSDOF 14
ENDMDL
MODEL 6
REMARK VINA RESULT:   -28.040      3.800      5.556
REMARK INTER + INTRA:         -33.594
REMARK INTER:                 -32.216
REMARK INTRA:                  -1.378
REMARK CONF_INDEPENDENT:        4.176
REMARK UNBOUND:                -1.378
REMARK  14 active torsions:
REMARK  status: ('A' for Active; 'I' for Inactive)
REMARK    1  A    between atoms: C_2  and  C_3 
REMARK    2  A    between atoms: C_3  and  N_4 
REMARK    3  A    between atoms: C_5  and  S_6 
REMARK    4  A    between atoms: S_6  and  C_7 
REMARK    5  A    between atoms: C_7  and  C_8 
REMARK       I    between atoms: C_8  and  N_10 
REMARK    6  A    between atoms: N_10  and  C_11 
REMARK    7  A    between atoms: C_14  and  S_15 
REMARK    8  A    between atoms: S_15  and  N_18 
REMARK    9  A    between atoms: N_18  and  C_19 
REMARK   10  A    between atoms: C_19  and  C_20 
REMARK   11  A    between atoms: C_20  and  C_21 
REMARK   12  A    between atoms: C_21  and  C_22 
REMARK   13  A    between atoms: C_22  and  C_23 
REMARK   14  A    between atoms: C_29  and  C_30 
ROOT
ATOM      1  C   UNL d   1      26.830 -15.567  -1.753  0.00  0.00     0.231 C 
ATOM      2  O   UNL d   1      27.270 -16.465  -1.038  0.00  0.00    -0.272 OA
ATOM      3  N   UNL d   1      25.452 -15.416  -2.003  0.00  0.00    -0.327 N 
ATOM      4  H   UNL d   1      25.151 -14.828  -2.770  0.00  0.00     0.169 HD
ENDROOT
BRANCH   3   5
ATOM      5  C   UNL d   1      24.466 -16.269  -1.418  0.00  0.00     0.034 A 
ATOM      6  C   UNL d   1      23.171 -15.803  -1.150  0.00  0.00     0.031 A 
ATOM      7  C   UNL d   1      22.202 -16.664  -0.591  0.00  0.00     0.027 A 
ATOM      8  C   UNL d   1      22.516 -18.004  -0.315  0.00  0.00     0.074 A 
ATOM      9  C   UNL d   1      23.813 -18.459  -0.523  0.00  0.00     0.027 A 
ATOM     10  C   UNL d   1      24.775 -17.591  -1.071  0.00  0.00     0.031 A 
BRANCH   8  11
ATOM     11  S   UNL d   1      21.201 -19.091   0.201  0.00  0.00     0.241 S 
ATOM     12  O   UNL d   1      21.662 -20.450  -0.020  0.00  0.00    -0.206 OA
ATOM     13  O   UNL d   1      20.754 -18.643   1.497  0.00  0.00    -0.206 OA
BRANCH  11  14
ATOM     14  N   UNL d   1      19.905 -18.862  -0.895  0.00  0.00    -0.216 NA
ATOM     15  H   UNL d   1      20.186 -19.172  -1.825  0.00  0.00     0.139 HD
BRANCH  14  16
ATOM     16  C   UNL d   1      18.679 -19.593  -0.456  0.00  0.00     0.104 C 
BRANCH  16  17
ATOM     17  C   UNL d   1      19.032 -20.971   0.096  0.00  0.00     0.015 C 
BRANCH  17  18
ATOM     18  C   UNL d   1      18.376 -21.168   1.465  0.00  0.00     0.001 C 
BRANCH  18  19
ATOM     19  C   UNL d   1      18.846 -20.118   2.466  0.00  0.00    -0.000 C 
BRANCH  19  20
ATOM     20  C   UNL d   1      19.975 -20.661   3.337  0.00  0.00    -0.005 C 
ATOM     21  C   UNL d   1      19.516 -20.806   4.777  0.00  0.00     0.005 C 
ENDBRANCH  19  20
ENDBRANCH  18  19
ENDBRANCH  17  18
ENDBRANCH  16  17
ENDBRANCH  14  16
ENDBRANCH  11  14
ENDBRANCH   8  11
ENDBRANCH   3   5
BRANCH   1  22
ATOM     22  C   UNL d   1      27.751 -14.537  -2.473  0.00  0.00     0.185 C 
BRANCH  22  23
ATOM     23  S   UNL d   1      27.861 -12.971  -1.582  0.00  0.00    -0.081 SA
BRANCH  23  24
ATOM     24  C   UNL d   1      27.196 -11.597  -2.422  0.00  0.00     0.192 A 
ATOM     25  N   UNL d   1      26.701 -11.399  -3.710  0.00  0.00    -0.304 N 
ATOM     26  C   UNL d   1      26.325 -10.041  -3.746  0.00  0.00     0.164 A 
ATOM     27  N   UNL d   1      26.602  -9.502  -2.577  0.00  0.00    -0.128 NA
ATOM     28  N   UNL d   1      27.116 -10.460  -1.762  0.00  0.00    -0.122 NA
BRANCH  25  29
ATOM     29  C   UNL d   1      26.717 -12.388  -4.804  0.00  0.00     0.159 C 
BRANCH  29  30
ATOM     30  C   UNL d   1      25.850 -13.601  -4.683  0.00  0.00    -0.017 C 
ATOM     31  C   UNL d   1      25.881 -14.824  -5.216  0.00  0.00     0.008 C 
ENDBRANCH  29  30
ENDBRANCH  25  29
BRANCH  26  32
ATOM     32  C   UNL d   1      25.704  -9.253  -4.829  0.00  0.00     0.012 C 
ATOM     33  C   UNL d   1      24.535  -8.513  -4.609  0.00  0.00     0.015 C 
ATOM     34  C   UNL d   1      23.982  -7.741  -5.641  0.00  0.00     0.001 C 
ATOM     35  C   UNL d   1      24.671  -7.575  -6.843  0.00  0.00     0.000 C 
ATOM     36  C   UNL d   1      25.828  -8.307  -7.074  0.00  0.00     0.001 C 
ATOM     37  C   UNL d   1      26.255  -9.238  -6.123  0.00  0.00     0.015 C 
ENDBRANCH  26  32
ENDBRANCH  23  24
ENDBRANCH  22  23
ENDBRANCH   1  22
TORSDOF 14
ENDMDL
MODEL 7
REMARK VINA RESULT:   -27.248      4.311      6.136
REMARK INTER + INTRA:         -33.151
REMARK INTER:                 -31.425
REMARK INTRA:                  -1.726
REMARK CONF_INDEPENDENT:        4.176
REMARK UNBOUND:                -1.726
REMARK  14 active torsions:
REMARK  status: ('A' for Active; 'I' for Inactive)
REMARK    1  A    between atoms: C_2  and  C_3 
REMARK    2  A    between atoms: C_3  and  N_4 
REMARK    3  A    between atoms: C_5  and  S_6 
REMARK    4  A    between atoms: S_6  and  C_7 
REMARK    5  A    between atoms: C_7  and  C_8 
REMARK       I    between atoms: C_8  and  N_10 
REMARK    6  A    between atoms: N_10  and  C_11 
REMARK    7  A    between atoms: C_14  and  S_15 
REMARK    8  A    between atoms: S_15  and  N_18 
REMARK    9  A    between atoms: N_18  and  C_19 
REMARK   10  A    between atoms: C_19  and  C_20 
REMARK   11  A    between atoms: C_20  and  C_21 
REMARK   12  A    between atoms: C_21  and  C_22 
REMARK   13  A    between atoms: C_22  and  C_23 
REMARK   14  A    between atoms: C_29  and  C_30 
ROOT
ATOM      1  C   UNL d   1      26.689 -15.252  -2.397  0.00  0.00     0.231 C 
ATOM      2  O   UNL d   1      27.210 -16.168  -1.763  0.00  0.00    -0.272 OA
ATOM      3  N   UNL d   1      25.292 -15.111  -2.499  0.00  0.00    -0.327 N 
ATOM      4  H   UNL d   1      24.907 -14.502  -3.209  0.00  0.00     0.169 HD
ENDROOT
BRANCH   3   5
ATOM      5  C   UNL d   1      24.379 -15.997  -1.847  0.00  0.00     0.034 A 
ATOM      6  C   UNL d   1      23.091 -15.576  -1.487  0.00  0.00     0.031 A 
ATOM      7  C   UNL d   1      22.194 -16.469  -0.862  0.00  0.00     0.027 A 
ATOM      8  C   UNL d   1      22.573 -17.797  -0.611  0.00  0.00     0.074 A 
ATOM      9  C   UNL d   1      23.868 -18.207  -0.911  0.00  0.00     0.027 A 
ATOM     10  C   UNL d   1      24.758 -17.308  -1.524  0.00  0.00     0.031 A 
BRANCH   8  11
ATOM     11  S   UNL d   1      21.337 -18.929  -0.004  0.00  0.00     0.241 S 
ATOM     12  O   UNL d   1      21.760 -20.264  -0.385  0.00  0.00    -0.206 OA
ATOM     13  O   UNL d   1      21.070 -18.580   1.369  0.00  0.00    -0.206 OA
BRANCH  11  14
ATOM     14  N   UNL d   1      19.906 -18.629  -0.897  0.00  0.00    -0.216 NA
ATOM     15  H   UNL d   1      20.053 -18.885  -1.873  0.00  0.00     0.139 HD
BRANCH  14  16
ATOM     16  C   UNL d   1      18.742 -19.378  -0.335  0.00  0.00     0.104 C 
BRANCH  16  17
ATOM     17  C   UNL d   1      19.099 -20.842  -0.094  0.00  0.00     0.015 C 
BRANCH  17  18
ATOM     18  C   UNL d   1      18.453 -21.329   1.206  0.00  0.00     0.001 C 
BRANCH  18  19
ATOM     19  C   UNL d   1      18.527 -20.266   2.297  0.00  0.00    -0.000 C 
BRANCH  19  20
ATOM     20  C   UNL d   1      19.856 -20.341   3.043  0.00  0.00    -0.005 C 
ATOM     21  C   UNL d   1      19.647 -20.854   4.456  0.00  0.00     0.005 C 
ENDBRANCH  19  20
ENDBRANCH  18  19
ENDBRANCH  17  18
ENDBRANCH  16  17
ENDBRANCH  14  16
ENDBRANCH  11  14
ENDBRANCH   8  11
ENDBRANCH   3   5
BRANCH   1  22
ATOM     22  C   UNL d   1      27.521 -14.185  -3.171  0.00  0.00     0.185 C 
BRANCH  22  23
ATOM     23  S   UNL d   1      26.946 -13.962  -4.867  0.00  0.00    -0.081 SA
BRANCH  23  24
ATOM     24  C   UNL d   1      26.659 -12.307  -5.335  0.00  0.00     0.192 A 
ATOM     25  N   UNL d   1      26.390 -11.136  -4.628  0.00  0.00    -0.304 N 
ATOM     26  C   UNL d   1      26.254 -10.142  -5.619  0.00  0.00     0.164 A 
ATOM     27  N   UNL d   1      26.412 -10.706  -6.798  0.00  0.00    -0.128 NA
ATOM     28  N   UNL d   1      26.680 -12.027  -6.622  0.00  0.00    -0.122 NA
BRANCH  25  29
ATOM     29  C   UNL d   1      26.169 -11.035  -3.174  0.00  0.00     0.159 C 
BRANCH  29  30
ATOM     30  C   UNL d   1      27.349 -10.791  -2.287  0.00  0.00    -0.017 C 
ATOM     31  C   UNL d   1      27.777 -11.322  -1.140  0.00  0.00     0.008 C 
ENDBRANCH  29  30
ENDBRANCH  25  29
BRANCH  26  32
ATOM     32  C   UNL d   1      26.000  -8.694  -5.486  0.00  0.00     0.012 C 
ATOM     33  C   UNL d   1      25.442  -7.956  -6.538  0.00  0.00     0.015 C 
ATOM     34  C   UNL d   1      25.175  -6.589  -6.379  0.00  0.00     0.001 C 
ATOM     35  C   UNL d   1      25.313  -5.985  -5.129  0.00  0.00     0.000 C 
ATOM     36  C   UNL d   1      25.869  -6.705  -4.080  0.00  0.00     0.001 C 
ATOM     37  C   UNL d   1      26.333  -8.005  -4.306  0.00  0.00     0.015 C 
ENDBRANCH  26  32
ENDBRANCH  23  24
ENDBRANCH  22  23
ENDBRANCH   1  22
TORSDOF 14
ENDMDL
MODEL 8
REMARK VINA RESULT:   -27.129      3.183      4.052
REMARK INTER + INTRA:         -32.038
REMARK INTER:                 -31.306
REMARK INTRA:                  -0.732
REMARK CONF_INDEPENDENT:        4.176
REMARK UNBOUND:                -0.732
REMARK  14 active torsions:
REMARK  status: ('A' for Active; 'I' for Inactive)
REMARK    1  A    between atoms: C_2  and  C_3 
REMARK    2  A    between atoms: C_3  and  N_4 
REMARK    3  A    between atoms: C_5  and  S_6 
REMARK    4  A    between atoms: S_6  and  C_7 
REMARK    5  A    between atoms: C_7  and  C_8 
REMARK       I    between atoms: C_8  and  N_10 
REMARK    6  A    between atoms: N_10  and  C_11 
REMARK    7  A    between atoms: C_14  and  S_15 
REMARK    8  A    between atoms: S_15  and  N_18 
REMARK    9  A    between atoms: N_18  and  C_19 
REMARK   10  A    between atoms: C_19  and  C_20 
REMARK   11  A    between atoms: C_20  and  C_21 
REMARK   12  A    between atoms: C_21  and  C_22 
REMARK   13  A    between atoms: C_22  and  C_23 
REMARK   14  A    between atoms: C_29  and  C_30 
ROOT
ATOM      1  C   UNL d   1      25.961 -15.343  -3.371  0.00  0.00     0.231 C 
ATOM      2  O   UNL d   1      25.521 -16.211  -4.123  0.00  0.00    -0.272 OA
ATOM      3  N   UNL d   1      25.495 -15.189  -2.051  0.00  0.00    -0.327 N 
ATOM      4  H   UNL d   1      25.700 -14.335  -1.550  0.00  0.00     0.169 HD
ENDROOT
BRANCH   3   5
ATOM      5  C   UNL d   1      24.506 -16.049  -1.479  0.00  0.00     0.034 A 
ATOM      6  C   UNL d   1      23.175 -15.633  -1.341  0.00  0.00     0.031 A 
ATOM      7  C   UNL d   1      22.206 -16.501  -0.793  0.00  0.00     0.027 A 
ATOM      8  C   UNL d   1      22.558 -17.800  -0.398  0.00  0.00     0.074 A 
ATOM      9  C   UNL d   1      23.888 -18.202  -0.477  0.00  0.00     0.027 A 
ATOM     10  C   UNL d   1      24.848 -17.327  -1.015  0.00  0.00     0.031 A 
BRANCH   8  11
ATOM     11  S   UNL d   1      21.259 -18.915   0.099  0.00  0.00     0.241 S 
ATOM     12  O   UNL d   1      21.685 -20.254  -0.268  0.00  0.00    -0.206 OA
ATOM     13  O   UNL d   1      20.896 -18.578   1.453  0.00  0.00    -0.206 OA
BRANCH  11  14
ATOM     14  N   UNL d   1      19.905 -18.577  -0.895  0.00  0.00    -0.216 NA
ATOM     15  H   UNL d   1      20.221 -18.161  -1.771  0.00  0.00     0.139 HD
BRANCH  14  16
ATOM     16  C   UNL d   1      19.102 -19.806  -1.165  0.00  0.00     0.104 C 
BRANCH  16  17
ATOM     17  C   UNL d   1      18.356 -20.258   0.086  0.00  0.00     0.015 C 
BRANCH  17  18
ATOM     18  C   UNL d   1      19.347 -20.806   1.117  0.00  0.00     0.001 C 
BRANCH  18  19
ATOM     19  C   UNL d   1      19.184 -20.115   2.467  0.00  0.00    -0.000 C 
BRANCH  19  20
ATOM     20  C   UNL d   1      19.991 -20.831   3.547  0.00  0.00    -0.005 C 
ATOM     21  C   UNL d   1      19.309 -20.703   4.896  0.00  0.00     0.005 C 
ENDBRANCH  19  20
ENDBRANCH  18  19
ENDBRANCH  17  18
ENDBRANCH  16  17
ENDBRANCH  14  16
ENDBRANCH  11  14
ENDBRANCH   8  11
ENDBRANCH   3   5
BRANCH   1  22
ATOM     22  C   UNL d   1      27.046 -14.316  -3.814  0.00  0.00     0.185 C 
BRANCH  22  23
ATOM     23  S   UNL d   1      27.294 -14.305  -5.601  0.00  0.00    -0.081 SA
BRANCH  23  24
ATOM     24  C   UNL d   1      28.960 -14.346  -6.113  0.00  0.00     0.192 A 
ATOM     25  N   UNL d   1      29.651 -13.807  -7.197  0.00  0.00    -0.304 N 
ATOM     26  C   UNL d   1      30.985 -14.226  -7.017  0.00  0.00     0.164 A 
ATOM     27  N   UNL d   1      31.046 -14.963  -5.927  0.00  0.00    -0.128 NA
ATOM     28  N   UNL d   1      29.810 -15.018  -5.364  0.00  0.00    -0.122 NA
BRANCH  25  29
ATOM     29  C   UNL d   1      29.050 -13.083  -8.332  0.00  0.00     0.159 C 
BRANCH  29  30
ATOM     30  C   UNL d   1      29.508 -11.686  -8.610  0.00  0.00    -0.017 C 
ATOM     31  C   UNL d   1      28.884 -10.520  -8.787  0.00  0.00     0.008 C 
ENDBRANCH  29  30
ENDBRANCH  25  29
BRANCH  26  32
ATOM     32  C   UNL d   1      32.190 -13.942  -7.821  0.00  0.00     0.012 C 
ATOM     33  C   UNL d   1      32.470 -12.647  -8.276  0.00  0.00     0.015 C 
ATOM     34  C   UNL d   1      33.639 -12.392  -9.007  0.00  0.00     0.001 C 
ATOM     35  C   UNL d   1      34.609 -13.384  -9.154  0.00  0.00     0.000 C 
ATOM     36  C   UNL d   1      34.341 -14.672  -8.711  0.00  0.00     0.001 C 
ATOM     37  C   UNL d   1      33.084 -14.969  -8.175  0.00  0.00     0.015 C 
ENDBRANCH  26  32
ENDBRANCH  23  24
ENDBRANCH  22  23
ENDBRANCH   1  22
TORSDOF 14
ENDMDL
