MODEL 1
REMARK VINA RESULT:   -10.528      0.000      0.000
REMARK INTER + INTRA:         -14.667
REMARK INTER:                 -12.616
REMARK INTRA:                  -2.051
REMARK CONF_INDEPENDENT:        2.088
REMARK UNBOUND:                -2.051
REMARK  7 active torsions:
REMARK  status: ('A' for Active; 'I' for Inactive)
REMARK    1  A    between atoms: C_2  and  C_3 
REMARK    2  A    between atoms: C_3  and  N_6 
REMARK    3  A    between atoms: C_10  and  C_11 
REMARK    4  A    between atoms: C_11  and  C_12 
REMARK    5  A    between atoms: C_11  and  N_26 
REMARK    6  A    between atoms: N_29  and  C_30 
REMARK    7  A    between atoms: C_34  and  O_35 
ROOT
ATOM      1  C   UNL d   1      28.670 -15.323  -0.317  0.00  0.00     0.299 C 
ENDROOT
BRANCH   1   2
ATOM      2  C   UNL d   1      29.560 -16.277  -1.261  0.00  0.00     0.184 A 
ATOM      3  N   UNL d   1      30.335 -17.234  -0.771  0.00  0.00    -0.111 NA
ATOM      4  N   UNL d   1      30.913 -17.889  -1.832  0.00  0.00    -0.023 NA
ATOM      5  N   UNL d   1      30.512 -17.391  -2.982  0.00  0.00    -0.043 NA
ATOM      6  N   UNL d   1      29.723 -16.373  -2.665  0.00  0.00    -0.223 N 
BRANCH   6   7
ATOM      7  C   UNL d   1      28.989 -15.741  -3.776  0.00  0.00     0.051 C 
ATOM      8  C   UNL d   1      29.904 -15.954  -5.057  0.00  0.00     0.040 C 
ATOM      9  C   UNL d   1      29.059 -14.424  -3.259  0.00  0.00     0.040 C 
BRANCH   7  10
ATOM     10  C   UNL d   1      27.330 -15.569  -3.673  0.00  0.00     0.028 C 
ATOM     11  C   UNL d   1      26.402 -14.590  -4.563  0.00  0.00     0.007 C 
ENDBRANCH   7  10
ENDBRANCH   6   7
ENDBRANCH   1   2
BRANCH   1  12
ATOM     12  C   UNL d   1      27.213 -15.784  -0.313  0.00  0.00     0.049 C 
ATOM     13  C   UNL d   1      26.726 -16.940   0.214  0.00  0.00     0.029 C 
ATOM     14  C   UNL d   1      25.329 -17.347  -0.065  0.00  0.00    -0.006 C 
ATOM     15  C   UNL d   1      24.698 -18.577   0.240  0.00  0.00     0.053 C 
ATOM     16  C   UNL d   1      24.573 -16.431  -0.810  0.00  0.00     0.048 C 
ATOM     17  C   UNL d   1      23.358 -18.689  -0.154  0.00  0.00     0.105 C 
ATOM     18  C   UNL d   1      22.633 -17.548  -0.322  0.00  0.00     0.107 C 
ATOM     19  O   UNL d   1      22.591 -19.693  -0.742  0.00  0.00    -0.323 OA
ATOM     20  C   UNL d   1      23.222 -16.501  -0.918  0.00  0.00     0.070 C 
ATOM     21  O   UNL d   1      21.309 -17.733  -0.521  0.00  0.00    -0.323 OA
ATOM     22  C   UNL d   1      21.520 -18.860  -1.355  0.00  0.00     0.352 C 
ATOM     23  N   UNL d   1      25.118 -15.318  -1.409  0.00  0.00    -0.322 N 
ATOM     24  C   UNL d   1      26.279 -14.860  -1.003  0.00  0.00     0.254 C 
ATOM     25  H   UNL d   1      24.499 -14.692  -1.917  0.00  0.00     0.169 HD
ATOM     26  O   UNL d   1      26.589 -13.672  -1.341  0.00  0.00    -0.268 OA
ENDBRANCH   1  12
BRANCH   1  27
ATOM     27  N   UNL d   1      29.065 -14.851   1.354  0.00  0.00    -0.052 N 
ATOM     28  C   UNL d   1      30.033 -13.456   1.243  0.00  0.00     0.256 C 
ATOM     29  C   UNL d   1      29.847 -12.302   2.373  0.00  0.00     0.150 C 
ATOM     30  N   UNL d   1      28.440 -12.043   2.937  0.00  0.00    -0.378 N 
ATOM     31  C   UNL d   1      27.889 -13.476   3.605  0.00  0.00     0.150 C 
ATOM     32  C   UNL d   1      27.780 -14.825   2.561  0.00  0.00     0.256 C 
ATOM     33  H   UNL d   1      29.699 -15.592   1.684  0.00  0.00     0.281 HD
BRANCH  30  34
ATOM     34  C   UNL d   1      27.852 -10.682   2.982  0.00  0.00     0.032 A 
ATOM     35  C   UNL d   1      28.423  -9.413   3.492  0.00  0.00     0.029 A 
ATOM     36  C   UNL d   1      28.058  -8.030   3.271  0.00  0.00     0.005 A 
ATOM     37  C   UNL d   1      26.923  -7.788   2.577  0.00  0.00     0.037 A 
ATOM     38  C   UNL d   1      26.269  -8.920   2.077  0.00  0.00     0.070 A 
ATOM     39  C   UNL d   1      26.764 -10.304   2.207  0.00  0.00     0.066 A 
BRANCH  38  40
ATOM     40  O   UNL d   1      25.147  -8.579   1.365  0.00  0.00    -0.356 OA
ATOM     41  C   UNL d   1      25.432  -7.834   0.199  0.00  0.00     0.210 C 
ENDBRANCH  38  40
ENDBRANCH  30  34
ENDBRANCH   1  27
TORSDOF 7
ENDMDL
MODEL 2
REMARK VINA RESULT:   -10.280      0.890      1.395
REMARK INTER + INTRA:         -14.498
REMARK INTER:                 -12.368
REMARK INTRA:                  -2.130
REMARK CONF_INDEPENDENT:        2.088
REMARK UNBOUND:                -2.130
REMARK  7 active torsions:
REMARK  status: ('A' for Active; 'I' for Inactive)
REMARK    1  A    between atoms: C_2  and  C_3 
REMARK    2  A    between atoms: C_3  and  N_6 
REMARK    3  A    between atoms: C_10  and  C_11 
REMARK    4  A    between atoms: C_11  and  C_12 
REMARK    5  A    between atoms: C_11  and  N_26 
REMARK    6  A    between atoms: N_29  and  C_30 
REMARK    7  A    between atoms: C_34  and  O_35 
ROOT
ATOM      1  C   UNL d   1      28.727 -15.655  -0.564  0.00  0.00     0.299 C 
ENDROOT
BRANCH   1   2
ATOM      2  C   UNL d   1      29.566 -16.770  -1.367  0.00  0.00     0.184 A 
ATOM      3  N   UNL d   1      30.125 -17.809  -0.761  0.00  0.00    -0.111 NA
ATOM      4  N   UNL d   1      30.716 -18.588  -1.726  0.00  0.00    -0.023 NA
ATOM      5  N   UNL d   1      30.532 -18.087  -2.929  0.00  0.00    -0.043 NA
ATOM      6  N   UNL d   1      29.875 -16.951  -2.738  0.00  0.00    -0.223 N 
BRANCH   6   7
ATOM      7  C   UNL d   1      29.380 -16.268  -3.946  0.00  0.00     0.051 C 
ATOM      8  C   UNL d   1      30.025 -17.056  -5.165  0.00  0.00     0.040 C 
ATOM      9  C   UNL d   1      30.022 -15.033  -3.682  0.00  0.00     0.040 C 
BRANCH   7  10
ATOM     10  C   UNL d   1      27.950 -15.407  -3.876  0.00  0.00     0.028 C 
ATOM     11  C   UNL d   1      26.886 -15.201  -5.075  0.00  0.00     0.007 C 
ENDBRANCH   7  10
ENDBRANCH   6   7
ENDBRANCH   1   2
BRANCH   1  12
ATOM     12  C   UNL d   1      27.247 -16.034  -0.512  0.00  0.00     0.049 C 
ATOM     13  C   UNL d   1      26.708 -17.132   0.084  0.00  0.00     0.029 C 
ATOM     14  C   UNL d   1      25.287 -17.476  -0.150  0.00  0.00    -0.006 C 
ATOM     15  C   UNL d   1      24.596 -18.651   0.230  0.00  0.00     0.053 C 
ATOM     16  C   UNL d   1      24.567 -16.560  -0.931  0.00  0.00     0.048 C 
ATOM     17  C   UNL d   1      23.244 -18.710  -0.135  0.00  0.00     0.105 C 
ATOM     18  C   UNL d   1      22.579 -17.541  -0.352  0.00  0.00     0.107 C 
ATOM     19  O   UNL d   1      22.413 -19.700  -0.657  0.00  0.00    -0.323 OA
ATOM     20  C   UNL d   1      23.213 -16.561  -1.013  0.00  0.00     0.070 C 
ATOM     21  O   UNL d   1      21.244 -17.663  -0.520  0.00  0.00    -0.323 OA
ATOM     22  C   UNL d   1      21.377 -18.842  -1.295  0.00  0.00     0.352 C 
ATOM     23  N   UNL d   1      25.160 -15.511  -1.597  0.00  0.00    -0.322 N 
ATOM     24  C   UNL d   1      26.352 -15.098  -1.235  0.00  0.00     0.254 C 
ATOM     25  H   UNL d   1      24.566 -14.880  -2.128  0.00  0.00     0.169 HD
ATOM     26  O   UNL d   1      26.719 -13.948  -1.640  0.00  0.00    -0.268 OA
ENDBRANCH   1  12
BRANCH   1  27
ATOM     27  N   UNL d   1      29.144 -14.988   1.033  0.00  0.00    -0.052 N 
ATOM     28  C   UNL d   1      30.130 -13.632   0.746  0.00  0.00     0.256 C 
ATOM     29  C   UNL d   1      29.971 -12.347   1.728  0.00  0.00     0.150 C 
ATOM     30  N   UNL d   1      28.573 -11.999   2.266  0.00  0.00    -0.378 N 
ATOM     31  C   UNL d   1      28.008 -13.332   3.109  0.00  0.00     0.150 C 
ATOM     32  C   UNL d   1      27.871 -14.797   2.238  0.00  0.00     0.256 C 
ATOM     33  H   UNL d   1      29.770 -15.693   1.447  0.00  0.00     0.281 HD
BRANCH  30  34
ATOM     34  C   UNL d   1      28.004 -10.635   2.150  0.00  0.00     0.032 A 
ATOM     35  C   UNL d   1      27.192 -10.030   1.068  0.00  0.00     0.029 A 
ATOM     36  C   UNL d   1      26.343  -8.858   1.034  0.00  0.00     0.005 A 
ATOM     37  C   UNL d   1      26.343  -8.057   2.124  0.00  0.00     0.037 A 
ATOM     38  C   UNL d   1      27.112  -8.508   3.203  0.00  0.00     0.070 A 
ATOM     39  C   UNL d   1      27.844  -9.788   3.239  0.00  0.00     0.066 A 
BRANCH  38  40
ATOM     40  O   UNL d   1      27.030  -7.651   4.271  0.00  0.00    -0.356 OA
ATOM     41  C   UNL d   1      28.174  -7.679   5.098  0.00  0.00     0.210 C 
ENDBRANCH  38  40
ENDBRANCH  30  34
ENDBRANCH   1  27
TORSDOF 7
ENDMDL
MODEL 3
REMARK VINA RESULT:   -10.039      1.780      2.613
REMARK INTER + INTRA:         -14.065
REMARK INTER:                 -12.127
REMARK INTRA:                  -1.938
REMARK CONF_INDEPENDENT:        2.088
REMARK UNBOUND:                -1.938
REMARK  7 active torsions:
REMARK  status: ('A' for Active; 'I' for Inactive)
REMARK    1  A    between atoms: C_2  and  C_3 
REMARK    2  A    between atoms: C_3  and  N_6 
REMARK    3  A    between atoms: C_10  and  C_11 
REMARK    4  A    between atoms: C_11  and  C_12 
REMARK    5  A    between atoms: C_11  and  N_26 
REMARK    6  A    between atoms: N_29  and  C_30 
REMARK    7  A    between atoms: C_34  and  O_35 
ROOT
ATOM      1  C   UNL d   1      27.722 -14.290  -2.851  0.00  0.00     0.299 C 
ENDROOT
BRANCH   1   2
ATOM      2  C   UNL d   1      28.026 -14.893  -4.313  0.00  0.00     0.184 A 
ATOM      3  N   UNL d   1      27.313 -14.556  -5.379  0.00  0.00    -0.111 NA
ATOM      4  N   UNL d   1      27.856 -15.200  -6.465  0.00  0.00    -0.023 NA
ATOM      5  N   UNL d   1      28.904 -15.920  -6.125  0.00  0.00    -0.043 NA
ATOM      6  N   UNL d   1      29.003 -15.792  -4.808  0.00  0.00    -0.223 N 
BRANCH   6   7
ATOM      7  C   UNL d   1      30.211 -16.358  -4.182  0.00  0.00     0.051 C 
ATOM      8  C   UNL d   1      31.361 -15.298  -4.459  0.00  0.00     0.040 C 
ATOM      9  C   UNL d   1      30.288 -17.492  -5.029  0.00  0.00     0.040 C 
BRANCH   7  10
ATOM     10  C   UNL d   1      30.052 -17.450  -2.928  0.00  0.00     0.028 C 
ATOM     11  C   UNL d   1      30.664 -17.307  -1.438  0.00  0.00     0.007 C 
ENDBRANCH   7  10
ENDBRANCH   6   7
ENDBRANCH   1   2
BRANCH   1  12
ATOM     12  C   UNL d   1      26.560 -15.036  -2.196  0.00  0.00     0.049 C 
ATOM     13  C   UNL d   1      26.635 -16.189  -1.477  0.00  0.00     0.029 C 
ATOM     14  C   UNL d   1      25.395 -16.907  -1.104  0.00  0.00    -0.006 C 
ATOM     15  C   UNL d   1      25.268 -18.190  -0.520  0.00  0.00     0.053 C 
ATOM     16  C   UNL d   1      24.199 -16.271  -1.466  0.00  0.00     0.048 C 
ATOM     17  C   UNL d   1      23.957 -18.625  -0.282  0.00  0.00     0.105 C 
ATOM     18  C   UNL d   1      22.976 -17.690  -0.146  0.00  0.00     0.107 C 
ATOM     19  O   UNL d   1      23.282 -19.833  -0.447  0.00  0.00    -0.323 OA
ATOM     20  C   UNL d   1      22.989 -16.630  -0.968  0.00  0.00     0.070 C 
ATOM     21  O   UNL d   1      21.780 -18.167   0.261  0.00  0.00    -0.323 OA
ATOM     22  C   UNL d   1      21.886 -19.325  -0.549  0.00  0.00     0.352 C 
ATOM     23  N   UNL d   1      24.155 -15.157  -2.273  0.00  0.00    -0.322 N 
ATOM     24  C   UNL d   1      25.231 -14.421  -2.430  0.00  0.00     0.254 C 
ATOM     25  H   UNL d   1      23.249 -14.743  -2.475  0.00  0.00     0.169 HD
ATOM     26  O   UNL d   1      25.073 -13.249  -2.902  0.00  0.00    -0.268 OA
ENDBRANCH   1  12
BRANCH   1  27
ATOM     27  N   UNL d   1      28.929 -13.994  -1.576  0.00  0.00    -0.052 N 
ATOM     28  C   UNL d   1      29.152 -12.309  -1.506  0.00  0.00     0.256 C 
ATOM     29  C   UNL d   1      29.403 -11.629  -0.051  0.00  0.00     0.150 C 
ATOM     30  N   UNL d   1      28.676 -12.214   1.171  0.00  0.00    -0.378 N 
ATOM     31  C   UNL d   1      29.117 -13.824   1.301  0.00  0.00     0.150 C 
ATOM     32  C   UNL d   1      28.766 -14.833  -0.034  0.00  0.00     0.256 C 
ATOM     33  H   UNL d   1      29.806 -14.365  -1.966  0.00  0.00     0.281 HD
BRANCH  30  34
ATOM     34  C   UNL d   1      27.891 -11.364   2.099  0.00  0.00     0.032 A 
ATOM     35  C   UNL d   1      28.092 -11.090   3.541  0.00  0.00     0.029 A 
ATOM     36  C   UNL d   1      27.589 -10.044   4.407  0.00  0.00     0.005 A 
ATOM     37  C   UNL d   1      26.665  -9.200   3.893  0.00  0.00     0.037 A 
ATOM     38  C   UNL d   1      26.362  -9.390   2.540  0.00  0.00     0.070 A 
ATOM     39  C   UNL d   1      27.013 -10.381   1.662  0.00  0.00     0.066 A 
BRANCH  38  40
ATOM     40  O   UNL d   1      25.441  -8.474   2.099  0.00  0.00    -0.356 OA
ATOM     41  C   UNL d   1      25.740  -7.955   0.820  0.00  0.00     0.210 C 
ENDBRANCH  38  40
ENDBRANCH  30  34
ENDBRANCH   1  27
TORSDOF 7
ENDMDL
MODEL 4
REMARK VINA RESULT:   -10.022      2.078      3.546
REMARK INTER + INTRA:         -13.993
REMARK INTER:                 -12.110
REMARK INTRA:                  -1.883
REMARK CONF_INDEPENDENT:        2.088
REMARK UNBOUND:                -1.883
REMARK  7 active torsions:
REMARK  status: ('A' for Active; 'I' for Inactive)
REMARK    1  A    between atoms: C_2  and  C_3 
REMARK    2  A    between atoms: C_3  and  N_6 
REMARK    3  A    between atoms: C_10  and  C_11 
REMARK    4  A    between atoms: C_11  and  C_12 
REMARK    5  A    between atoms: C_11  and  N_26 
REMARK    6  A    between atoms: N_29  and  C_30 
REMARK    7  A    between atoms: C_34  and  O_35 
ROOT
ATOM      1  C   UNL d   1      28.071 -14.432  -2.903  0.00  0.00     0.299 C 
ENDROOT
BRANCH   1   2
ATOM      2  C   UNL d   1      28.171 -14.892  -4.443  0.00  0.00     0.184 A 
ATOM      3  N   UNL d   1      27.156 -14.767  -5.287  0.00  0.00    -0.111 NA
ATOM      4  N   UNL d   1      27.581 -15.200  -6.520  0.00  0.00    -0.023 NA
ATOM      5  N   UNL d   1      28.842 -15.577  -6.490  0.00  0.00    -0.043 NA
ATOM      6  N   UNL d   1      29.215 -15.447  -5.224  0.00  0.00    -0.223 N 
BRANCH   6   7
ATOM      7  C   UNL d   1      30.649 -15.635  -4.940  0.00  0.00     0.051 C 
ATOM      8  C   UNL d   1      31.206 -14.181  -4.624  0.00  0.00     0.040 C 
ATOM      9  C   UNL d   1      30.991 -16.088  -6.238  0.00  0.00     0.040 C 
BRANCH   7  10
ATOM     10  C   UNL d   1      31.194 -17.120  -4.403  0.00  0.00     0.028 C 
ATOM     11  C   UNL d   1      30.510 -18.558  -4.680  0.00  0.00     0.007 C 
ENDBRANCH   7  10
ENDBRANCH   6   7
ENDBRANCH   1   2
BRANCH   1  12
ATOM     12  C   UNL d   1      26.887 -15.114  -2.218  0.00  0.00     0.049 C 
ATOM     13  C   UNL d   1      26.916 -16.274  -1.507  0.00  0.00     0.029 C 
ATOM     14  C   UNL d   1      25.648 -16.923  -1.101  0.00  0.00    -0.006 C 
ATOM     15  C   UNL d   1      25.463 -18.200  -0.520  0.00  0.00     0.053 C 
ATOM     16  C   UNL d   1      24.480 -16.217  -1.426  0.00  0.00     0.048 C 
ATOM     17  C   UNL d   1      24.138 -18.561  -0.247  0.00  0.00     0.105 C 
ATOM     18  C   UNL d   1      23.217 -17.571  -0.077  0.00  0.00     0.107 C 
ATOM     19  O   UNL d   1      23.389 -19.727  -0.397  0.00  0.00    -0.323 OA
ATOM     20  C   UNL d   1      23.266 -16.509  -0.895  0.00  0.00     0.070 C 
ATOM     21  O   UNL d   1      22.007 -17.982   0.361  0.00  0.00    -0.323 OA
ATOM     22  C   UNL d   1      22.023 -19.139  -0.457  0.00  0.00     0.352 C 
ATOM     23  N   UNL d   1      24.477 -15.097  -2.226  0.00  0.00    -0.322 N 
ATOM     24  C   UNL d   1      25.589 -14.423  -2.411  0.00  0.00     0.254 C 
ATOM     25  H   UNL d   1      23.591 -14.630  -2.400  0.00  0.00     0.169 HD
ATOM     26  O   UNL d   1      25.485 -13.241  -2.873  0.00  0.00    -0.268 OA
ENDBRANCH   1  12
BRANCH   1  27
ATOM     27  N   UNL d   1      29.410 -14.422  -1.730  0.00  0.00    -0.052 N 
ATOM     28  C   UNL d   1      29.369 -12.904  -0.966  0.00  0.00     0.256 C 
ATOM     29  C   UNL d   1      29.746 -12.830   0.614  0.00  0.00     0.150 C 
ATOM     30  N   UNL d   1      29.336 -13.999   1.525  0.00  0.00    -0.378 N 
ATOM     31  C   UNL d   1      30.044 -15.389   0.917  0.00  0.00     0.150 C 
ATOM     32  C   UNL d   1      29.641 -15.825  -0.687  0.00  0.00     0.256 C 
ATOM     33  H   UNL d   1      30.258 -14.407  -2.313  0.00  0.00     0.281 HD
BRANCH  30  34
ATOM     34  C   UNL d   1      28.590 -13.784   2.789  0.00  0.00     0.032 A 
ATOM     35  C   UNL d   1      28.156 -14.760   3.816  0.00  0.00     0.029 A 
ATOM     36  C   UNL d   1      27.737 -14.595   5.192  0.00  0.00     0.005 A 
ATOM     37  C   UNL d   1      27.577 -13.331   5.648  0.00  0.00     0.037 A 
ATOM     38  C   UNL d   1      27.920 -12.318   4.746  0.00  0.00     0.070 A 
ATOM     39  C   UNL d   1      28.482 -12.542   3.400  0.00  0.00     0.066 A 
BRANCH  38  40
ATOM     40  O   UNL d   1      27.754 -11.074   5.301  0.00  0.00    -0.356 OA
ATOM     41  C   UNL d   1      27.419 -10.081   4.355  0.00  0.00     0.210 C 
ENDBRANCH  38  40
ENDBRANCH  30  34
ENDBRANCH   1  27
TORSDOF 7
ENDMDL
MODEL 5
REMARK VINA RESULT:    -9.930      3.206      8.601
REMARK INTER + INTRA:         -14.347
REMARK INTER:                 -12.019
REMARK INTRA:                  -2.328
REMARK CONF_INDEPENDENT:        2.088
REMARK UNBOUND:                -2.328
REMARK  7 active torsions:
REMARK  status: ('A' for Active; 'I' for Inactive)
REMARK    1  A    between atoms: C_2  and  C_3 
REMARK    2  A    between atoms: C_3  and  N_6 
REMARK    3  A    between atoms: C_10  and  C_11 
REMARK    4  A    between atoms: C_11  and  C_12 
REMARK    5  A    between atoms: C_11  and  N_26 
REMARK    6  A    between atoms: N_29  and  C_30 
REMARK    7  A    between atoms: C_34  and  O_35 
ROOT
ATOM      1  C   UNL d   1      26.816 -15.366  -0.818  0.00  0.00     0.299 C 
ENDROOT
BRANCH   1   2
ATOM      2  C   UNL d   1      26.523 -16.914  -0.484  0.00  0.00     0.184 A 
ATOM      3  N   UNL d   1      27.420 -17.692   0.106  0.00  0.00    -0.111 NA
ATOM      4  N   UNL d   1      26.844 -18.927   0.291  0.00  0.00    -0.023 NA
ATOM      5  N   UNL d   1      25.602 -18.950  -0.145  0.00  0.00    -0.043 NA
ATOM      6  N   UNL d   1      25.394 -17.750  -0.669  0.00  0.00    -0.223 N 
BRANCH   6   7
ATOM      7  C   UNL d   1      24.011 -17.442  -1.075  0.00  0.00     0.051 C 
ATOM      8  C   UNL d   1      24.063 -15.960  -1.645  0.00  0.00     0.040 C 
ATOM      9  C   UNL d   1      23.463 -17.514   0.230  0.00  0.00     0.040 C 
BRANCH   7  10
ATOM     10  C   UNL d   1      22.969 -18.691  -1.457  0.00  0.00     0.028 C 
ATOM     11  C   UNL d   1      21.442 -18.863  -0.956  0.00  0.00     0.007 C 
ENDBRANCH   7  10
ENDBRANCH   6   7
ENDBRANCH   1   2
BRANCH   1  12
ATOM     12  C   UNL d   1      27.240 -14.618   0.445  0.00  0.00     0.049 C 
ATOM     13  C   UNL d   1      27.780 -15.161   1.571  0.00  0.00     0.029 C 
ATOM     14  C   UNL d   1      27.924 -14.336   2.792  0.00  0.00    -0.006 C 
ATOM     15  C   UNL d   1      28.293 -14.754   4.093  0.00  0.00     0.053 C 
ATOM     16  C   UNL d   1      27.554 -12.990   2.656  0.00  0.00     0.048 C 
ATOM     17  C   UNL d   1      28.340 -13.748   5.067  0.00  0.00     0.105 C 
ATOM     18  C   UNL d   1      28.526 -12.460   4.662  0.00  0.00     0.107 C 
ATOM     19  O   UNL d   1      27.933 -13.652   6.397  0.00  0.00    -0.323 OA
ATOM     20  C   UNL d   1      27.878 -12.038   3.566  0.00  0.00     0.070 C 
ATOM     21  O   UNL d   1      28.744 -11.572   5.656  0.00  0.00    -0.323 OA
ATOM     22  C   UNL d   1      27.780 -12.175   6.503  0.00  0.00     0.352 C 
ATOM     23  N   UNL d   1      26.925 -12.493   1.537  0.00  0.00    -0.322 N 
ATOM     24  C   UNL d   1      26.981 -13.158   0.407  0.00  0.00     0.254 C 
ATOM     25  H   UNL d   1      26.706 -11.501   1.508  0.00  0.00     0.169 HD
ATOM     26  O   UNL d   1      26.680 -12.527  -0.657  0.00  0.00    -0.268 OA
ENDBRANCH   1  12
BRANCH   1  27
ATOM     27  N   UNL d   1      27.840 -14.763  -2.143  0.00  0.00    -0.052 N 
ATOM     28  C   UNL d   1      29.435 -15.213  -1.761  0.00  0.00     0.256 C 
ATOM     29  C   UNL d   1      30.421 -15.649  -2.978  0.00  0.00     0.150 C 
ATOM     30  N   UNL d   1      29.825 -16.415  -4.171  0.00  0.00    -0.378 N 
ATOM     31  C   UNL d   1      28.620 -15.461  -4.836  0.00  0.00     0.150 C 
ATOM     32  C   UNL d   1      27.324 -15.025  -3.809  0.00  0.00     0.256 C 
ATOM     33  H   UNL d   1      27.817 -13.739  -2.036  0.00  0.00     0.281 HD
BRANCH  30  34
ATOM     34  C   UNL d   1      30.413 -17.685  -4.661  0.00  0.00     0.032 A 
ATOM     35  C   UNL d   1      30.780 -18.914  -3.920  0.00  0.00     0.029 A 
ATOM     36  C   UNL d   1      31.034 -20.270  -4.358  0.00  0.00     0.005 A 
ATOM     37  C   UNL d   1      31.077 -20.496  -5.691  0.00  0.00     0.037 A 
ATOM     38  C   UNL d   1      30.785 -19.392  -6.499  0.00  0.00     0.070 A 
ATOM     39  C   UNL d   1      30.388 -18.062  -5.997  0.00  0.00     0.066 A 
BRANCH  38  40
ATOM     40  O   UNL d   1      30.824 -19.719  -7.831  0.00  0.00    -0.356 OA
ATOM     41  C   UNL d   1      31.668 -18.878  -8.588  0.00  0.00     0.210 C 
ENDBRANCH  38  40
ENDBRANCH  30  34
ENDBRANCH   1  27
TORSDOF 7
ENDMDL
MODEL 6
REMARK VINA RESULT:    -9.486      1.540      2.079
REMARK INTER + INTRA:         -14.338
REMARK INTER:                 -11.574
REMARK INTRA:                  -2.764
REMARK CONF_INDEPENDENT:        2.088
REMARK UNBOUND:                -2.764
REMARK  7 active torsions:
REMARK  status: ('A' for Active; 'I' for Inactive)
REMARK    1  A    between atoms: C_2  and  C_3 
REMARK    2  A    between atoms: C_3  and  N_6 
REMARK    3  A    between atoms: C_10  and  C_11 
REMARK    4  A    between atoms: C_11  and  C_12 
REMARK    5  A    between atoms: C_11  and  N_26 
REMARK    6  A    between atoms: N_29  and  C_30 
REMARK    7  A    between atoms: C_34  and  O_35 
ROOT
ATOM      1  C   UNL d   1      28.370 -14.724  -0.518  0.00  0.00     0.299 C 
ENDROOT
BRANCH   1   2
ATOM      2  C   UNL d   1      29.292 -14.794  -1.836  0.00  0.00     0.184 A 
ATOM      3  N   UNL d   1      30.541 -15.241  -1.804  0.00  0.00    -0.111 NA
ATOM      4  N   UNL d   1      31.026 -15.219  -3.089  0.00  0.00    -0.023 NA
ATOM      5  N   UNL d   1      30.117 -14.791  -3.940  0.00  0.00    -0.043 NA
ATOM      6  N   UNL d   1      29.064 -14.478  -3.198  0.00  0.00    -0.223 N 
BRANCH   6   7
ATOM      7  C   UNL d   1      27.828 -14.137  -3.924  0.00  0.00     0.051 C 
ATOM      8  C   UNL d   1      27.531 -15.390  -4.855  0.00  0.00     0.040 C 
ATOM      9  C   UNL d   1      28.379 -13.040  -4.632  0.00  0.00     0.040 C 
BRANCH   7  10
ATOM     10  C   UNL d   1      26.765 -13.029  -3.265  0.00  0.00     0.028 C 
ATOM     11  C   UNL d   1      25.158 -13.013  -3.432  0.00  0.00     0.007 C 
ENDBRANCH   7  10
ENDBRANCH   6   7
ENDBRANCH   1   2
BRANCH   1  12
ATOM     12  C   UNL d   1      27.202 -15.703  -0.630  0.00  0.00     0.049 C 
ATOM     13  C   UNL d   1      25.968 -15.443  -1.141  0.00  0.00     0.029 C 
ATOM     14  C   UNL d   1      24.876 -16.429  -0.971  0.00  0.00    -0.006 C 
ATOM     15  C   UNL d   1      23.501 -16.274  -1.269  0.00  0.00     0.053 C 
ATOM     16  C   UNL d   1      25.241 -17.629  -0.343  0.00  0.00     0.048 C 
ATOM     17  C   UNL d   1      22.688 -17.381  -0.994  0.00  0.00     0.105 C 
ATOM     18  C   UNL d   1      23.264 -18.615  -0.949  0.00  0.00     0.107 C 
ATOM     19  O   UNL d   1      21.425 -17.552  -0.428  0.00  0.00    -0.323 OA
ATOM     20  C   UNL d   1      24.460 -18.738  -0.355  0.00  0.00     0.070 C 
ATOM     21  O   UNL d   1      22.399 -19.649  -0.862  0.00  0.00    -0.323 OA
ATOM     22  C   UNL d   1      21.554 -18.959   0.042  0.00  0.00     0.352 C 
ATOM     23  N   UNL d   1      26.469 -17.825   0.246  0.00  0.00    -0.322 N 
ATOM     24  C   UNL d   1      27.479 -17.050  -0.075  0.00  0.00     0.254 C 
ATOM     25  H   UNL d   1      26.665 -18.731   0.665  0.00  0.00     0.169 HD
ATOM     26  O   UNL d   1      28.647 -17.457   0.230  0.00  0.00    -0.268 OA
ENDBRANCH   1  12
BRANCH   1  27
ATOM     27  N   UNL d   1      28.950 -14.803   1.164  0.00  0.00    -0.052 N 
ATOM     28  C   UNL d   1      30.040 -13.513   1.358  0.00  0.00     0.256 C 
ATOM     29  C   UNL d   1      30.068 -12.740   2.788  0.00  0.00     0.150 C 
ATOM     30  N   UNL d   1      28.746 -12.562   3.554  0.00  0.00    -0.378 N 
ATOM     31  C   UNL d   1      28.111 -14.086   3.833  0.00  0.00     0.150 C 
ATOM     32  C   UNL d   1      27.779 -15.049   2.460  0.00  0.00     0.256 C 
ATOM     33  H   UNL d   1      29.530 -15.653   1.192  0.00  0.00     0.281 HD
BRANCH  30  34
ATOM     34  C   UNL d   1      28.304 -11.239   4.058  0.00  0.00     0.032 A 
ATOM     35  C   UNL d   1      28.865 -10.395   5.139  0.00  0.00     0.029 A 
ATOM     36  C   UNL d   1      28.704  -8.991   5.453  0.00  0.00     0.005 A 
ATOM     37  C   UNL d   1      27.793  -8.293   4.738  0.00  0.00     0.037 A 
ATOM     38  C   UNL d   1      27.164  -9.002   3.708  0.00  0.00     0.070 A 
ATOM     39  C   UNL d   1      27.471 -10.395   3.335  0.00  0.00     0.066 A 
BRANCH  38  40
ATOM     40  O   UNL d   1      26.280  -8.209   3.020  0.00  0.00    -0.356 OA
ATOM     41  C   UNL d   1      26.453  -8.266   1.620  0.00  0.00     0.210 C 
ENDBRANCH  38  40
ENDBRANCH  30  34
ENDBRANCH   1  27
TORSDOF 7
ENDMDL
MODEL 7
REMARK VINA RESULT:    -9.119      3.836      8.411
REMARK INTER + INTRA:         -13.940
REMARK INTER:                 -11.207
REMARK INTRA:                  -2.733
REMARK CONF_INDEPENDENT:        2.088
REMARK UNBOUND:                -2.733
REMARK  7 active torsions:
REMARK  status: ('A' for Active; 'I' for Inactive)
REMARK    1  A    between atoms: C_2  and  C_3 
REMARK    2  A    between atoms: C_3  and  N_6 
REMARK    3  A    between atoms: C_10  and  C_11 
REMARK    4  A    between atoms: C_11  and  C_12 
REMARK    5  A    between atoms: C_11  and  N_26 
REMARK    6  A    between atoms: N_29  and  C_30 
REMARK    7  A    between atoms: C_34  and  O_35 
ROOT
ATOM      1  C   UNL d   1      28.991 -13.219   2.442  0.00  0.00     0.299 C 
ENDROOT
BRANCH   1   2
ATOM      2  C   UNL d   1      27.992 -12.026   2.029  0.00  0.00     0.184 A 
ATOM      3  N   UNL d   1      27.358 -11.288   2.931  0.00  0.00    -0.111 NA
ATOM      4  N   UNL d   1      26.632 -10.335   2.257  0.00  0.00    -0.023 NA
ATOM      5  N   UNL d   1      26.801 -10.432   0.955  0.00  0.00    -0.043 NA
ATOM      6  N   UNL d   1      27.587 -11.486   0.783  0.00  0.00    -0.223 N 
BRANCH   6   7
ATOM      7  C   UNL d   1      28.085 -11.716  -0.585  0.00  0.00     0.051 C 
ATOM      8  C   UNL d   1      29.641 -11.995  -0.422  0.00  0.00     0.040 C 
ATOM      9  C   UNL d   1      27.804 -10.410  -1.058  0.00  0.00     0.040 C 
BRANCH   7  10
ATOM     10  C   UNL d   1      27.030 -12.247  -1.766  0.00  0.00     0.028 C 
ATOM     11  C   UNL d   1      26.753 -11.551  -3.199  0.00  0.00     0.007 C 
ENDBRANCH   7  10
ENDBRANCH   6   7
ENDBRANCH   1   2
BRANCH   1  12
ATOM     12  C   UNL d   1      28.989 -13.417   3.957  0.00  0.00     0.049 C 
ATOM     13  C   UNL d   1      28.149 -12.831   4.854  0.00  0.00     0.029 C 
ATOM     14  C   UNL d   1      28.422 -12.946   6.305  0.00  0.00    -0.006 C 
ATOM     15  C   UNL d   1      27.780 -12.276   7.373  0.00  0.00     0.053 C 
ATOM     16  C   UNL d   1      29.519 -13.749   6.649  0.00  0.00     0.048 C 
ATOM     17  C   UNL d   1      28.256 -12.575   8.656  0.00  0.00     0.105 C 
ATOM     18  C   UNL d   1      28.891 -13.765   8.852  0.00  0.00     0.107 C 
ATOM     19  O   UNL d   1      28.538 -11.825   9.796  0.00  0.00    -0.323 OA
ATOM     20  C   UNL d   1      29.745 -14.193   7.911  0.00  0.00     0.070 C 
ATOM     21  O   UNL d   1      29.159 -14.067  10.142  0.00  0.00    -0.323 OA
ATOM     22  C   UNL d   1      29.518 -12.732  10.454  0.00  0.00     0.352 C 
ATOM     23  N   UNL d   1      30.404 -14.250   5.721  0.00  0.00    -0.322 N 
ATOM     24  C   UNL d   1      30.056 -14.317   4.457  0.00  0.00     0.254 C 
ATOM     25  H   UNL d   1      31.164 -14.841   6.049  0.00  0.00     0.169 HD
ATOM     26  O   UNL d   1      30.750 -15.070   3.700  0.00  0.00    -0.268 OA
ENDBRANCH   1  12
BRANCH   1  27
ATOM     27  N   UNL d   1      29.033 -14.841   1.710  0.00  0.00    -0.052 N 
ATOM     28  C   UNL d   1      27.413 -15.307   1.479  0.00  0.00     0.256 C 
ATOM     29  C   UNL d   1      27.046 -16.172   0.152  0.00  0.00     0.150 C 
ATOM     30  N   UNL d   1      27.804 -15.877  -1.153  0.00  0.00    -0.378 N 
ATOM     31  C   UNL d   1      29.436 -16.106  -0.855  0.00  0.00     0.150 C 
ATOM     32  C   UNL d   1      30.140 -15.146   0.373  0.00  0.00     0.256 C 
ATOM     33  H   UNL d   1      29.382 -15.450   2.463  0.00  0.00     0.281 HD
BRANCH  30  34
ATOM     34  C   UNL d   1      27.096 -15.619  -2.430  0.00  0.00     0.032 A 
ATOM     35  C   UNL d   1      25.760 -15.027  -2.677  0.00  0.00     0.029 A 
ATOM     36  C   UNL d   1      25.161 -14.450  -3.861  0.00  0.00     0.005 A 
ATOM     37  C   UNL d   1      25.851 -14.548  -5.020  0.00  0.00     0.037 A 
ATOM     38  C   UNL d   1      27.119 -15.131  -4.918  0.00  0.00     0.070 A 
ATOM     39  C   UNL d   1      27.745 -15.572  -3.657  0.00  0.00     0.066 A 
BRANCH  38  40
ATOM     40  O   UNL d   1      27.756 -15.163  -6.133  0.00  0.00    -0.356 OA
ATOM     41  C   UNL d   1      29.025 -14.543  -6.114  0.00  0.00     0.210 C 
ENDBRANCH  38  40
ENDBRANCH  30  34
ENDBRANCH   1  27
TORSDOF 7
ENDMDL
MODEL 8
REMARK VINA RESULT:    -8.934      2.698      3.401
REMARK INTER + INTRA:         -13.920
REMARK INTER:                 -11.022
REMARK INTRA:                  -2.898
REMARK CONF_INDEPENDENT:        2.088
REMARK UNBOUND:                -2.898
REMARK  7 active torsions:
REMARK  status: ('A' for Active; 'I' for Inactive)
REMARK    1  A    between atoms: C_2  and  C_3 
REMARK    2  A    between atoms: C_3  and  N_6 
REMARK    3  A    between atoms: C_10  and  C_11 
REMARK    4  A    between atoms: C_11  and  C_12 
REMARK    5  A    between atoms: C_11  and  N_26 
REMARK    6  A    between atoms: N_29  and  C_30 
REMARK    7  A    between atoms: C_34  and  O_35 
ROOT
ATOM      1  C   UNL d   1      28.032 -14.294   0.284  0.00  0.00     0.299 C 
ENDROOT
BRANCH   1   2
ATOM      2  C   UNL d   1      28.823 -13.840  -1.043  0.00  0.00     0.184 A 
ATOM      3  N   UNL d   1      29.747 -12.889  -1.027  0.00  0.00    -0.111 NA
ATOM      4  N   UNL d   1      30.259 -12.780  -2.298  0.00  0.00    -0.023 NA
ATOM      5  N   UNL d   1      29.703 -13.648  -3.117  0.00  0.00    -0.043 NA
ATOM      6  N   UNL d   1      28.788 -14.276  -2.391  0.00  0.00    -0.223 N 
BRANCH   6   7
ATOM      7  C   UNL d   1      28.133 -15.436  -3.022  0.00  0.00     0.051 C 
ATOM      8  C   UNL d   1      28.957 -16.701  -2.528  0.00  0.00     0.040 C 
ATOM      9  C   UNL d   1      28.439 -15.062  -4.354  0.00  0.00     0.040 C 
BRANCH   7  10
ATOM     10  C   UNL d   1      26.531 -15.326  -3.482  0.00  0.00     0.028 C 
ATOM     11  C   UNL d   1      25.682 -13.970  -3.715  0.00  0.00     0.007 C 
ENDBRANCH   7  10
ENDBRANCH   6   7
ENDBRANCH   1   2
BRANCH   1  12
ATOM     12  C   UNL d   1      26.983 -15.351  -0.056  0.00  0.00     0.049 C 
ATOM     13  C   UNL d   1      25.729 -15.129  -0.537  0.00  0.00     0.029 C 
ATOM     14  C   UNL d   1      24.754 -16.243  -0.598  0.00  0.00    -0.006 C 
ATOM     15  C   UNL d   1      23.372 -16.181  -0.896  0.00  0.00     0.053 C 
ATOM     16  C   UNL d   1      25.250 -17.498  -0.216  0.00  0.00     0.048 C 
ATOM     17  C   UNL d   1      22.688 -17.404  -0.872  0.00  0.00     0.105 C 
ATOM     18  C   UNL d   1      23.399 -18.550  -1.062  0.00  0.00     0.107 C 
ATOM     19  O   UNL d   1      21.450 -17.824  -0.387  0.00  0.00    -0.323 OA
ATOM     20  C   UNL d   1      24.599 -18.660  -0.473  0.00  0.00     0.070 C 
ATOM     21  O   UNL d   1      22.656 -19.669  -1.209  0.00  0.00    -0.323 OA
ATOM     22  C   UNL d   1      21.734 -19.274  -0.207  0.00  0.00     0.352 C 
ATOM     23  N   UNL d   1      26.490 -17.674   0.354  0.00  0.00    -0.322 N 
ATOM     24  C   UNL d   1      27.408 -16.745   0.223  0.00  0.00     0.254 C 
ATOM     25  H   UNL d   1      26.784 -18.619   0.586  0.00  0.00     0.169 HD
ATOM     26  O   UNL d   1      28.612 -17.075   0.471  0.00  0.00    -0.268 OA
ENDBRANCH   1  12
BRANCH   1  27
ATOM     27  N   UNL d   1      28.779 -14.784   1.824  0.00  0.00    -0.052 N 
ATOM     28  C   UNL d   1      30.244 -13.928   1.942  0.00  0.00     0.256 C 
ATOM     29  C   UNL d   1      30.714 -13.411   3.410  0.00  0.00     0.150 C 
ATOM     30  N   UNL d   1      29.638 -12.949   4.408  0.00  0.00    -0.378 N 
ATOM     31  C   UNL d   1      28.589 -14.231   4.653  0.00  0.00     0.150 C 
ATOM     32  C   UNL d   1      27.780 -14.843   3.276  0.00  0.00     0.256 C 
ATOM     33  H   UNL d   1      29.052 -15.764   1.673  0.00  0.00     0.281 HD
BRANCH  30  34
ATOM     34  C   UNL d   1      29.720 -11.640   5.100  0.00  0.00     0.032 A 
ATOM     35  C   UNL d   1      29.774 -10.268   4.541  0.00  0.00     0.029 A 
ATOM     36  C   UNL d   1      29.522  -8.972   5.133  0.00  0.00     0.005 A 
ATOM     37  C   UNL d   1      29.311  -8.926   6.469  0.00  0.00     0.037 A 
ATOM     38  C   UNL d   1      29.279 -10.167   7.116  0.00  0.00     0.070 A 
ATOM     39  C   UNL d   1      29.397 -11.473   6.440  0.00  0.00     0.066 A 
BRANCH  38  40
ATOM     40  O   UNL d   1      29.032 -10.026   8.458  0.00  0.00    -0.356 OA
ATOM     41  C   UNL d   1      30.041  -9.311   9.139  0.00  0.00     0.210 C 
ENDBRANCH  38  40
ENDBRANCH  30  34
ENDBRANCH   1  27
TORSDOF 7
ENDMDL
MODEL 9
REMARK VINA RESULT:    -8.734      3.727      8.964
REMARK INTER + INTRA:         -13.940
REMARK INTER:                 -10.822
REMARK INTRA:                  -3.118
REMARK CONF_INDEPENDENT:        2.088
REMARK UNBOUND:                -3.118
REMARK  7 active torsions:
REMARK  status: ('A' for Active; 'I' for Inactive)
REMARK    1  A    between atoms: C_2  and  C_3 
REMARK    2  A    between atoms: C_3  and  N_6 
REMARK    3  A    between atoms: C_10  and  C_11 
REMARK    4  A    between atoms: C_11  and  C_12 
REMARK    5  A    between atoms: C_11  and  N_26 
REMARK    6  A    between atoms: N_29  and  C_30 
REMARK    7  A    between atoms: C_34  and  O_35 
ROOT
ATOM      1  C   UNL d   1      29.135 -13.250   2.428  0.00  0.00     0.299 C 
ENDROOT
BRANCH   1   2
ATOM      2  C   UNL d   1      28.244 -11.984   1.986  0.00  0.00     0.184 A 
ATOM      3  N   UNL d   1      27.272 -12.081   1.089  0.00  0.00    -0.111 NA
ATOM      4  N   UNL d   1      26.680 -10.846   0.978  0.00  0.00    -0.023 NA
ATOM      5  N   UNL d   1      27.233  -9.972   1.792  0.00  0.00    -0.043 NA
ATOM      6  N   UNL d   1      28.223 -10.625   2.385  0.00  0.00    -0.223 N 
BRANCH   6   7
ATOM      7  C   UNL d   1      28.903  -9.924   3.490  0.00  0.00     0.051 C 
ATOM      8  C   UNL d   1      27.768  -9.639   4.564  0.00  0.00     0.040 C 
ATOM      9  C   UNL d   1      29.251  -8.777   2.735  0.00  0.00     0.040 C 
BRANCH   7  10
ATOM     10  C   UNL d   1      30.545 -10.135   3.711  0.00  0.00     0.028 C 
ATOM     11  C   UNL d   1      31.259 -11.076   4.814  0.00  0.00     0.007 C 
ENDBRANCH   7  10
ENDBRANCH   6   7
ENDBRANCH   1   2
BRANCH   1  12
ATOM     12  C   UNL d   1      29.076 -13.443   3.943  0.00  0.00     0.049 C 
ATOM     13  C   UNL d   1      28.221 -12.832   4.808  0.00  0.00     0.029 C 
ATOM     14  C   UNL d   1      28.440 -12.951   6.268  0.00  0.00    -0.006 C 
ATOM     15  C   UNL d   1      27.780 -12.260   7.312  0.00  0.00     0.053 C 
ATOM     16  C   UNL d   1      29.503 -13.781   6.652  0.00  0.00     0.048 C 
ATOM     17  C   UNL d   1      28.203 -12.568   8.612  0.00  0.00     0.105 C 
ATOM     18  C   UNL d   1      28.798 -13.773   8.832  0.00  0.00     0.107 C 
ATOM     19  O   UNL d   1      28.466 -11.822   9.759  0.00  0.00    -0.323 OA
ATOM     20  C   UNL d   1      29.673 -14.227   7.922  0.00  0.00     0.070 C 
ATOM     21  O   UNL d   1      29.013 -14.079  10.130  0.00  0.00    -0.323 OA
ATOM     22  C   UNL d   1      29.397 -12.753  10.452  0.00  0.00     0.352 C 
ATOM     23  N   UNL d   1      30.406 -14.309   5.756  0.00  0.00    -0.322 N 
ATOM     24  C   UNL d   1      30.101 -14.370   4.481  0.00  0.00     0.254 C 
ATOM     25  H   UNL d   1      31.138 -14.918   6.111  0.00  0.00     0.169 HD
ATOM     26  O   UNL d   1      30.800 -15.144   3.750  0.00  0.00    -0.268 OA
ENDBRANCH   1  12
BRANCH   1  27
ATOM     27  N   UNL d   1      29.073 -14.873   1.698  0.00  0.00    -0.052 N 
ATOM     28  C   UNL d   1      27.425 -15.265   1.539  0.00  0.00     0.256 C 
ATOM     29  C   UNL d   1      26.962 -16.113   0.232  0.00  0.00     0.150 C 
ATOM     30  N   UNL d   1      27.674 -15.853  -1.106  0.00  0.00    -0.378 N 
ATOM     31  C   UNL d   1      29.306 -16.154  -0.880  0.00  0.00     0.150 C 
ATOM     32  C   UNL d   1      30.106 -15.228   0.314  0.00  0.00     0.256 C 
ATOM     33  H   UNL d   1      29.427 -15.497   2.436  0.00  0.00     0.281 HD
BRANCH  30  34
ATOM     34  C   UNL d   1      26.923 -15.563  -2.352  0.00  0.00     0.032 A 
ATOM     35  C   UNL d   1      25.619 -14.887  -2.543  0.00  0.00     0.029 A 
ATOM     36  C   UNL d   1      25.002 -14.286  -3.706  0.00  0.00     0.005 A 
ATOM     37  C   UNL d   1      25.627 -14.443  -4.895  0.00  0.00     0.037 A 
ATOM     38  C   UNL d   1      26.857 -15.108  -4.845  0.00  0.00     0.070 A 
ATOM     39  C   UNL d   1      27.513 -15.574  -3.609  0.00  0.00     0.066 A 
BRANCH  38  40
ATOM     40  O   UNL d   1      27.431 -15.196  -6.088  0.00  0.00    -0.356 OA
ATOM     41  C   UNL d   1      28.842 -15.163  -6.055  0.00  0.00     0.210 C 
ENDBRANCH  38  40
ENDBRANCH  30  34
ENDBRANCH   1  27
TORSDOF 7
ENDMDL
