MODEL 1
REMARK VINA RESULT:    -6.605      0.000      0.000
REMARK INTER + INTRA:         -17.048
REMARK INTER:                 -10.483
REMARK INTRA:                  -6.565
REMARK CONF_INDEPENDENT:        3.878
REMARK UNBOUND:                -6.565
REMARK  13 active torsions:
REMARK  status: ('A' for Active; 'I' for Inactive)
REMARK    1  A    between atoms: O_2  and  C_3 
REMARK    2  A    between atoms: C_3  and  C_4 
REMARK    3  A    between atoms: C_4  and  O_5 
REMARK    4  A    between atoms: O_5  and  C_6 
REMARK    5  A    between atoms: C_12  and  C_13 
REMARK       I    between atoms: C_13  and  N_15 
REMARK    6  A    between atoms: N_15  and  C_16 
REMARK    7  A    between atoms: C_16  and  N_18 
REMARK    8  A    between atoms: N_18  and  C_19 
REMARK    9  A    between atoms: C_24  and  C_25 
REMARK       I    between atoms: C_25  and  N_27 
REMARK   10  A    between atoms: N_27  and  C_28 
REMARK   11  A    between atoms: C_28  and  C_29 
REMARK   12  A    between atoms: C_29  and  C_30 
REMARK   13  A    between atoms: C_30  and  O_31 
ROOT
ATOM      1  C   UNL d   1      26.352 -12.355  -2.877  0.00  0.00     0.179 C 
ATOM      2  S   UNL d   1      27.226 -11.021  -2.332  0.00  0.00    -0.040 SA
ENDROOT
BRANCH   1   3
ATOM      3  N   UNL d   1      26.215 -13.575  -2.158  0.00  0.00    -0.299 N 
ATOM      4  C   UNL d   1      25.249 -14.589  -2.396  0.00  0.00     0.260 C 
ATOM      5  O   UNL d   1      24.369 -14.506  -3.254  0.00  0.00    -0.267 OA
ATOM      6  H   UNL d   1      26.749 -13.691  -1.304  0.00  0.00     0.171 HD
BRANCH   4   7
ATOM      7  C   UNL d   1      25.129 -15.798  -1.518  0.00  0.00     0.067 A 
ATOM      8  C   UNL d   1      23.907 -16.517  -1.574  0.00  0.00     0.039 A 
ATOM      9  C   UNL d   1      23.731 -17.704  -0.867  0.00  0.00     0.012 A 
ATOM     10  C   UNL d   1      24.789 -18.234  -0.147  0.00  0.00     0.022 A 
ATOM     11 BR   UNL d   1      22.054 -18.578  -0.869  0.00  0.00    -0.051 Br
ATOM     12  C   UNL d   1      25.986 -17.514  -0.050  0.00  0.00     0.039 A 
ATOM     13  C   UNL d   1      26.145 -16.277  -0.698  0.00  0.00     0.084 A 
BRANCH  13  14
ATOM     14  O   UNL d   1      27.233 -15.481  -0.476  0.00  0.00    -0.348 OA
BRANCH  14  15
ATOM     15  C   UNL d   1      27.820 -15.696   0.807  0.00  0.00     0.201 C 
BRANCH  15  16
ATOM     16  C   UNL d   1      27.888 -14.347   1.504  0.00  0.00     0.193 C 
BRANCH  16  17
ATOM     17  O   UNL d   1      27.307 -13.354   0.671  0.00  0.00    -0.394 OA
ATOM     18  C   UNL d   1      26.655 -12.357   1.446  0.00  0.00     0.201 C 
ENDBRANCH  16  17
ENDBRANCH  15  16
ENDBRANCH  14  15
ENDBRANCH  13  14
ENDBRANCH   4   7
ENDBRANCH   1   3
BRANCH   1  19
ATOM     19  N   UNL d   1      25.752 -12.403  -4.171  0.00  0.00    -0.332 N 
ATOM     20  H   UNL d   1      24.774 -12.147  -4.248  0.00  0.00     0.168 HD
BRANCH  19  21
ATOM     21  C   UNL d   1      26.513 -12.232  -5.393  0.00  0.00     0.050 A 
ATOM     22  C   UNL d   1      26.363 -11.035  -6.134  0.00  0.00     0.030 A 
ATOM     23  C   UNL d   1      27.095 -10.810  -7.315  0.00  0.00     0.002 A 
ATOM     24  C   UNL d   1      28.017 -11.752  -7.753  0.00  0.00     0.001 A 
ATOM     25  C   UNL d   1      28.163 -12.946  -7.044  0.00  0.00     0.019 A 
ATOM     26  C   UNL d   1      27.405 -13.220  -5.881  0.00  0.00     0.058 A 
BRANCH  26  27
ATOM     27  C   UNL d   1      27.614 -14.579  -5.265  0.00  0.00     0.253 C 
ATOM     28  O   UNL d   1      27.079 -15.575  -5.770  0.00  0.00    -0.268 OA
ATOM     29  N   UNL d   1      28.401 -14.679  -4.137  0.00  0.00    -0.357 N 
ATOM     30  H   UNL d   1      28.820 -13.826  -3.797  0.00  0.00     0.162 HD
BRANCH  29  31
ATOM     31  C   UNL d   1      28.987 -15.949  -3.735  0.00  0.00     0.125 C 
BRANCH  31  32
ATOM     32  C   UNL d   1      29.466 -15.946  -2.298  0.00  0.00     0.046 C 
BRANCH  32  33
ATOM     33  C   UNL d   1      29.984 -14.615  -1.802  0.00  0.00     0.165 C 
BRANCH  33  34
ATOM     34  O   UNL d   1      28.897 -13.710  -1.655  0.00  0.00    -0.401 OA
ATOM     35  H   UNL d   1      28.305 -14.115  -1.001  0.00  0.00     0.209 HD
ENDBRANCH  33  34
ENDBRANCH  32  33
ENDBRANCH  31  32
ENDBRANCH  29  31
ENDBRANCH  26  27
ENDBRANCH  19  21
ENDBRANCH   1  19
TORSDOF 13
ENDMDL
MODEL 2
REMARK VINA RESULT:    -6.426      0.907      1.654
REMARK INTER + INTRA:         -15.316
REMARK INTER:                 -10.304
REMARK INTRA:                  -5.012
REMARK CONF_INDEPENDENT:        3.878
REMARK UNBOUND:                -5.012
REMARK  13 active torsions:
REMARK  status: ('A' for Active; 'I' for Inactive)
REMARK    1  A    between atoms: O_2  and  C_3 
REMARK    2  A    between atoms: C_3  and  C_4 
REMARK    3  A    between atoms: C_4  and  O_5 
REMARK    4  A    between atoms: O_5  and  C_6 
REMARK    5  A    between atoms: C_12  and  C_13 
REMARK       I    between atoms: C_13  and  N_15 
REMARK    6  A    between atoms: N_15  and  C_16 
REMARK    7  A    between atoms: C_16  and  N_18 
REMARK    8  A    between atoms: N_18  and  C_19 
REMARK    9  A    between atoms: C_24  and  C_25 
REMARK       I    between atoms: C_25  and  N_27 
REMARK   10  A    between atoms: N_27  and  C_28 
REMARK   11  A    between atoms: C_28  and  C_29 
REMARK   12  A    between atoms: C_29  and  C_30 
REMARK   13  A    between atoms: C_30  and  O_31 
ROOT
ATOM      1  C   UNL d   1      26.207 -12.311  -2.877  0.00  0.00     0.179 C 
ATOM      2  S   UNL d   1      26.917 -10.906  -2.275  0.00  0.00    -0.040 SA
ENDROOT
BRANCH   1   3
ATOM      3  N   UNL d   1      26.161 -13.551  -2.180  0.00  0.00    -0.299 N 
ATOM      4  C   UNL d   1      25.239 -14.609  -2.404  0.00  0.00     0.260 C 
ATOM      5  O   UNL d   1      24.324 -14.555  -3.226  0.00  0.00    -0.267 OA
ATOM      6  H   UNL d   1      26.732 -13.656  -1.349  0.00  0.00     0.171 HD
BRANCH   4   7
ATOM      7  C   UNL d   1      25.216 -15.839  -1.548  0.00  0.00     0.067 A 
ATOM      8  C   UNL d   1      23.967 -16.496  -1.396  0.00  0.00     0.039 A 
ATOM      9  C   UNL d   1      23.858 -17.696  -0.699  0.00  0.00     0.012 A 
ATOM     10  C   UNL d   1      24.999 -18.301  -0.197  0.00  0.00     0.022 A 
ATOM     11 BR   UNL d   1      22.164 -18.486  -0.415  0.00  0.00    -0.051 Br
ATOM     12  C   UNL d   1      26.231 -17.644  -0.304  0.00  0.00     0.039 A 
ATOM     13  C   UNL d   1      26.336 -16.395  -0.940  0.00  0.00     0.084 A 
BRANCH  13  14
ATOM     14  O   UNL d   1      27.488 -15.661  -0.902  0.00  0.00    -0.348 OA
BRANCH  14  15
ATOM     15  C   UNL d   1      27.674 -14.993   0.345  0.00  0.00     0.201 C 
BRANCH  15  16
ATOM     16  C   UNL d   1      28.530 -13.765   0.076  0.00  0.00     0.193 C 
BRANCH  16  17
ATOM     17  O   UNL d   1      28.797 -13.670  -1.316  0.00  0.00    -0.394 OA
ATOM     18  C   UNL d   1      29.761 -12.660  -1.581  0.00  0.00     0.201 C 
ENDBRANCH  16  17
ENDBRANCH  15  16
ENDBRANCH  14  15
ENDBRANCH  13  14
ENDBRANCH   4   7
ENDBRANCH   1   3
BRANCH   1  19
ATOM     19  N   UNL d   1      25.675 -12.397  -4.198  0.00  0.00    -0.332 N 
ATOM     20  H   UNL d   1      24.695 -12.171  -4.328  0.00  0.00     0.168 HD
BRANCH  19  21
ATOM     21  C   UNL d   1      26.491 -12.224  -5.384  0.00  0.00     0.050 A 
ATOM     22  C   UNL d   1      26.354 -11.038  -6.144  0.00  0.00     0.030 A 
ATOM     23  C   UNL d   1      27.139 -10.811  -7.291  0.00  0.00     0.002 A 
ATOM     24  C   UNL d   1      28.100 -11.739  -7.672  0.00  0.00     0.001 A 
ATOM     25  C   UNL d   1      28.233 -12.923  -6.944  0.00  0.00     0.019 A 
ATOM     26  C   UNL d   1      27.425 -13.199  -5.816  0.00  0.00     0.058 A 
BRANCH  26  27
ATOM     27  C   UNL d   1      27.629 -14.547  -5.176  0.00  0.00     0.253 C 
ATOM     28  O   UNL d   1      27.275 -15.574  -5.770  0.00  0.00    -0.268 OA
ATOM     29  N   UNL d   1      28.207 -14.603  -3.924  0.00  0.00    -0.357 N 
ATOM     30  H   UNL d   1      28.489 -13.725  -3.514  0.00  0.00     0.162 HD
BRANCH  29  31
ATOM     31  C   UNL d   1      28.813 -15.829  -3.427  0.00  0.00     0.125 C 
BRANCH  31  32
ATOM     32  C   UNL d   1      30.123 -16.157  -4.114  0.00  0.00     0.046 C 
BRANCH  32  33
ATOM     33  C   UNL d   1      30.028 -17.212  -5.193  0.00  0.00     0.165 C 
BRANCH  33  34
ATOM     34  O   UNL d   1      30.039 -16.585  -6.469  0.00  0.00    -0.401 OA
ATOM     35  H   UNL d   1      29.159 -16.190  -6.574  0.00  0.00     0.209 HD
ENDBRANCH  33  34
ENDBRANCH  32  33
ENDBRANCH  31  32
ENDBRANCH  29  31
ENDBRANCH  26  27
ENDBRANCH  19  21
ENDBRANCH   1  19
TORSDOF 13
ENDMDL
MODEL 3
REMARK VINA RESULT:    -5.581      1.785      3.378
REMARK INTER + INTRA:         -14.792
REMARK INTER:                  -9.459
REMARK INTRA:                  -5.333
REMARK CONF_INDEPENDENT:        3.878
REMARK UNBOUND:                -5.333
REMARK  13 active torsions:
REMARK  status: ('A' for Active; 'I' for Inactive)
REMARK    1  A    between atoms: O_2  and  C_3 
REMARK    2  A    between atoms: C_3  and  C_4 
REMARK    3  A    between atoms: C_4  and  O_5 
REMARK    4  A    between atoms: O_5  and  C_6 
REMARK    5  A    between atoms: C_12  and  C_13 
REMARK       I    between atoms: C_13  and  N_15 
REMARK    6  A    between atoms: N_15  and  C_16 
REMARK    7  A    between atoms: C_16  and  N_18 
REMARK    8  A    between atoms: N_18  and  C_19 
REMARK    9  A    between atoms: C_24  and  C_25 
REMARK       I    between atoms: C_25  and  N_27 
REMARK   10  A    between atoms: N_27  and  C_28 
REMARK   11  A    between atoms: C_28  and  C_29 
REMARK   12  A    between atoms: C_29  and  C_30 
REMARK   13  A    between atoms: C_30  and  O_31 
ROOT
ATOM      1  C   UNL d   1      26.778 -14.289  -4.694  0.00  0.00     0.179 C 
ATOM      2  S   UNL d   1      27.993 -14.418  -5.856  0.00  0.00    -0.040 SA
ENDROOT
BRANCH   1   3
ATOM      3  N   UNL d   1      26.575 -15.220  -3.637  0.00  0.00    -0.299 N 
ATOM      4  C   UNL d   1      25.359 -15.447  -2.938  0.00  0.00     0.260 C 
ATOM      5  O   UNL d   1      24.322 -14.818  -3.149  0.00  0.00    -0.267 OA
ATOM      6  H   UNL d   1      27.387 -15.670  -3.231  0.00  0.00     0.171 HD
BRANCH   4   7
ATOM      7  C   UNL d   1      25.274 -16.387  -1.774  0.00  0.00     0.067 A 
ATOM      8  C   UNL d   1      24.014 -16.992  -1.524  0.00  0.00     0.039 A 
ATOM      9  C   UNL d   1      23.854 -17.948  -0.524  0.00  0.00     0.012 A 
ATOM     10  C   UNL d   1      24.957 -18.370   0.200  0.00  0.00     0.022 A 
ATOM     11 BR   UNL d   1      22.141 -18.649  -0.139  0.00  0.00    -0.051 Br
ATOM     12  C   UNL d   1      26.196 -17.752  -0.008  0.00  0.00     0.039 A 
ATOM     13  C   UNL d   1      26.348 -16.733  -0.962  0.00  0.00     0.084 A 
BRANCH  13  14
ATOM     14  O   UNL d   1      27.499 -16.001  -1.058  0.00  0.00    -0.348 OA
BRANCH  14  15
ATOM     15  C   UNL d   1      28.616 -16.649  -0.451  0.00  0.00     0.201 C 
BRANCH  15  16
ATOM     16  C   UNL d   1      29.700 -16.766  -1.510  0.00  0.00     0.193 C 
BRANCH  16  17
ATOM     17  O   UNL d   1      29.212 -16.264  -2.745  0.00  0.00    -0.394 OA
ATOM     18  C   UNL d   1      29.846 -16.908  -3.842  0.00  0.00     0.201 C 
ENDBRANCH  16  17
ENDBRANCH  15  16
ENDBRANCH  14  15
ENDBRANCH  13  14
ENDBRANCH   4   7
ENDBRANCH   1   3
BRANCH   1  19
ATOM     19  N   UNL d   1      25.778 -13.272  -4.739  0.00  0.00    -0.332 N 
ATOM     20  H   UNL d   1      24.863 -13.493  -4.359  0.00  0.00     0.168 HD
BRANCH  19  21
ATOM     21  C   UNL d   1      26.098 -11.858  -4.744  0.00  0.00     0.050 A 
ATOM     22  C   UNL d   1      25.906 -11.115  -5.933  0.00  0.00     0.030 A 
ATOM     23  C   UNL d   1      26.181  -9.735  -5.985  0.00  0.00     0.002 A 
ATOM     24  C   UNL d   1      26.609  -9.067  -4.845  0.00  0.00     0.001 A 
ATOM     25  C   UNL d   1      26.822  -9.790  -3.669  0.00  0.00     0.019 A 
ATOM     26  C   UNL d   1      26.601 -11.186  -3.602  0.00  0.00     0.058 A 
BRANCH  26  27
ATOM     27  C   UNL d   1      26.945 -11.843  -2.291  0.00  0.00     0.253 C 
ATOM     28  O   UNL d   1      26.857 -13.073  -2.174  0.00  0.00    -0.268 OA
ATOM     29  N   UNL d   1      27.349 -11.048  -1.239  0.00  0.00    -0.357 N 
ATOM     30  H   UNL d   1      27.417 -10.057  -1.418  0.00  0.00     0.162 HD
BRANCH  29  31
ATOM     31  C   UNL d   1      28.083 -11.603  -0.112  0.00  0.00     0.125 C 
BRANCH  31  32
ATOM     32  C   UNL d   1      27.173 -12.105   0.991  0.00  0.00     0.046 C 
BRANCH  32  33
ATOM     33  C   UNL d   1      27.228 -13.597   1.231  0.00  0.00     0.165 C 
BRANCH  33  34
ATOM     34  O   UNL d   1      26.171 -14.229   0.520  0.00  0.00    -0.401 OA
ATOM     35  H   UNL d   1      26.448 -14.234  -0.410  0.00  0.00     0.209 HD
ENDBRANCH  33  34
ENDBRANCH  32  33
ENDBRANCH  31  32
ENDBRANCH  29  31
ENDBRANCH  26  27
ENDBRANCH  19  21
ENDBRANCH   1  19
TORSDOF 13
ENDMDL
MODEL 4
REMARK VINA RESULT:    -5.025      1.756      3.088
REMARK INTER + INTRA:         -15.902
REMARK INTER:                  -8.903
REMARK INTRA:                  -6.999
REMARK CONF_INDEPENDENT:        3.878
REMARK UNBOUND:                -6.999
REMARK  13 active torsions:
REMARK  status: ('A' for Active; 'I' for Inactive)
REMARK    1  A    between atoms: O_2  and  C_3 
REMARK    2  A    between atoms: C_3  and  C_4 
REMARK    3  A    between atoms: C_4  and  O_5 
REMARK    4  A    between atoms: O_5  and  C_6 
REMARK    5  A    between atoms: C_12  and  C_13 
REMARK       I    between atoms: C_13  and  N_15 
REMARK    6  A    between atoms: N_15  and  C_16 
REMARK    7  A    between atoms: C_16  and  N_18 
REMARK    8  A    between atoms: N_18  and  C_19 
REMARK    9  A    between atoms: C_24  and  C_25 
REMARK       I    between atoms: C_25  and  N_27 
REMARK   10  A    between atoms: N_27  and  C_28 
REMARK   11  A    between atoms: C_28  and  C_29 
REMARK   12  A    between atoms: C_29  and  C_30 
REMARK   13  A    between atoms: C_30  and  O_31 
ROOT
ATOM      1  C   UNL d   1      27.919 -14.846  -4.697  0.00  0.00     0.179 C 
ATOM      2  S   UNL d   1      29.501 -14.861  -5.280  0.00  0.00    -0.040 SA
ENDROOT
BRANCH   1   3
ATOM      3  N   UNL d   1      27.476 -15.574  -3.557  0.00  0.00    -0.299 N 
ATOM      4  C   UNL d   1      26.135 -15.930  -3.256  0.00  0.00     0.260 C 
ATOM      5  O   UNL d   1      25.169 -15.606  -3.948  0.00  0.00    -0.267 OA
ATOM      6  H   UNL d   1      28.137 -15.740  -2.807  0.00  0.00     0.171 HD
BRANCH   4   7
ATOM      7  C   UNL d   1      25.761 -16.619  -1.978  0.00  0.00     0.067 A 
ATOM      8  C   UNL d   1      24.411 -17.033  -1.839  0.00  0.00     0.039 A 
ATOM      9  C   UNL d   1      23.986 -17.762  -0.731  0.00  0.00     0.012 A 
ATOM     10  C   UNL d   1      24.908 -18.150   0.226  0.00  0.00     0.022 A 
ATOM     11 BR   UNL d   1      22.158 -18.198  -0.519  0.00  0.00    -0.051 Br
ATOM     12  C   UNL d   1      26.234 -17.714   0.122  0.00  0.00     0.039 A 
ATOM     13  C   UNL d   1      26.654 -16.914  -0.954  0.00  0.00     0.084 A 
BRANCH  13  14
ATOM     14  O   UNL d   1      27.892 -16.336  -0.983  0.00  0.00    -0.348 OA
BRANCH  14  15
ATOM     15  C   UNL d   1      28.853 -17.053  -0.209  0.00  0.00     0.201 C 
BRANCH  15  16
ATOM     16  C   UNL d   1      30.109 -17.180  -1.056  0.00  0.00     0.193 C 
BRANCH  16  17
ATOM     17  O   UNL d   1      29.880 -16.603  -2.333  0.00  0.00    -0.394 OA
ATOM     18  C   UNL d   1      30.317 -17.471  -3.370  0.00  0.00     0.201 C 
ENDBRANCH  16  17
ENDBRANCH  15  16
ENDBRANCH  14  15
ENDBRANCH  13  14
ENDBRANCH   4   7
ENDBRANCH   1   3
BRANCH   1  19
ATOM     19  N   UNL d   1      26.859 -14.170  -5.371  0.00  0.00    -0.332 N 
ATOM     20  H   UNL d   1      26.004 -14.687  -5.543  0.00  0.00     0.168 HD
BRANCH  19  21
ATOM     21  C   UNL d   1      26.687 -12.731  -5.315  0.00  0.00     0.050 A 
ATOM     22  C   UNL d   1      27.033 -11.954  -6.447  0.00  0.00     0.030 A 
ATOM     23  C   UNL d   1      26.865 -10.556  -6.452  0.00  0.00     0.002 A 
ATOM     24  C   UNL d   1      26.311  -9.918  -5.350  0.00  0.00     0.001 A 
ATOM     25  C   UNL d   1      25.983 -10.667  -4.219  0.00  0.00     0.019 A 
ATOM     26  C   UNL d   1      26.187 -12.067  -4.168  0.00  0.00     0.058 A 
BRANCH  26  27
ATOM     27  C   UNL d   1      25.857 -12.731  -2.856  0.00  0.00     0.253 C 
ATOM     28  O   UNL d   1      24.780 -13.326  -2.718  0.00  0.00    -0.268 OA
ATOM     29  N   UNL d   1      26.774 -12.654  -1.828  0.00  0.00    -0.357 N 
ATOM     30  H   UNL d   1      27.638 -12.171  -2.025  0.00  0.00     0.162 HD
BRANCH  29  31
ATOM     31  C   UNL d   1      26.737 -13.588  -0.713  0.00  0.00     0.125 C 
BRANCH  31  32
ATOM     32  C   UNL d   1      28.008 -13.566   0.113  0.00  0.00     0.046 C 
BRANCH  32  33
ATOM     33  C   UNL d   1      29.287 -13.481  -0.689  0.00  0.00     0.165 C 
BRANCH  33  34
ATOM     34  O   UNL d   1      29.032 -13.885  -2.029  0.00  0.00    -0.401 OA
ATOM     35  H   UNL d   1      29.049 -14.855  -2.017  0.00  0.00     0.209 HD
ENDBRANCH  33  34
ENDBRANCH  32  33
ENDBRANCH  31  32
ENDBRANCH  29  31
ENDBRANCH  26  27
ENDBRANCH  19  21
ENDBRANCH   1  19
TORSDOF 13
ENDMDL
MODEL 5
REMARK VINA RESULT:    -4.770      2.366      3.555
REMARK INTER + INTRA:         -15.200
REMARK INTER:                  -8.648
REMARK INTRA:                  -6.552
REMARK CONF_INDEPENDENT:        3.878
REMARK UNBOUND:                -6.552
REMARK  13 active torsions:
REMARK  status: ('A' for Active; 'I' for Inactive)
REMARK    1  A    between atoms: O_2  and  C_3 
REMARK    2  A    between atoms: C_3  and  C_4 
REMARK    3  A    between atoms: C_4  and  O_5 
REMARK    4  A    between atoms: O_5  and  C_6 
REMARK    5  A    between atoms: C_12  and  C_13 
REMARK       I    between atoms: C_13  and  N_15 
REMARK    6  A    between atoms: N_15  and  C_16 
REMARK    7  A    between atoms: C_16  and  N_18 
REMARK    8  A    between atoms: N_18  and  C_19 
REMARK    9  A    between atoms: C_24  and  C_25 
REMARK       I    between atoms: C_25  and  N_27 
REMARK   10  A    between atoms: N_27  and  C_28 
REMARK   11  A    between atoms: C_28  and  C_29 
REMARK   12  A    between atoms: C_29  and  C_30 
REMARK   13  A    between atoms: C_30  and  O_31 
ROOT
ATOM      1  C   UNL d   1      27.570 -14.671  -4.126  0.00  0.00     0.179 C 
ATOM      2  S   UNL d   1      26.596 -13.622  -5.017  0.00  0.00    -0.040 SA
ENDROOT
BRANCH   1   3
ATOM      3  N   UNL d   1      27.086 -15.569  -3.134  0.00  0.00    -0.299 N 
ATOM      4  C   UNL d   1      25.731 -15.750  -2.752  0.00  0.00     0.260 C 
ATOM      5  O   UNL d   1      24.795 -15.102  -3.223  0.00  0.00    -0.267 OA
ATOM      6  H   UNL d   1      27.761 -16.027  -2.532  0.00  0.00     0.171 HD
BRANCH   4   7
ATOM      7  C   UNL d   1      25.335 -16.656  -1.626  0.00  0.00     0.067 A 
ATOM      8  C   UNL d   1      24.012 -17.170  -1.646  0.00  0.00     0.039 A 
ATOM      9  C   UNL d   1      23.577 -18.092  -0.697  0.00  0.00     0.012 A 
ATOM     10  C   UNL d   1      24.468 -18.571   0.248  0.00  0.00     0.022 A 
ATOM     11 BR   UNL d   1      21.776 -18.669  -0.681  0.00  0.00    -0.051 Br
ATOM     12  C   UNL d   1      25.763 -18.043   0.304  0.00  0.00     0.039 A 
ATOM     13  C   UNL d   1      26.186 -17.056  -0.602  0.00  0.00     0.084 A 
BRANCH  13  14
ATOM     14  O   UNL d   1      27.379 -16.406  -0.456  0.00  0.00    -0.348 OA
BRANCH  14  15
ATOM     15  C   UNL d   1      27.258 -15.194   0.288  0.00  0.00     0.201 C 
BRANCH  15  16
ATOM     16  C   UNL d   1      27.890 -14.089  -0.543  0.00  0.00     0.193 C 
BRANCH  16  17
ATOM     17  O   UNL d   1      28.923 -14.636  -1.351  0.00  0.00    -0.394 OA
ATOM     18  C   UNL d   1      30.096 -13.836  -1.286  0.00  0.00     0.201 C 
ENDBRANCH  16  17
ENDBRANCH  15  16
ENDBRANCH  14  15
ENDBRANCH  13  14
ENDBRANCH   4   7
ENDBRANCH   1   3
BRANCH   1  19
ATOM     19  N   UNL d   1      28.993 -14.668  -4.228  0.00  0.00    -0.332 N 
ATOM     20  H   UNL d   1      29.521 -14.298  -3.445  0.00  0.00     0.168 HD
BRANCH  19  21
ATOM     21  C   UNL d   1      29.721 -15.619  -5.045  0.00  0.00     0.050 A 
ATOM     22  C   UNL d   1      29.835 -15.383  -6.436  0.00  0.00     0.030 A 
ATOM     23  C   UNL d   1      30.550 -16.263  -7.270  0.00  0.00     0.002 A 
ATOM     24  C   UNL d   1      31.198 -17.365  -6.727  0.00  0.00     0.001 A 
ATOM     25  C   UNL d   1      31.079 -17.622  -5.360  0.00  0.00     0.019 A 
ATOM     26  C   UNL d   1      30.327 -16.782  -4.506  0.00  0.00     0.058 A 
BRANCH  26  27
ATOM     27  C   UNL d   1      30.226 -17.225  -3.070  0.00  0.00     0.253 C 
ATOM     28  O   UNL d   1      29.160 -17.087  -2.454  0.00  0.00    -0.268 OA
ATOM     29  N   UNL d   1      31.339 -17.775  -2.469  0.00  0.00    -0.357 N 
ATOM     30  H   UNL d   1      32.163 -17.875  -3.042  0.00  0.00     0.162 HD
BRANCH  29  31
ATOM     31  C   UNL d   1      31.222 -18.592  -1.270  0.00  0.00     0.125 C 
BRANCH  31  32
ATOM     32  C   UNL d   1      31.816 -17.925  -0.046  0.00  0.00     0.046 C 
BRANCH  32  33
ATOM     33  C   UNL d   1      31.199 -16.593   0.316  0.00  0.00     0.165 C 
BRANCH  33  34
ATOM     34  O   UNL d   1      29.783 -16.689   0.225  0.00  0.00    -0.401 OA
ATOM     35  H   UNL d   1      29.540 -16.215  -0.586  0.00  0.00     0.209 HD
ENDBRANCH  33  34
ENDBRANCH  32  33
ENDBRANCH  31  32
ENDBRANCH  29  31
ENDBRANCH  26  27
ENDBRANCH  19  21
ENDBRANCH   1  19
TORSDOF 13
ENDMDL
MODEL 6
REMARK VINA RESULT:    -4.762      2.345      3.074
REMARK INTER + INTRA:         -15.455
REMARK INTER:                  -8.640
REMARK INTRA:                  -6.814
REMARK CONF_INDEPENDENT:        3.878
REMARK UNBOUND:                -6.814
REMARK  13 active torsions:
REMARK  status: ('A' for Active; 'I' for Inactive)
REMARK    1  A    between atoms: O_2  and  C_3 
REMARK    2  A    between atoms: C_3  and  C_4 
REMARK    3  A    between atoms: C_4  and  O_5 
REMARK    4  A    between atoms: O_5  and  C_6 
REMARK    5  A    between atoms: C_12  and  C_13 
REMARK       I    between atoms: C_13  and  N_15 
REMARK    6  A    between atoms: N_15  and  C_16 
REMARK    7  A    between atoms: C_16  and  N_18 
REMARK    8  A    between atoms: N_18  and  C_19 
REMARK    9  A    between atoms: C_24  and  C_25 
REMARK       I    between atoms: C_25  and  N_27 
REMARK   10  A    between atoms: N_27  and  C_28 
REMARK   11  A    between atoms: C_28  and  C_29 
REMARK   12  A    between atoms: C_29  and  C_30 
REMARK   13  A    between atoms: C_30  and  O_31 
ROOT
ATOM      1  C   UNL d   1      27.879 -14.724  -4.391  0.00  0.00     0.179 C 
ATOM      2  S   UNL d   1      26.880 -13.798  -5.384  0.00  0.00    -0.040 SA
ENDROOT
BRANCH   1   3
ATOM      3  N   UNL d   1      27.411 -15.585  -3.359  0.00  0.00    -0.299 N 
ATOM      4  C   UNL d   1      26.064 -15.739  -2.939  0.00  0.00     0.260 C 
ATOM      5  O   UNL d   1      25.123 -15.098  -3.409  0.00  0.00    -0.267 OA
ATOM      6  H   UNL d   1      28.096 -16.030  -2.758  0.00  0.00     0.171 HD
BRANCH   4   7
ATOM      7  C   UNL d   1      25.686 -16.605  -1.775  0.00  0.00     0.067 A 
ATOM      8  C   UNL d   1      24.327 -17.001  -1.679  0.00  0.00     0.039 A 
ATOM      9  C   UNL d   1      23.894 -17.878  -0.688  0.00  0.00     0.012 A 
ATOM     10  C   UNL d   1      24.817 -18.432   0.184  0.00  0.00     0.022 A 
ATOM     11 BR   UNL d   1      22.058 -18.295  -0.515  0.00  0.00    -0.051 Br
ATOM     12  C   UNL d   1      26.153 -18.020   0.126  0.00  0.00     0.039 A 
ATOM     13  C   UNL d   1      26.583 -17.076  -0.822  0.00  0.00     0.084 A 
BRANCH  13  14
ATOM     14  O   UNL d   1      27.836 -16.533  -0.782  0.00  0.00    -0.348 OA
BRANCH  14  15
ATOM     15  C   UNL d   1      27.941 -15.456   0.149  0.00  0.00     0.201 C 
BRANCH  15  16
ATOM     16  C   UNL d   1      28.564 -14.281  -0.588  0.00  0.00     0.193 C 
BRANCH  16  17
ATOM     17  O   UNL d   1      29.394 -14.765  -1.634  0.00  0.00    -0.394 OA
ATOM     18  C   UNL d   1      30.615 -14.040  -1.691  0.00  0.00     0.201 C 
ENDBRANCH  16  17
ENDBRANCH  15  16
ENDBRANCH  14  15
ENDBRANCH  13  14
ENDBRANCH   4   7
ENDBRANCH   1   3
BRANCH   1  19
ATOM     19  N   UNL d   1      29.303 -14.640  -4.441  0.00  0.00    -0.332 N 
ATOM     20  H   UNL d   1      29.832 -15.186  -3.770  0.00  0.00     0.168 HD
BRANCH  19  21
ATOM     21  C   UNL d   1      30.026 -14.321  -5.657  0.00  0.00     0.050 A 
ATOM     22  C   UNL d   1      30.168 -12.965  -6.036  0.00  0.00     0.030 A 
ATOM     23  C   UNL d   1      30.879 -12.601  -7.195  0.00  0.00     0.002 A 
ATOM     24  C   UNL d   1      31.496 -13.576  -7.968  0.00  0.00     0.001 A 
ATOM     25  C   UNL d   1      31.349 -14.920  -7.618  0.00  0.00     0.019 A 
ATOM     26  C   UNL d   1      30.598 -15.318  -6.486  0.00  0.00     0.058 A 
BRANCH  26  27
ATOM     27  C   UNL d   1      30.464 -16.803  -6.276  0.00  0.00     0.253 C 
ATOM     28  O   UNL d   1      30.627 -17.580  -7.226  0.00  0.00    -0.268 OA
ATOM     29  N   UNL d   1      30.152 -17.266  -5.014  0.00  0.00    -0.357 N 
ATOM     30  H   UNL d   1      30.056 -16.573  -4.287  0.00  0.00     0.162 HD
BRANCH  29  31
ATOM     31  C   UNL d   1      30.411 -18.645  -4.631  0.00  0.00     0.125 C 
BRANCH  31  32
ATOM     32  C   UNL d   1      31.222 -18.758  -3.355  0.00  0.00     0.046 C 
BRANCH  32  33
ATOM     33  C   UNL d   1      30.641 -18.028  -2.166  0.00  0.00     0.165 C 
BRANCH  33  34
ATOM     34  O   UNL d   1      29.722 -17.042  -2.619  0.00  0.00    -0.401 OA
ATOM     35  H   UNL d   1      29.342 -16.650  -1.816  0.00  0.00     0.209 HD
ENDBRANCH  33  34
ENDBRANCH  32  33
ENDBRANCH  31  32
ENDBRANCH  29  31
ENDBRANCH  26  27
ENDBRANCH  19  21
ENDBRANCH   1  19
TORSDOF 13
ENDMDL
MODEL 7
REMARK VINA RESULT:    -4.459      2.053      2.627
REMARK INTER + INTRA:         -15.012
REMARK INTER:                  -8.337
REMARK INTRA:                  -6.676
REMARK CONF_INDEPENDENT:        3.878
REMARK UNBOUND:                -6.676
REMARK  13 active torsions:
REMARK  status: ('A' for Active; 'I' for Inactive)
REMARK    1  A    between atoms: O_2  and  C_3 
REMARK    2  A    between atoms: C_3  and  C_4 
REMARK    3  A    between atoms: C_4  and  O_5 
REMARK    4  A    between atoms: O_5  and  C_6 
REMARK    5  A    between atoms: C_12  and  C_13 
REMARK       I    between atoms: C_13  and  N_15 
REMARK    6  A    between atoms: N_15  and  C_16 
REMARK    7  A    between atoms: C_16  and  N_18 
REMARK    8  A    between atoms: N_18  and  C_19 
REMARK    9  A    between atoms: C_24  and  C_25 
REMARK       I    between atoms: C_25  and  N_27 
REMARK   10  A    between atoms: N_27  and  C_28 
REMARK   11  A    between atoms: C_28  and  C_29 
REMARK   12  A    between atoms: C_29  and  C_30 
REMARK   13  A    between atoms: C_30  and  O_31 
ROOT
ATOM      1  C   UNL d   1      27.193 -14.699  -5.006  0.00  0.00     0.179 C 
ATOM      2  S   UNL d   1      28.334 -15.079  -6.187  0.00  0.00    -0.040 SA
ENDROOT
BRANCH   1   3
ATOM      3  N   UNL d   1      26.899 -15.517  -3.879  0.00  0.00    -0.299 N 
ATOM      4  C   UNL d   1      25.671 -15.559  -3.167  0.00  0.00     0.260 C 
ATOM      5  O   UNL d   1      24.704 -14.842  -3.428  0.00  0.00    -0.267 OA
ATOM      6  H   UNL d   1      27.663 -16.016  -3.437  0.00  0.00     0.171 HD
BRANCH   4   7
ATOM      7  C   UNL d   1      25.495 -16.389  -1.932  0.00  0.00     0.067 A 
ATOM      8  C   UNL d   1      24.183 -16.848  -1.645  0.00  0.00     0.039 A 
ATOM      9  C   UNL d   1      23.931 -17.701  -0.573  0.00  0.00     0.012 A 
ATOM     10  C   UNL d   1      24.987 -18.168   0.192  0.00  0.00     0.022 A 
ATOM     11 BR   UNL d   1      22.158 -18.202  -0.148  0.00  0.00    -0.051 Br
ATOM     12  C   UNL d   1      26.280 -17.691  -0.055  0.00  0.00     0.039 A 
ATOM     13  C   UNL d   1      26.530 -16.770  -1.086  0.00  0.00     0.084 A 
BRANCH  13  14
ATOM     14  O   UNL d   1      27.747 -16.163  -1.231  0.00  0.00    -0.348 OA
BRANCH  14  15
ATOM     15  C   UNL d   1      28.383 -15.901   0.019  0.00  0.00     0.201 C 
BRANCH  15  16
ATOM     16  C   UNL d   1      28.982 -14.506  -0.063  0.00  0.00     0.193 C 
BRANCH  16  17
ATOM     17  O   UNL d   1      28.513 -13.858  -1.237  0.00  0.00    -0.394 OA
ATOM     18  C   UNL d   1      27.251 -13.244  -1.010  0.00  0.00     0.201 C 
ENDBRANCH  16  17
ENDBRANCH  15  16
ENDBRANCH  14  15
ENDBRANCH  13  14
ENDBRANCH   4   7
ENDBRANCH   1   3
BRANCH   1  19
ATOM     19  N   UNL d   1      26.345 -13.555  -5.098  0.00  0.00    -0.332 N 
ATOM     20  H   UNL d   1      25.365 -13.710  -5.309  0.00  0.00     0.168 HD
BRANCH  19  21
ATOM     21  C   UNL d   1      26.617 -12.320  -4.389  0.00  0.00     0.050 A 
ATOM     22  C   UNL d   1      25.533 -11.579  -3.860  0.00  0.00     0.030 A 
ATOM     23  C   UNL d   1      25.744 -10.385  -3.145  0.00  0.00     0.002 A 
ATOM     24  C   UNL d   1      27.036  -9.935  -2.908  0.00  0.00     0.001 A 
ATOM     25  C   UNL d   1      28.115 -10.644  -3.439  0.00  0.00     0.019 A 
ATOM     26  C   UNL d   1      27.930 -11.820  -4.203  0.00  0.00     0.058 A 
BRANCH  26  27
ATOM     27  C   UNL d   1      29.180 -12.436  -4.776  0.00  0.00     0.253 C 
ATOM     28  O   UNL d   1      29.625 -12.038  -5.861  0.00  0.00    -0.268 OA
ATOM     29  N   UNL d   1      29.803 -13.444  -4.069  0.00  0.00    -0.357 N 
ATOM     30  H   UNL d   1      29.393 -13.698  -3.182  0.00  0.00     0.162 HD
BRANCH  29  31
ATOM     31  C   UNL d   1      31.194 -13.792  -4.317  0.00  0.00     0.125 C 
BRANCH  31  32
ATOM     32  C   UNL d   1      31.423 -15.289  -4.376  0.00  0.00     0.046 C 
BRANCH  32  33
ATOM     33  C   UNL d   1      30.857 -16.065  -3.209  0.00  0.00     0.165 C 
BRANCH  33  34
ATOM     34  O   UNL d   1      29.449 -15.879  -3.155  0.00  0.00    -0.401 OA
ATOM     35  H   UNL d   1      29.264 -15.534  -2.267  0.00  0.00     0.209 HD
ENDBRANCH  33  34
ENDBRANCH  32  33
ENDBRANCH  31  32
ENDBRANCH  29  31
ENDBRANCH  26  27
ENDBRANCH  19  21
ENDBRANCH   1  19
TORSDOF 13
ENDMDL
MODEL 8
REMARK VINA RESULT:    -4.175      1.897      3.316
REMARK INTER + INTRA:         -15.450
REMARK INTER:                  -8.053
REMARK INTRA:                  -7.398
REMARK CONF_INDEPENDENT:        3.878
REMARK UNBOUND:                -7.398
REMARK  13 active torsions:
REMARK  status: ('A' for Active; 'I' for Inactive)
REMARK    1  A    between atoms: O_2  and  C_3 
REMARK    2  A    between atoms: C_3  and  C_4 
REMARK    3  A    between atoms: C_4  and  O_5 
REMARK    4  A    between atoms: O_5  and  C_6 
REMARK    5  A    between atoms: C_12  and  C_13 
REMARK       I    between atoms: C_13  and  N_15 
REMARK    6  A    between atoms: N_15  and  C_16 
REMARK    7  A    between atoms: C_16  and  N_18 
REMARK    8  A    between atoms: N_18  and  C_19 
REMARK    9  A    between atoms: C_24  and  C_25 
REMARK       I    between atoms: C_25  and  N_27 
REMARK   10  A    between atoms: N_27  and  C_28 
REMARK   11  A    between atoms: C_28  and  C_29 
REMARK   12  A    between atoms: C_29  and  C_30 
REMARK   13  A    between atoms: C_30  and  O_31 
ROOT
ATOM      1  C   UNL d   1      26.754 -12.674  -3.497  0.00  0.00     0.179 C 
ATOM      2  S   UNL d   1      25.909 -11.224  -3.334  0.00  0.00    -0.040 SA
ENDROOT
BRANCH   1   3
ATOM      3  N   UNL d   1      26.582 -13.804  -2.648  0.00  0.00    -0.299 N 
ATOM      4  C   UNL d   1      25.624 -14.839  -2.809  0.00  0.00     0.260 C 
ATOM      5  O   UNL d   1      24.781 -14.857  -3.707  0.00  0.00    -0.267 OA
ATOM      6  H   UNL d   1      27.079 -13.820  -1.764  0.00  0.00     0.171 HD
BRANCH   4   7
ATOM      7  C   UNL d   1      25.462 -15.939  -1.804  0.00  0.00     0.067 A 
ATOM      8  C   UNL d   1      24.161 -16.481  -1.644  0.00  0.00     0.039 A 
ATOM      9  C   UNL d   1      23.925 -17.567  -0.804  0.00  0.00     0.012 A 
ATOM     10  C   UNL d   1      24.990 -18.176  -0.160  0.00  0.00     0.022 A 
ATOM     11 BR   UNL d   1      22.163 -18.193  -0.523  0.00  0.00    -0.051 Br
ATOM     12  C   UNL d   1      26.272 -17.626  -0.277  0.00  0.00     0.039 A 
ATOM     13  C   UNL d   1      26.504 -16.485  -1.062  0.00  0.00     0.084 A 
BRANCH  13  14
ATOM     14  O   UNL d   1      27.706 -15.833  -1.050  0.00  0.00    -0.348 OA
BRANCH  14  15
ATOM     15  C   UNL d   1      28.811 -16.713  -1.253  0.00  0.00     0.201 C 
BRANCH  15  16
ATOM     16  C   UNL d   1      29.785 -16.485  -0.109  0.00  0.00     0.193 C 
BRANCH  16  17
ATOM     17  O   UNL d   1      29.573 -15.194   0.444  0.00  0.00    -0.394 OA
ATOM     18  C   UNL d   1      30.643 -14.825   1.303  0.00  0.00     0.201 C 
ENDBRANCH  16  17
ENDBRANCH  15  16
ENDBRANCH  14  15
ENDBRANCH  13  14
ENDBRANCH   4   7
ENDBRANCH   1   3
BRANCH   1  19
ATOM     19  N   UNL d   1      27.798 -12.851  -4.452  0.00  0.00    -0.332 N 
ATOM     20  H   UNL d   1      28.185 -12.020  -4.888  0.00  0.00     0.168 HD
BRANCH  19  21
ATOM     21  C   UNL d   1      28.697 -13.988  -4.429  0.00  0.00     0.050 A 
ATOM     22  C   UNL d   1      28.482 -15.051  -5.338  0.00  0.00     0.030 A 
ATOM     23  C   UNL d   1      29.338 -16.168  -5.371  0.00  0.00     0.002 A 
ATOM     24  C   UNL d   1      30.444 -16.223  -4.532  0.00  0.00     0.001 A 
ATOM     25  C   UNL d   1      30.658 -15.191  -3.616  0.00  0.00     0.019 A 
ATOM     26  C   UNL d   1      29.786 -14.080  -3.528  0.00  0.00     0.058 A 
BRANCH  26  27
ATOM     27  C   UNL d   1      30.100 -13.084  -2.443  0.00  0.00     0.253 C 
ATOM     28  O   UNL d   1      30.929 -12.187  -2.648  0.00  0.00    -0.268 OA
ATOM     29  N   UNL d   1      29.452 -13.200  -1.231  0.00  0.00    -0.357 N 
ATOM     30  H   UNL d   1      28.774 -13.943  -1.147  0.00  0.00     0.162 HD
BRANCH  29  31
ATOM     31  C   UNL d   1      29.372 -12.079  -0.307  0.00  0.00     0.125 C 
BRANCH  31  32
ATOM     32  C   UNL d   1      27.957 -11.567  -0.126  0.00  0.00     0.046 C 
BRANCH  32  33
ATOM     33  C   UNL d   1      27.060 -12.455   0.704  0.00  0.00     0.165 C 
BRANCH  33  34
ATOM     34  O   UNL d   1      26.972 -13.738   0.098  0.00  0.00    -0.401 OA
ATOM     35  H   UNL d   1      27.827 -14.167   0.267  0.00  0.00     0.209 HD
ENDBRANCH  33  34
ENDBRANCH  32  33
ENDBRANCH  31  32
ENDBRANCH  29  31
ENDBRANCH  26  27
ENDBRANCH  19  21
ENDBRANCH   1  19
TORSDOF 13
ENDMDL
MODEL 9
REMARK VINA RESULT:    -3.616      3.161      5.934
REMARK INTER + INTRA:         -14.808
REMARK INTER:                  -7.494
REMARK INTRA:                  -7.314
REMARK CONF_INDEPENDENT:        3.878
REMARK UNBOUND:                -7.314
REMARK  13 active torsions:
REMARK  status: ('A' for Active; 'I' for Inactive)
REMARK    1  A    between atoms: O_2  and  C_3 
REMARK    2  A    between atoms: C_3  and  C_4 
REMARK    3  A    between atoms: C_4  and  O_5 
REMARK    4  A    between atoms: O_5  and  C_6 
REMARK    5  A    between atoms: C_12  and  C_13 
REMARK       I    between atoms: C_13  and  N_15 
REMARK    6  A    between atoms: N_15  and  C_16 
REMARK    7  A    between atoms: C_16  and  N_18 
REMARK    8  A    between atoms: N_18  and  C_19 
REMARK    9  A    between atoms: C_24  and  C_25 
REMARK       I    between atoms: C_25  and  N_27 
REMARK   10  A    between atoms: N_27  and  C_28 
REMARK   11  A    between atoms: C_28  and  C_29 
REMARK   12  A    between atoms: C_29  and  C_30 
REMARK   13  A    between atoms: C_30  and  O_31 
ROOT
ATOM      1  C   UNL d   1      25.920 -14.097  -3.106  0.00  0.00     0.179 C 
ATOM      2  S   UNL d   1      25.496 -12.650  -3.860  0.00  0.00    -0.040 SA
ENDROOT
BRANCH   1   3
ATOM      3  N   UNL d   1      27.184 -14.736  -3.246  0.00  0.00    -0.299 N 
ATOM      4  C   UNL d   1      27.678 -15.377  -4.413  0.00  0.00     0.260 C 
ATOM      5  O   UNL d   1      27.032 -15.491  -5.456  0.00  0.00    -0.267 OA
ATOM      6  H   UNL d   1      27.741 -14.886  -2.412  0.00  0.00     0.171 HD
BRANCH   4   7
ATOM      7  C   UNL d   1      28.988 -16.104  -4.428  0.00  0.00     0.067 A 
ATOM      8  C   UNL d   1      29.588 -16.326  -5.695  0.00  0.00     0.039 A 
ATOM      9  C   UNL d   1      30.848 -16.909  -5.809  0.00  0.00     0.012 A 
ATOM     10  C   UNL d   1      31.563 -17.221  -4.664  0.00  0.00     0.022 A 
ATOM     11 BR   UNL d   1      31.570 -17.298  -7.513  0.00  0.00    -0.051 Br
ATOM     12  C   UNL d   1      30.966 -17.045  -3.410  0.00  0.00     0.039 A 
ATOM     13  C   UNL d   1      29.665 -16.528  -3.290  0.00  0.00     0.084 A 
BRANCH  13  14
ATOM     14  O   UNL d   1      29.003 -16.513  -2.094  0.00  0.00    -0.348 OA
BRANCH  14  15
ATOM     15  C   UNL d   1      29.542 -17.441  -1.154  0.00  0.00     0.201 C 
BRANCH  15  16
ATOM     16  C   UNL d   1      30.177 -16.632  -0.035  0.00  0.00     0.193 C 
BRANCH  16  17
ATOM     17  O   UNL d   1      30.652 -15.398  -0.553  0.00  0.00    -0.394 OA
ATOM     18  C   UNL d   1      32.063 -15.299  -0.419  0.00  0.00     0.201 C 
ENDBRANCH  16  17
ENDBRANCH  15  16
ENDBRANCH  14  15
ENDBRANCH  13  14
ENDBRANCH   4   7
ENDBRANCH   1   3
BRANCH   1  19
ATOM     19  N   UNL d   1      24.994 -14.861  -2.335  0.00  0.00    -0.332 N 
ATOM     20  H   UNL d   1      24.072 -15.020  -2.726  0.00  0.00     0.168 HD
BRANCH  19  21
ATOM     21  C   UNL d   1      25.414 -15.857  -1.369  0.00  0.00     0.050 A 
ATOM     22  C   UNL d   1      24.880 -17.165  -1.455  0.00  0.00     0.030 A 
ATOM     23  C   UNL d   1      25.272 -18.175  -0.555  0.00  0.00     0.002 A 
ATOM     24  C   UNL d   1      26.231 -17.910   0.414  0.00  0.00     0.001 A 
ATOM     25  C   UNL d   1      26.752 -16.619   0.525  0.00  0.00     0.019 A 
ATOM     26  C   UNL d   1      26.341 -15.573  -0.335  0.00  0.00     0.058 A 
BRANCH  26  27
ATOM     27  C   UNL d   1      26.932 -14.217  -0.049  0.00  0.00     0.253 C 
ATOM     28  O   UNL d   1      26.280 -13.379   0.588  0.00  0.00    -0.268 OA
ATOM     29  N   UNL d   1      28.200 -13.938  -0.516  0.00  0.00    -0.357 N 
ATOM     30  H   UNL d   1      28.677 -14.679  -1.007  0.00  0.00     0.162 HD
BRANCH  29  31
ATOM     31  C   UNL d   1      28.993 -12.858   0.052  0.00  0.00     0.125 C 
BRANCH  31  32
ATOM     32  C   UNL d   1      29.589 -11.950  -1.004  0.00  0.00     0.046 C 
BRANCH  32  33
ATOM     33  C   UNL d   1      30.377 -12.659  -2.082  0.00  0.00     0.165 C 
BRANCH  33  34
ATOM     34  O   UNL d   1      29.575 -13.683  -2.656  0.00  0.00    -0.401 OA
ATOM     35  H   UNL d   1      29.752 -14.480  -2.130  0.00  0.00     0.209 HD
ENDBRANCH  33  34
ENDBRANCH  32  33
ENDBRANCH  31  32
ENDBRANCH  29  31
ENDBRANCH  26  27
ENDBRANCH  19  21
ENDBRANCH   1  19
TORSDOF 13
ENDMDL
