MODEL 1
REMARK VINA RESULT:    -7.612      0.000      0.000
REMARK INTER + INTRA:         -13.298
REMARK INTER:                 -10.297
REMARK INTRA:                  -3.001
REMARK CONF_INDEPENDENT:        2.685
REMARK UNBOUND:                -3.001
REMARK  9 active torsions:
REMARK  status: ('A' for Active; 'I' for Inactive)
REMARK    1  A    between atoms: CG_2  and  CB_4 
REMARK    2  A    between atoms: CA_5  and  CB_4 
REMARK    3  A    between atoms: CA_5  and  C_30 
REMARK    4  A    between atoms: CA_5  and  N_6 
REMARK       I    between atoms: N_6  and  C_7 
REMARK    5  A    between atoms: C_9  and  C_7 
REMARK       I    between atoms: C_30  and  N_32 
REMARK    6  A    between atoms: N_32  and  CA_33 
REMARK    7  A    between atoms: CA_33  and  C_34 
REMARK    8  A    between atoms: CB_37  and  CA_33 
REMARK    9  A    between atoms: CB_37  and  OG1_39 
ROOT
ATOM      1  C   UNK d   0      27.177 -11.838   0.907  0.00  0.00     0.185 C 
ATOM      2  C   UNK d   0      27.974 -10.500   0.926  0.00  0.00     0.076 C 
ATOM      3  C   UNK d   0      27.834  -9.872   2.303  0.00  0.00    -0.018 A 
ATOM      4  C   UNK d   0      27.422 -10.609   3.402  0.00  0.00     0.045 A 
ATOM      5  N   UNK d   0      27.401  -9.790   4.494  0.00  0.00    -0.356 N 
ATOM      6  C   UNK d   0      27.786  -8.523   4.140  0.00  0.00     0.043 A 
ATOM      7  C   UNK d   0      27.917  -7.379   4.935  0.00  0.00     0.030 A 
ATOM      8  C   UNK d   0      28.316  -6.202   4.301  0.00  0.00     0.002 A 
ATOM      9  C   UNK d   0      28.570  -6.180   2.930  0.00  0.00     0.001 A 
ATOM     10  C   UNK d   0      28.441  -7.338   2.153  0.00  0.00     0.014 A 
ATOM     11  C   UNK d   0      28.048  -8.540   2.765  0.00  0.00    -0.001 A 
ATOM     12  C   UNK d   0      27.030 -12.037   3.429  0.00  0.00     0.173 C 
ATOM     13  C   UNK d   0      27.813 -12.879   4.383  0.00  0.00    -0.014 A 
ATOM     14  C   UNK d   0      27.905 -12.854   5.752  0.00  0.00     0.011 A 
ATOM     15  C   UNK d   0      28.716 -13.811   6.376  0.00  0.00     0.001 A 
ATOM     16  C   UNK d   0      29.391 -14.805   5.641  0.00  0.00     0.001 A 
ATOM     17  C   UNK d   0      29.307 -14.826   4.262  0.00  0.00     0.017 A 
ATOM     18  C   UNK d   0      28.551 -13.828   3.692  0.00  0.00     0.041 A 
ATOM     19  C   UNK d   0      28.395 -13.581   2.284  0.00  0.00     0.256 C 
ATOM     20  O   UNK d   0      29.022 -14.223   1.484  0.00  0.00    -0.267 OA
ATOM     21  N   UNK d   0      27.383 -12.614   2.153  0.00  0.00    -0.320 N 
ATOM     22  H   UNK d   0      27.154 -10.068   5.432  0.00  0.00     0.166 HD
ENDROOT
BRANCH   1  23
ATOM     23  C   UNK d   0      27.456 -12.903  -0.147  0.00  0.00     0.241 C 
ATOM     24  N   LEU d   1      26.400 -13.888  -0.161  0.00  0.00    -0.346 N 
ATOM     25  H   LEU d   1      25.818 -13.800   0.651  0.00  0.00     0.163 HD
ATOM     26  O   UNK d   0      28.505 -12.856  -0.774  0.00  0.00    -0.271 OA
BRANCH  24  27
ATOM     27  CA  LEU d   1      26.485 -15.285  -0.738  0.00  0.00     0.177 C 
BRANCH  27  28
ATOM     28  C   LEU d   1      26.310 -15.015  -2.212  0.00  0.00     0.241 C 
ATOM     29  O   LEU d   1      25.464 -15.681  -2.818  0.00  0.00    -0.271 OA
ATOM     30  N   THR d   2      27.152 -14.245  -2.967  0.00  0.00    -0.343 N 
ATOM     31  H   THR d   2      28.054 -13.956  -2.626  0.00  0.00     0.163 HD
BRANCH  30  32
ATOM     32  CA  THR d   2      27.045 -14.694  -4.394  0.00  0.00     0.214 C 
BRANCH  32  33
ATOM     33  C   THR d   2      28.513 -15.007  -5.031  0.00  0.00     0.199 C 
ATOM     34  O   THR d   2      29.469 -14.659  -4.261  0.00  0.00    -0.646 OA
ATOM     35  OXT THR d   2      28.607 -15.577  -6.149  0.00  0.00    -0.646 OA
ENDBRANCH  32  33
BRANCH  32  36
ATOM     36  CB  THR d   2      25.893 -13.790  -5.007  0.00  0.00     0.147 C 
ATOM     37  CG2 THR d   2      25.959 -12.324  -4.728  0.00  0.00     0.042 C 
BRANCH  36  38
ATOM     38  OG1 THR d   2      24.523 -14.086  -4.644  0.00  0.00    -0.393 OA
ATOM     39  HG1 THR d   2      24.023 -13.354  -5.098  0.00  0.00     0.210 HD
ENDBRANCH  36  38
ENDBRANCH  32  36
ENDBRANCH  30  32
ENDBRANCH  27  28
BRANCH  27  40
ATOM     40  CB  LEU d   1      25.369 -16.213  -0.141  0.00  0.00     0.038 C 
BRANCH  40  41
ATOM     41  CG  LEU d   1      25.568 -17.728  -0.426  0.00  0.00    -0.020 C 
ATOM     42  CD1 LEU d   1      26.596 -18.376   0.488  0.00  0.00     0.009 C 
ATOM     43  CD2 LEU d   1      24.270 -18.522  -0.267  0.00  0.00     0.009 C 
ENDBRANCH  40  41
ENDBRANCH  27  40
ENDBRANCH  24  27
ENDBRANCH   1  23
TORSDOF 9
ENDMDL
MODEL 2
REMARK VINA RESULT:    -7.264      1.944      4.081
REMARK INTER + INTRA:         -13.964
REMARK INTER:                  -9.949
REMARK INTRA:                  -4.015
REMARK CONF_INDEPENDENT:        2.685
REMARK UNBOUND:                -4.015
REMARK  9 active torsions:
REMARK  status: ('A' for Active; 'I' for Inactive)
REMARK    1  A    between atoms: CG_2  and  CB_4 
REMARK    2  A    between atoms: CA_5  and  CB_4 
REMARK    3  A    between atoms: CA_5  and  C_30 
REMARK    4  A    between atoms: CA_5  and  N_6 
REMARK       I    between atoms: N_6  and  C_7 
REMARK    5  A    between atoms: C_9  and  C_7 
REMARK       I    between atoms: C_30  and  N_32 
REMARK    6  A    between atoms: N_32  and  CA_33 
REMARK    7  A    between atoms: CA_33  and  C_34 
REMARK    8  A    between atoms: CB_37  and  CA_33 
REMARK    9  A    between atoms: CB_37  and  OG1_39 
ROOT
ATOM      1  C   UNK d   0      28.843 -14.346   0.897  0.00  0.00     0.185 C 
ATOM      2  C   UNK d   0      28.152 -14.489   2.285  0.00  0.00     0.076 C 
ATOM      3  C   UNK d   0      28.536 -13.295   3.144  0.00  0.00    -0.018 A 
ATOM      4  C   UNK d   0      29.055 -12.136   2.590  0.00  0.00     0.045 A 
ATOM      5  N   UNK d   0      29.294 -11.242   3.592  0.00  0.00    -0.356 N 
ATOM      6  C   UNK d   0      28.949 -11.786   4.802  0.00  0.00     0.043 A 
ATOM      7  C   UNK d   0      29.016 -11.225   6.082  0.00  0.00     0.030 A 
ATOM      8  C   UNK d   0      28.609 -12.023   7.151  0.00  0.00     0.002 A 
ATOM      9  C   UNK d   0      28.156 -13.325   6.941  0.00  0.00     0.001 A 
ATOM     10  C   UNK d   0      28.089 -13.866   5.651  0.00  0.00     0.014 A 
ATOM     11  C   UNK d   0      28.485 -13.084   4.553  0.00  0.00    -0.001 A 
ATOM     12  C   UNK d   0      29.348 -11.877   1.161  0.00  0.00     0.173 C 
ATOM     13  C   UNK d   0      28.659 -10.679   0.592  0.00  0.00    -0.014 A 
ATOM     14  C   UNK d   0      28.773  -9.343   0.882  0.00  0.00     0.011 A 
ATOM     15  C   UNK d   0      28.000  -8.440   0.141  0.00  0.00     0.001 A 
ATOM     16  C   UNK d   0      27.157  -8.866  -0.903  0.00  0.00     0.001 A 
ATOM     17  C   UNK d   0      27.034 -10.212  -1.190  0.00  0.00     0.017 A 
ATOM     18  C   UNK d   0      27.764 -11.064  -0.394  0.00  0.00     0.041 A 
ATOM     19  C   UNK d   0      27.726 -12.502  -0.432  0.00  0.00     0.256 C 
ATOM     20  O   UNK d   0      26.945 -13.067  -1.150  0.00  0.00    -0.267 OA
ATOM     21  N   UNK d   0      28.771 -12.955   0.392  0.00  0.00    -0.320 N 
ATOM     22  H   UNK d   0      29.658 -10.308   3.474  0.00  0.00     0.166 HD
ENDROOT
BRANCH   1  23
ATOM     23  C   UNK d   0      28.339 -15.121  -0.315  0.00  0.00     0.241 C 
ATOM     24  N   LEU d   1      27.042 -15.695  -0.042  0.00  0.00    -0.346 N 
ATOM     25  H   LEU d   1      26.832 -15.656   0.938  0.00  0.00     0.163 HD
ATOM     26  O   UNK d   0      29.064 -15.229  -1.294  0.00  0.00    -0.271 OA
BRANCH  24  27
ATOM     27  CA  LEU d   1      26.395 -16.843  -0.789  0.00  0.00     0.177 C 
BRANCH  27  28
ATOM     28  C   LEU d   1      25.959 -16.166  -2.065  0.00  0.00     0.241 C 
ATOM     29  O   LEU d   1      25.156 -16.768  -2.785  0.00  0.00    -0.271 OA
ATOM     30  N   THR d   2      26.538 -15.041  -2.587  0.00  0.00    -0.343 N 
ATOM     31  H   THR d   2      27.420 -14.694  -2.247  0.00  0.00     0.163 HD
BRANCH  30  32
ATOM     32  CA  THR d   2      26.297 -15.033  -4.066  0.00  0.00     0.214 C 
BRANCH  32  33
ATOM     33  C   THR d   2      27.689 -15.198  -4.899  0.00  0.00     0.199 C 
ATOM     34  O   THR d   2      28.718 -15.179  -4.145  0.00  0.00    -0.646 OA
ATOM     35  OXT THR d   2      27.663 -15.370  -6.145  0.00  0.00    -0.646 OA
ENDBRANCH  32  33
BRANCH  32  36
ATOM     36  CB  THR d   2      25.165 -13.939  -4.274  0.00  0.00     0.147 C 
ATOM     37  CG2 THR d   2      25.529 -12.520  -3.981  0.00  0.00     0.042 C 
BRANCH  36  38
ATOM     38  OG1 THR d   2      23.933 -14.075  -3.527  0.00  0.00    -0.393 OA
ATOM     39  HG1 THR d   2      24.119 -14.872  -2.959  0.00  0.00     0.210 HD
ENDBRANCH  36  38
ENDBRANCH  32  36
ENDBRANCH  30  32
ENDBRANCH  27  28
BRANCH  27  40
ATOM     40  CB  LEU d   1      25.202 -17.449   0.031  0.00  0.00     0.038 C 
BRANCH  40  41
ATOM     41  CG  LEU d   1      23.871 -17.572  -0.763  0.00  0.00    -0.020 C 
ATOM     42  CD1 LEU d   1      23.084 -18.826  -0.415  0.00  0.00     0.009 C 
ATOM     43  CD2 LEU d   1      22.939 -16.383  -0.520  0.00  0.00     0.009 C 
ENDBRANCH  40  41
ENDBRANCH  27  40
ENDBRANCH  24  27
ENDBRANCH   1  23
TORSDOF 9
ENDMDL
MODEL 3
REMARK VINA RESULT:    -7.099      3.237      4.476
REMARK INTER + INTRA:         -14.114
REMARK INTER:                  -9.783
REMARK INTRA:                  -4.331
REMARK CONF_INDEPENDENT:        2.685
REMARK UNBOUND:                -4.331
REMARK  9 active torsions:
REMARK  status: ('A' for Active; 'I' for Inactive)
REMARK    1  A    between atoms: CG_2  and  CB_4 
REMARK    2  A    between atoms: CA_5  and  CB_4 
REMARK    3  A    between atoms: CA_5  and  C_30 
REMARK    4  A    between atoms: CA_5  and  N_6 
REMARK       I    between atoms: N_6  and  C_7 
REMARK    5  A    between atoms: C_9  and  C_7 
REMARK       I    between atoms: C_30  and  N_32 
REMARK    6  A    between atoms: N_32  and  CA_33 
REMARK    7  A    between atoms: CA_33  and  C_34 
REMARK    8  A    between atoms: CB_37  and  CA_33 
REMARK    9  A    between atoms: CB_37  and  OG1_39 
ROOT
ATOM      1  C   UNK d   0      28.558 -15.811   0.640  0.00  0.00     0.185 C 
ATOM      2  C   UNK d   0      27.780 -14.944   1.674  0.00  0.00     0.076 C 
ATOM      3  C   UNK d   0      28.761 -14.447   2.725  0.00  0.00    -0.018 A 
ATOM      4  C   UNK d   0      30.128 -14.450   2.504  0.00  0.00     0.045 A 
ATOM      5  N   UNK d   0      30.750 -13.943   3.608  0.00  0.00    -0.356 N 
ATOM      6  C   UNK d   0      29.821 -13.608   4.560  0.00  0.00     0.043 A 
ATOM      7  C   UNK d   0      30.010 -13.049   5.829  0.00  0.00     0.030 A 
ATOM      8  C   UNK d   0      28.871 -12.825   6.603  0.00  0.00     0.002 A 
ATOM      9  C   UNK d   0      27.603 -13.148   6.122  0.00  0.00     0.001 A 
ATOM     10  C   UNK d   0      27.435 -13.700   4.845  0.00  0.00     0.014 A 
ATOM     11  C   UNK d   0      28.562 -13.930   4.039  0.00  0.00    -0.001 A 
ATOM     12  C   UNK d   0      30.843 -14.940   1.303  0.00  0.00     0.173 C 
ATOM     13  C   UNK d   0      31.723 -13.927   0.646  0.00  0.00    -0.014 A 
ATOM     14  C   UNK d   0      32.854 -13.285   1.086  0.00  0.00     0.011 A 
ATOM     15  C   UNK d   0      33.487 -12.393   0.211  0.00  0.00     0.001 A 
ATOM     16  C   UNK d   0      33.018 -12.179  -1.100  0.00  0.00     0.001 A 
ATOM     17  C   UNK d   0      31.875 -12.818  -1.541  0.00  0.00     0.017 A 
ATOM     18  C   UNK d   0      31.253 -13.635  -0.625  0.00  0.00     0.041 A 
ATOM     19  C   UNK d   0      30.004 -14.323  -0.812  0.00  0.00     0.256 C 
ATOM     20  O   UNK d   0      29.359 -14.144  -1.810  0.00  0.00    -0.267 OA
ATOM     21  N   UNK d   0      29.857 -15.197   0.279  0.00  0.00    -0.320 N 
ATOM     22  H   UNK d   0      31.745 -13.814   3.716  0.00  0.00     0.166 HD
ENDROOT
BRANCH   1  23
ATOM     23  C   UNK d   0      27.977 -16.094  -0.741  0.00  0.00     0.241 C 
ATOM     24  N   LEU d   1      26.589 -15.702  -0.794  0.00  0.00    -0.346 N 
ATOM     25  H   LEU d   1      26.230 -15.528   0.126  0.00  0.00     0.163 HD
ATOM     26  O   UNK d   0      28.677 -16.651  -1.575  0.00  0.00    -0.271 OA
BRANCH  24  27
ATOM     27  CA  LEU d   1      25.561 -16.176  -1.801  0.00  0.00     0.177 C 
BRANCH  27  28
ATOM     28  C   LEU d   1      25.817 -15.241  -2.957  0.00  0.00     0.241 C 
ATOM     29  O   LEU d   1      24.876 -15.009  -3.722  0.00  0.00    -0.271 OA
ATOM     30  N   THR d   2      27.054 -14.798  -3.341  0.00  0.00    -0.343 N 
ATOM     31  H   THR d   2      27.899 -15.218  -2.990  0.00  0.00     0.163 HD
BRANCH  30  32
ATOM     32  CA  THR d   2      26.993 -14.443  -4.796  0.00  0.00     0.214 C 
BRANCH  32  33
ATOM     33  C   THR d   2      28.203 -15.147  -5.633  0.00  0.00     0.199 C 
ATOM     34  O   THR d   2      29.103 -15.640  -4.876  0.00  0.00    -0.646 OA
ATOM     35  OXT THR d   2      28.154 -15.198  -6.890  0.00  0.00    -0.646 OA
ENDBRANCH  32  33
BRANCH  32  36
ATOM     36  CB  THR d   2      26.564 -12.914  -4.811  0.00  0.00     0.147 C 
ATOM     37  CG2 THR d   2      26.967 -12.084  -3.635  0.00  0.00     0.042 C 
BRANCH  36  38
ATOM     38  OG1 THR d   2      25.155 -12.598  -4.911  0.00  0.00    -0.393 OA
ATOM     39  HG1 THR d   2      24.771 -13.455  -5.243  0.00  0.00     0.210 HD
ENDBRANCH  36  38
ENDBRANCH  32  36
ENDBRANCH  30  32
ENDBRANCH  27  28
BRANCH  27  40
ATOM     40  CB  LEU d   1      24.108 -16.063  -1.221  0.00  0.00     0.038 C 
BRANCH  40  41
ATOM     41  CG  LEU d   1      23.684 -17.244  -0.304  0.00  0.00    -0.020 C 
ATOM     42  CD1 LEU d   1      22.561 -18.082  -0.894  0.00  0.00     0.009 C 
ATOM     43  CD2 LEU d   1      24.845 -18.199  -0.016  0.00  0.00     0.009 C 
ENDBRANCH  40  41
ENDBRANCH  27  40
ENDBRANCH  24  27
ENDBRANCH   1  23
TORSDOF 9
ENDMDL
MODEL 4
REMARK VINA RESULT:    -7.022      1.725      2.448
REMARK INTER + INTRA:         -13.829
REMARK INTER:                  -9.706
REMARK INTRA:                  -4.123
REMARK CONF_INDEPENDENT:        2.685
REMARK UNBOUND:                -4.123
REMARK  9 active torsions:
REMARK  status: ('A' for Active; 'I' for Inactive)
REMARK    1  A    between atoms: CG_2  and  CB_4 
REMARK    2  A    between atoms: CA_5  and  CB_4 
REMARK    3  A    between atoms: CA_5  and  C_30 
REMARK    4  A    between atoms: CA_5  and  N_6 
REMARK       I    between atoms: N_6  and  C_7 
REMARK    5  A    between atoms: C_9  and  C_7 
REMARK       I    between atoms: C_30  and  N_32 
REMARK    6  A    between atoms: N_32  and  CA_33 
REMARK    7  A    between atoms: CA_33  and  C_34 
REMARK    8  A    between atoms: CB_37  and  CA_33 
REMARK    9  A    between atoms: CB_37  and  OG1_39 
ROOT
ATOM      1  C   UNK d   0      26.614 -13.639   1.149  0.00  0.00     0.185 C 
ATOM      2  C   UNK d   0      26.706 -12.087   1.243  0.00  0.00     0.076 C 
ATOM      3  C   UNK d   0      27.495 -11.722   2.490  0.00  0.00    -0.018 A 
ATOM      4  C   UNK d   0      28.305 -12.643   3.135  0.00  0.00     0.045 A 
ATOM      5  N   UNK d   0      28.891 -12.034   4.207  0.00  0.00    -0.356 N 
ATOM      6  C   UNK d   0      28.480 -10.729   4.290  0.00  0.00     0.043 A 
ATOM      7  C   UNK d   0      28.834  -9.742   5.217  0.00  0.00     0.030 A 
ATOM      8  C   UNK d   0      28.243  -8.487   5.070  0.00  0.00     0.002 A 
ATOM      9  C   UNK d   0      27.339  -8.237   4.039  0.00  0.00     0.001 A 
ATOM     10  C   UNK d   0      27.004  -9.236   3.116  0.00  0.00     0.014 A 
ATOM     11  C   UNK d   0      27.589 -10.509   3.233  0.00  0.00    -0.001 A 
ATOM     12  C   UNK d   0      28.509 -14.065   2.776  0.00  0.00     0.173 C 
ATOM     13  C   UNK d   0      29.933 -14.447   2.529  0.00  0.00    -0.014 A 
ATOM     14  C   UNK d   0      31.022 -14.477   3.363  0.00  0.00     0.011 A 
ATOM     15  C   UNK d   0      32.243 -14.918   2.836  0.00  0.00     0.001 A 
ATOM     16  C   UNK d   0      32.360 -15.364   1.505  0.00  0.00     0.001 A 
ATOM     17  C   UNK d   0      31.265 -15.327   0.663  0.00  0.00     0.017 A 
ATOM     18  C   UNK d   0      30.105 -14.825   1.207  0.00  0.00     0.041 A 
ATOM     19  C   UNK d   0      28.870 -14.594   0.508  0.00  0.00     0.256 C 
ATOM     20  O   UNK d   0      28.809 -14.761  -0.682  0.00  0.00    -0.267 OA
ATOM     21  N   UNK d   0      27.906 -14.283   1.482  0.00  0.00    -0.320 N 
ATOM     22  H   UNK d   0      29.543 -12.466   4.845  0.00  0.00     0.166 HD
ENDROOT
BRANCH   1  23
ATOM     23  C   UNK d   0      26.278 -14.327  -0.169  0.00  0.00     0.241 C 
ATOM     24  N   LEU d   1      26.217 -15.758   0.011  0.00  0.00    -0.346 N 
ATOM     25  H   LEU d   1      26.612 -16.026   0.894  0.00  0.00     0.163 HD
ATOM     26  O   UNK d   0      26.175 -13.650  -1.182  0.00  0.00    -0.271 OA
BRANCH  24  27
ATOM     27  CA  LEU d   1      26.324 -16.804  -1.079  0.00  0.00     0.177 C 
BRANCH  27  28
ATOM     28  C   LEU d   1      26.094 -15.975  -2.318  0.00  0.00     0.241 C 
ATOM     29  O   LEU d   1      25.072 -16.199  -2.974  0.00  0.00    -0.271 OA
ATOM     30  N   THR d   2      27.025 -15.145  -2.882  0.00  0.00    -0.343 N 
ATOM     31  H   THR d   2      27.994 -15.175  -2.612  0.00  0.00     0.163 HD
BRANCH  30  32
ATOM     32  CA  THR d   2      26.701 -15.000  -4.339  0.00  0.00     0.214 C 
BRANCH  32  33
ATOM     33  C   THR d   2      28.027 -15.200  -5.267  0.00  0.00     0.199 C 
ATOM     34  O   THR d   2      29.085 -15.392  -4.580  0.00  0.00    -0.646 OA
ATOM     35  OXT THR d   2      27.925 -15.200  -6.521  0.00  0.00    -0.646 OA
ENDBRANCH  32  33
BRANCH  32  36
ATOM     36  CB  THR d   2      25.648 -13.813  -4.393  0.00  0.00     0.147 C 
ATOM     37  CG2 THR d   2      26.109 -12.474  -3.914  0.00  0.00     0.042 C 
BRANCH  36  38
ATOM     38  OG1 THR d   2      24.408 -13.962  -3.663  0.00  0.00    -0.393 OA
ATOM     39  HG1 THR d   2      24.728 -14.092  -2.729  0.00  0.00     0.210 HD
ENDBRANCH  36  38
ENDBRANCH  32  36
ENDBRANCH  30  32
ENDBRANCH  27  28
BRANCH  27  40
ATOM     40  CB  LEU d   1      25.255 -17.936  -0.883  0.00  0.00     0.038 C 
BRANCH  40  41
ATOM     41  CG  LEU d   1      23.965 -17.485  -0.141  0.00  0.00    -0.020 C 
ATOM     42  CD1 LEU d   1      23.260 -16.325  -0.826  0.00  0.00     0.009 C 
ATOM     43  CD2 LEU d   1      22.943 -18.616  -0.017  0.00  0.00     0.009 C 
ENDBRANCH  40  41
ENDBRANCH  27  40
ENDBRANCH  24  27
ENDBRANCH   1  23
TORSDOF 9
ENDMDL
MODEL 5
REMARK VINA RESULT:    -6.635      3.370      9.264
REMARK INTER + INTRA:         -13.296
REMARK INTER:                  -9.320
REMARK INTRA:                  -3.976
REMARK CONF_INDEPENDENT:        2.685
REMARK UNBOUND:                -3.976
REMARK  9 active torsions:
REMARK  status: ('A' for Active; 'I' for Inactive)
REMARK    1  A    between atoms: CG_2  and  CB_4 
REMARK    2  A    between atoms: CA_5  and  CB_4 
REMARK    3  A    between atoms: CA_5  and  C_30 
REMARK    4  A    between atoms: CA_5  and  N_6 
REMARK       I    between atoms: N_6  and  C_7 
REMARK    5  A    between atoms: C_9  and  C_7 
REMARK       I    between atoms: C_30  and  N_32 
REMARK    6  A    between atoms: N_32  and  CA_33 
REMARK    7  A    between atoms: CA_33  and  C_34 
REMARK    8  A    between atoms: CB_37  and  CA_33 
REMARK    9  A    between atoms: CB_37  and  OG1_39 
ROOT
ATOM      1  C   UNK d   0      28.475 -13.227  -4.370  0.00  0.00     0.185 C 
ATOM      2  C   UNK d   0      28.801 -14.129  -5.597  0.00  0.00     0.076 C 
ATOM      3  C   UNK d   0      29.225 -15.499  -5.092  0.00  0.00    -0.018 A 
ATOM      4  C   UNK d   0      28.943 -15.920  -3.803  0.00  0.00     0.045 A 
ATOM      5  N   UNK d   0      29.432 -17.184  -3.639  0.00  0.00    -0.356 N 
ATOM      6  C   UNK d   0      30.039 -17.608  -4.793  0.00  0.00     0.043 A 
ATOM      7  C   UNK d   0      30.660 -18.829  -5.074  0.00  0.00     0.030 A 
ATOM      8  C   UNK d   0      31.216 -18.986  -6.344  0.00  0.00     0.002 A 
ATOM      9  C   UNK d   0      31.148 -17.960  -7.286  0.00  0.00     0.001 A 
ATOM     10  C   UNK d   0      30.515 -16.747  -6.988  0.00  0.00     0.014 A 
ATOM     11  C   UNK d   0      29.940 -16.563  -5.719  0.00  0.00    -0.001 A 
ATOM     12  C   UNK d   0      28.257 -15.153  -2.738  0.00  0.00     0.173 C 
ATOM     13  C   UNK d   0      27.041 -15.816  -2.177  0.00  0.00    -0.014 A 
ATOM     14  C   UNK d   0      26.888 -16.982  -1.468  0.00  0.00     0.011 A 
ATOM     15  C   UNK d   0      25.599 -17.331  -1.046  0.00  0.00     0.001 A 
ATOM     16  C   UNK d   0      24.487 -16.504  -1.293  0.00  0.00     0.001 A 
ATOM     17  C   UNK d   0      24.638 -15.335  -2.014  0.00  0.00     0.017 A 
ATOM     18  C   UNK d   0      25.911 -15.067  -2.462  0.00  0.00     0.041 A 
ATOM     19  C   UNK d   0      26.299 -13.972  -3.311  0.00  0.00     0.256 C 
ATOM     20  O   UNK d   0      25.465 -13.236  -3.768  0.00  0.00    -0.267 OA
ATOM     21  N   UNK d   0      27.704 -13.962  -3.341  0.00  0.00    -0.320 N 
ATOM     22  H   UNK d   0      29.353 -17.741  -2.801  0.00  0.00     0.166 HD
ENDROOT
BRANCH   1  23
ATOM     23  C   UNK d   0      27.628 -11.969  -4.524  0.00  0.00     0.241 C 
ATOM     24  N   LEU d   1      27.920 -11.032  -3.465  0.00  0.00    -0.346 N 
ATOM     25  H   LEU d   1      28.449 -11.470  -2.734  0.00  0.00     0.163 HD
ATOM     26  O   UNK d   0      26.796 -11.920  -5.420  0.00  0.00    -0.271 OA
BRANCH  24  27
ATOM     27  CA  LEU d   1      27.041  -9.884  -3.016  0.00  0.00     0.177 C 
BRANCH  27  28
ATOM     28  C   LEU d   1      27.278  -9.885  -1.527  0.00  0.00     0.241 C 
ATOM     29  O   LEU d   1      27.411 -10.980  -0.970  0.00  0.00    -0.271 OA
ATOM     30  N   THR d   2      27.151  -8.789  -0.716  0.00  0.00    -0.343 N 
ATOM     31  H   THR d   2      26.706  -7.944  -1.036  0.00  0.00     0.163 HD
BRANCH  30  32
ATOM     32  CA  THR d   2      26.851  -9.265   0.673  0.00  0.00     0.214 C 
BRANCH  32  33
ATOM     33  C   THR d   2      25.593  -8.455   1.322  0.00  0.00     0.199 C 
ATOM     34  O   THR d   2      25.130  -7.558   0.542  0.00  0.00    -0.646 OA
ATOM     35  OXT THR d   2      25.155  -8.775   2.457  0.00  0.00    -0.646 OA
ENDBRANCH  32  33
BRANCH  32  36
ATOM     36  CB  THR d   2      28.278  -9.521   1.319  0.00  0.00     0.147 C 
ATOM     37  CG2 THR d   2      28.706  -8.594   2.411  0.00  0.00     0.042 C 
BRANCH  36  38
ATOM     38  OG1 THR d   2      29.438  -9.493   0.454  0.00  0.00    -0.393 OA
ATOM     39  HG1 THR d   2      29.173 -10.120  -0.273  0.00  0.00     0.210 HD
ENDBRANCH  36  38
ENDBRANCH  32  36
ENDBRANCH  30  32
ENDBRANCH  27  28
BRANCH  27  40
ATOM     40  CB  LEU d   1      25.542 -10.133  -3.405  0.00  0.00     0.038 C 
BRANCH  40  41
ATOM     41  CG  LEU d   1      24.893  -8.994  -4.242  0.00  0.00    -0.020 C 
ATOM     42  CD1 LEU d   1      25.458  -7.621  -3.915  0.00  0.00     0.009 C 
ATOM     43  CD2 LEU d   1      25.077  -9.203  -5.746  0.00  0.00     0.009 C 
ENDBRANCH  40  41
ENDBRANCH  27  40
ENDBRANCH  24  27
ENDBRANCH   1  23
TORSDOF 9
ENDMDL
MODEL 6
REMARK VINA RESULT:    -6.459      5.841      8.697
REMARK INTER + INTRA:         -13.675
REMARK INTER:                  -9.144
REMARK INTRA:                  -4.531
REMARK CONF_INDEPENDENT:        2.685
REMARK UNBOUND:                -4.531
REMARK  9 active torsions:
REMARK  status: ('A' for Active; 'I' for Inactive)
REMARK    1  A    between atoms: CG_2  and  CB_4 
REMARK    2  A    between atoms: CA_5  and  CB_4 
REMARK    3  A    between atoms: CA_5  and  C_30 
REMARK    4  A    between atoms: CA_5  and  N_6 
REMARK       I    between atoms: N_6  and  C_7 
REMARK    5  A    between atoms: C_9  and  C_7 
REMARK       I    between atoms: C_30  and  N_32 
REMARK    6  A    between atoms: N_32  and  CA_33 
REMARK    7  A    between atoms: CA_33  and  C_34 
REMARK    8  A    between atoms: CB_37  and  CA_33 
REMARK    9  A    between atoms: CB_37  and  OG1_39 
ROOT
ATOM      1  C   UNK d   0      29.235 -16.861  -0.699  0.00  0.00     0.185 C 
ATOM      2  C   UNK d   0      28.035 -17.838  -0.520  0.00  0.00     0.076 C 
ATOM      3  C   UNK d   0      26.753 -17.099  -0.868  0.00  0.00    -0.018 A 
ATOM      4  C   UNK d   0      26.765 -15.923  -1.601  0.00  0.00     0.045 A 
ATOM      5  N   UNK d   0      25.479 -15.498  -1.765  0.00  0.00    -0.356 N 
ATOM      6  C   UNK d   0      24.613 -16.365  -1.151  0.00  0.00     0.043 A 
ATOM      7  C   UNK d   0      23.217 -16.325  -1.078  0.00  0.00     0.030 A 
ATOM      8  C   UNK d   0      22.585 -17.344  -0.364  0.00  0.00     0.002 A 
ATOM      9  C   UNK d   0      23.326 -18.355   0.247  0.00  0.00     0.001 A 
ATOM     10  C   UNK d   0      24.723 -18.381   0.156  0.00  0.00     0.014 A 
ATOM     11  C   UNK d   0      25.387 -17.373  -0.563  0.00  0.00    -0.001 A 
ATOM     12  C   UNK d   0      27.950 -15.197  -2.113  0.00  0.00     0.173 C 
ATOM     13  C   UNK d   0      27.953 -14.973  -3.590  0.00  0.00    -0.014 A 
ATOM     14  C   UNK d   0      27.123 -14.237  -4.398  0.00  0.00     0.011 A 
ATOM     15  C   UNK d   0      27.405 -14.197  -5.770  0.00  0.00     0.001 A 
ATOM     16  C   UNK d   0      28.526 -14.850  -6.317  0.00  0.00     0.001 A 
ATOM     17  C   UNK d   0      29.357 -15.599  -5.506  0.00  0.00     0.017 A 
ATOM     18  C   UNK d   0      29.003 -15.660  -4.178  0.00  0.00     0.041 A 
ATOM     19  C   UNK d   0      29.647 -16.451  -3.164  0.00  0.00     0.256 C 
ATOM     20  O   UNK d   0      30.533 -17.209  -3.460  0.00  0.00    -0.267 OA
ATOM     21  N   UNK d   0      29.101 -16.051  -1.932  0.00  0.00    -0.320 N 
ATOM     22  H   UNK d   0      25.192 -14.675  -2.274  0.00  0.00     0.166 HD
ENDROOT
BRANCH   1  23
ATOM     23  C   UNK d   0      30.658 -17.386  -0.851  0.00  0.00     0.241 C 
ATOM     24  N   LEU d   1      30.716 -18.790  -0.520  0.00  0.00    -0.346 N 
ATOM     25  H   LEU d   1      29.875 -19.085  -0.059  0.00  0.00     0.163 HD
ATOM     26  O   UNK d   0      31.552 -16.603  -1.143  0.00  0.00    -0.271 OA
BRANCH  24  27
ATOM     27  CA  LEU d   1      31.956 -19.574  -0.146  0.00  0.00     0.177 C 
BRANCH  27  28
ATOM     28  C   LEU d   1      32.500 -19.946  -1.503  0.00  0.00     0.241 C 
ATOM     29  O   LEU d   1      33.193 -20.966  -1.581  0.00  0.00    -0.271 OA
ATOM     30  N   THR d   2      32.460 -19.137  -2.607  0.00  0.00    -0.343 N 
ATOM     31  H   THR d   2      32.230 -18.159  -2.537  0.00  0.00     0.163 HD
BRANCH  30  32
ATOM     32  CA  THR d   2      33.578 -19.537  -3.523  0.00  0.00     0.214 C 
BRANCH  32  33
ATOM     33  C   THR d   2      34.524 -18.265  -3.901  0.00  0.00     0.199 C 
ATOM     34  O   THR d   2      34.054 -17.158  -3.475  0.00  0.00    -0.646 OA
ATOM     35  OXT THR d   2      35.611 -18.445  -4.508  0.00  0.00    -0.646 OA
ENDBRANCH  32  33
BRANCH  32  36
ATOM     36  CB  THR d   2      32.917 -20.585  -4.515  0.00  0.00     0.147 C 
ATOM     37  CG2 THR d   2      31.473 -20.390  -4.847  0.00  0.00     0.042 C 
BRANCH  36  38
ATOM     38  OG1 THR d   2      32.936 -21.985  -4.148  0.00  0.00    -0.393 OA
ATOM     39  HG1 THR d   2      33.121 -21.943  -3.171  0.00  0.00     0.210 HD
ENDBRANCH  36  38
ENDBRANCH  32  36
ENDBRANCH  30  32
ENDBRANCH  27  28
BRANCH  27  40
ATOM     40  CB  LEU d   1      31.595 -20.817   0.739  0.00  0.00     0.038 C 
BRANCH  40  41
ATOM     41  CG  LEU d   1      30.379 -21.641   0.230  0.00  0.00    -0.020 C 
ATOM     42  CD1 LEU d   1      30.779 -22.969  -0.394  0.00  0.00     0.009 C 
ATOM     43  CD2 LEU d   1      29.384 -21.958   1.348  0.00  0.00     0.009 C 
ENDBRANCH  40  41
ENDBRANCH  27  40
ENDBRANCH  24  27
ENDBRANCH   1  23
TORSDOF 9
ENDMDL
MODEL 7
REMARK VINA RESULT:    -6.374      2.813      7.378
REMARK INTER + INTRA:         -13.588
REMARK INTER:                  -9.059
REMARK INTRA:                  -4.529
REMARK CONF_INDEPENDENT:        2.685
REMARK UNBOUND:                -4.529
REMARK  9 active torsions:
REMARK  status: ('A' for Active; 'I' for Inactive)
REMARK    1  A    between atoms: CG_2  and  CB_4 
REMARK    2  A    between atoms: CA_5  and  CB_4 
REMARK    3  A    between atoms: CA_5  and  C_30 
REMARK    4  A    between atoms: CA_5  and  N_6 
REMARK       I    between atoms: N_6  and  C_7 
REMARK    5  A    between atoms: C_9  and  C_7 
REMARK       I    between atoms: C_30  and  N_32 
REMARK    6  A    between atoms: N_32  and  CA_33 
REMARK    7  A    between atoms: CA_33  and  C_34 
REMARK    8  A    between atoms: CB_37  and  CA_33 
REMARK    9  A    between atoms: CB_37  and  OG1_39 
ROOT
ATOM      1  C   UNK d   0      27.768 -13.047  -1.135  0.00  0.00     0.185 C 
ATOM      2  C   UNK d   0      26.406 -13.741  -1.435  0.00  0.00     0.076 C 
ATOM      3  C   UNK d   0      26.344 -15.044  -0.653  0.00  0.00    -0.018 A 
ATOM      4  C   UNK d   0      27.183 -15.290   0.422  0.00  0.00     0.045 A 
ATOM      5  N   UNK d   0      26.893 -16.523   0.928  0.00  0.00    -0.356 N 
ATOM      6  C   UNK d   0      25.882 -17.103   0.208  0.00  0.00     0.043 A 
ATOM      7  C   UNK d   0      25.266 -18.348   0.382  0.00  0.00     0.030 A 
ATOM      8  C   UNK d   0      24.260 -18.695  -0.521  0.00  0.00     0.002 A 
ATOM      9  C   UNK d   0      23.893 -17.828  -1.550  0.00  0.00     0.001 A 
ATOM     10  C   UNK d   0      24.516 -16.584  -1.703  0.00  0.00     0.014 A 
ATOM     11  C   UNK d   0      25.527 -16.204  -0.804  0.00  0.00    -0.001 A 
ATOM     12  C   UNK d   0      28.250 -14.407   0.948  0.00  0.00     0.173 C 
ATOM     13  C   UNK d   0      28.108 -14.052   2.393  0.00  0.00    -0.014 A 
ATOM     14  C   UNK d   0      28.155 -14.825   3.526  0.00  0.00     0.011 A 
ATOM     15  C   UNK d   0      28.014 -14.186   4.765  0.00  0.00     0.001 A 
ATOM     16  C   UNK d   0      27.871 -12.789   4.868  0.00  0.00     0.001 A 
ATOM     17  C   UNK d   0      27.814 -12.011   3.727  0.00  0.00     0.017 A 
ATOM     18  C   UNK d   0      27.893 -12.691   2.533  0.00  0.00     0.041 A 
ATOM     19  C   UNK d   0      27.757 -12.118   1.221  0.00  0.00     0.256 C 
ATOM     20  O   UNK d   0      27.469 -10.958   1.094  0.00  0.00    -0.267 OA
ATOM     21  N   UNK d   0      28.114 -13.121   0.304  0.00  0.00    -0.320 N 
ATOM     22  H   UNK d   0      27.341 -16.952   1.725  0.00  0.00     0.166 HD
ENDROOT
BRANCH   1  23
ATOM     23  C   UNK d   0      27.967 -11.560  -1.405  0.00  0.00     0.241 C 
ATOM     24  N   LEU d   1      26.792 -11.000  -2.030  0.00  0.00    -0.346 N 
ATOM     25  H   LEU d   1      26.178 -11.724  -2.353  0.00  0.00     0.163 HD
ATOM     26  O   UNK d   0      29.049 -11.051  -1.150  0.00  0.00    -0.271 OA
BRANCH  24  27
ATOM     27  CA  LEU d   1      26.725  -9.707  -2.817  0.00  0.00     0.177 C 
BRANCH  27  28
ATOM     28  C   LEU d   1      26.553  -8.691  -1.715  0.00  0.00     0.241 C 
ATOM     29  O   LEU d   1      25.967  -7.640  -1.995  0.00  0.00    -0.271 OA
ATOM     30  N   THR d   2      27.173  -8.751  -0.496  0.00  0.00    -0.343 N 
ATOM     31  H   THR d   2      27.935  -9.385  -0.321  0.00  0.00     0.163 HD
BRANCH  30  32
ATOM     32  CA  THR d   2      27.272  -7.358   0.049  0.00  0.00     0.214 C 
BRANCH  32  33
ATOM     33  C   THR d   2      28.824  -6.872   0.165  0.00  0.00     0.199 C 
ATOM     34  O   THR d   2      29.653  -7.831   0.018  0.00  0.00    -0.646 OA
ATOM     35  OXT THR d   2      29.093  -5.654   0.333  0.00  0.00    -0.646 OA
ENDBRANCH  32  33
BRANCH  32  36
ATOM     36  CB  THR d   2      26.148  -7.292   1.168  0.00  0.00     0.147 C 
ATOM     37  CG2 THR d   2      26.308  -8.197   2.346  0.00  0.00     0.042 C 
BRANCH  36  38
ATOM     38  OG1 THR d   2      24.780  -7.567   0.784  0.00  0.00    -0.393 OA
ATOM     39  HG1 THR d   2      24.853  -7.656  -0.206  0.00  0.00     0.210 HD
ENDBRANCH  36  38
ENDBRANCH  32  36
ENDBRANCH  30  32
ENDBRANCH  27  28
BRANCH  27  40
ATOM     40  CB  LEU d   1      25.532  -9.726  -3.835  0.00  0.00     0.038 C 
BRANCH  40  41
ATOM     41  CG  LEU d   1      25.787 -10.574  -5.113  0.00  0.00    -0.020 C 
ATOM     42  CD1 LEU d   1      27.044 -10.160  -5.861  0.00  0.00     0.009 C 
ATOM     43  CD2 LEU d   1      25.929 -12.065  -4.800  0.00  0.00     0.009 C 
ENDBRANCH  40  41
ENDBRANCH  27  40
ENDBRANCH  24  27
ENDBRANCH   1  23
TORSDOF 9
ENDMDL
MODEL 8
REMARK VINA RESULT:    -5.834      5.541      7.766
REMARK INTER + INTRA:         -13.728
REMARK INTER:                  -8.518
REMARK INTRA:                  -5.210
REMARK CONF_INDEPENDENT:        2.685
REMARK UNBOUND:                -5.210
REMARK  9 active torsions:
REMARK  status: ('A' for Active; 'I' for Inactive)
REMARK    1  A    between atoms: CG_2  and  CB_4 
REMARK    2  A    between atoms: CA_5  and  CB_4 
REMARK    3  A    between atoms: CA_5  and  C_30 
REMARK    4  A    between atoms: CA_5  and  N_6 
REMARK       I    between atoms: N_6  and  C_7 
REMARK    5  A    between atoms: C_9  and  C_7 
REMARK       I    between atoms: C_30  and  N_32 
REMARK    6  A    between atoms: N_32  and  CA_33 
REMARK    7  A    between atoms: CA_33  and  C_34 
REMARK    8  A    between atoms: CB_37  and  CA_33 
REMARK    9  A    between atoms: CB_37  and  OG1_39 
ROOT
ATOM      1  C   UNK d   0      26.274 -12.845  -3.764  0.00  0.00     0.185 C 
ATOM      2  C   UNK d   0      25.530 -11.924  -4.776  0.00  0.00     0.076 C 
ATOM      3  C   UNK d   0      26.551 -11.025  -5.454  0.00  0.00    -0.018 A 
ATOM      4  C   UNK d   0      27.905 -11.317  -5.436  0.00  0.00     0.045 A 
ATOM      5  N   UNK d   0      28.571 -10.346  -6.127  0.00  0.00    -0.356 N 
ATOM      6  C   UNK d   0      27.685  -9.412  -6.598  0.00  0.00     0.043 A 
ATOM      7  C   UNK d   0      27.926  -8.263  -7.359  0.00  0.00     0.030 A 
ATOM      8  C   UNK d   0      26.824  -7.473  -7.689  0.00  0.00     0.002 A 
ATOM      9  C   UNK d   0      25.541  -7.824  -7.271  0.00  0.00     0.001 A 
ATOM     10  C   UNK d   0      25.320  -8.983  -6.516  0.00  0.00     0.014 A 
ATOM     11  C   UNK d   0      26.409  -9.803  -6.175  0.00  0.00    -0.001 A 
ATOM     12  C   UNK d   0      28.568 -12.461  -4.768  0.00  0.00     0.173 C 
ATOM     13  C   UNK d   0      29.388 -13.322  -5.674  0.00  0.00    -0.014 A 
ATOM     14  C   UNK d   0      30.524 -13.055  -6.397  0.00  0.00     0.011 A 
ATOM     15  C   UNK d   0      31.087 -14.098  -7.144  0.00  0.00     0.001 A 
ATOM     16  C   UNK d   0      30.546 -15.397  -7.133  0.00  0.00     0.001 A 
ATOM     17  C   UNK d   0      29.397 -15.664  -6.412  0.00  0.00     0.017 A 
ATOM     18  C   UNK d   0      28.844 -14.595  -5.747  0.00  0.00     0.041 A 
ATOM     19  C   UNK d   0      27.605 -14.598  -5.017  0.00  0.00     0.256 C 
ATOM     20  O   UNK d   0      26.904 -15.575  -5.021  0.00  0.00    -0.267 OA
ATOM     21  N   UNK d   0      27.537 -13.373  -4.332  0.00  0.00    -0.320 N 
ATOM     22  H   UNK d   0      29.567 -10.316  -6.288  0.00  0.00     0.166 HD
ENDROOT
BRANCH   1  23
ATOM     23  C   UNK d   0      25.629 -14.127  -3.250  0.00  0.00     0.241 C 
ATOM     24  N   LEU d   1      26.209 -14.510  -1.984  0.00  0.00    -0.346 N 
ATOM     25  H   LEU d   1      27.049 -13.993  -1.803  0.00  0.00     0.163 HD
ATOM     26  O   UNK d   0      24.801 -14.696  -3.947  0.00  0.00    -0.271 OA
BRANCH  24  27
ATOM     27  CA  LEU d   1      26.160 -15.887  -1.355  0.00  0.00     0.177 C 
BRANCH  27  28
ATOM     28  C   LEU d   1      27.596 -16.331  -1.485  0.00  0.00     0.241 C 
ATOM     29  O   LEU d   1      28.299 -16.293  -0.469  0.00  0.00    -0.271 OA
ATOM     30  N   THR d   2      28.233 -16.571  -2.672  0.00  0.00    -0.343 N 
ATOM     31  H   THR d   2      27.836 -16.286  -3.552  0.00  0.00     0.163 HD
BRANCH  30  32
ATOM     32  CA  THR d   2      29.704 -16.375  -2.464  0.00  0.00     0.214 C 
BRANCH  32  33
ATOM     33  C   THR d   2      30.086 -14.794  -2.357  0.00  0.00     0.199 C 
ATOM     34  O   THR d   2      31.306 -14.561  -2.650  0.00  0.00    -0.646 OA
ATOM     35  OXT THR d   2      29.202 -13.950  -2.059  0.00  0.00    -0.646 OA
ENDBRANCH  32  33
BRANCH  32  36
ATOM     36  CB  THR d   2      30.383 -17.479  -3.382  0.00  0.00     0.147 C 
ATOM     37  CG2 THR d   2      31.130 -18.572  -2.690  0.00  0.00     0.042 C 
BRANCH  36  38
ATOM     38  OG1 THR d   2      31.354 -17.050  -4.365  0.00  0.00    -0.393 OA
ATOM     39  HG1 THR d   2      31.447 -16.080  -4.160  0.00  0.00     0.210 HD
ENDBRANCH  36  38
ENDBRANCH  32  36
ENDBRANCH  30  32
ENDBRANCH  27  28
BRANCH  27  40
ATOM     40  CB  LEU d   1      25.152 -16.820  -2.114  0.00  0.00     0.038 C 
BRANCH  40  41
ATOM     41  CG  LEU d   1      24.210 -17.640  -1.188  0.00  0.00    -0.020 C 
ATOM     42  CD1 LEU d   1      24.917 -18.200   0.035  0.00  0.00     0.009 C 
ATOM     43  CD2 LEU d   1      23.031 -16.808  -0.678  0.00  0.00     0.009 C 
ENDBRANCH  40  41
ENDBRANCH  27  40
ENDBRANCH  24  27
ENDBRANCH   1  23
TORSDOF 9
ENDMDL
MODEL 9
REMARK VINA RESULT:    -5.518      5.246      7.921
REMARK INTER + INTRA:         -13.306
REMARK INTER:                  -8.203
REMARK INTRA:                  -5.103
REMARK CONF_INDEPENDENT:        2.685
REMARK UNBOUND:                -5.103
REMARK  9 active torsions:
REMARK  status: ('A' for Active; 'I' for Inactive)
REMARK    1  A    between atoms: CG_2  and  CB_4 
REMARK    2  A    between atoms: CA_5  and  CB_4 
REMARK    3  A    between atoms: CA_5  and  C_30 
REMARK    4  A    between atoms: CA_5  and  N_6 
REMARK       I    between atoms: N_6  and  C_7 
REMARK    5  A    between atoms: C_9  and  C_7 
REMARK       I    between atoms: C_30  and  N_32 
REMARK    6  A    between atoms: N_32  and  CA_33 
REMARK    7  A    between atoms: CA_33  and  C_34 
REMARK    8  A    between atoms: CB_37  and  CA_33 
REMARK    9  A    between atoms: CB_37  and  OG1_39 
ROOT
ATOM      1  C   UNK d   0      25.460 -14.045  -3.968  0.00  0.00     0.185 C 
ATOM      2  C   UNK d   0      24.413 -14.301  -2.843  0.00  0.00     0.076 C 
ATOM      3  C   UNK d   0      24.729 -15.633  -2.183  0.00  0.00    -0.018 A 
ATOM      4  C   UNK d   0      25.967 -16.240  -2.319  0.00  0.00     0.045 A 
ATOM      5  N   UNK d   0      25.961 -17.408  -1.614  0.00  0.00    -0.356 N 
ATOM      6  C   UNK d   0      24.741 -17.592  -1.016  0.00  0.00     0.043 A 
ATOM      7  C   UNK d   0      24.300 -18.637  -0.198  0.00  0.00     0.030 A 
ATOM      8  C   UNK d   0      22.986 -18.575   0.265  0.00  0.00     0.002 A 
ATOM      9  C   UNK d   0      22.155 -17.510  -0.080  0.00  0.00     0.001 A 
ATOM     10  C   UNK d   0      22.618 -16.469  -0.895  0.00  0.00     0.014 A 
ATOM     11  C   UNK d   0      23.940 -16.500  -1.370  0.00  0.00    -0.001 A 
ATOM     12  C   UNK d   0      27.121 -15.756  -3.112  0.00  0.00     0.173 C 
ATOM     13  C   UNK d   0      28.382 -15.577  -2.329  0.00  0.00    -0.014 A 
ATOM     14  C   UNK d   0      29.180 -16.482  -1.675  0.00  0.00     0.011 A 
ATOM     15  C   UNK d   0      30.336 -16.004  -1.045  0.00  0.00     0.001 A 
ATOM     16  C   UNK d   0      30.709 -14.647  -1.105  0.00  0.00     0.001 A 
ATOM     17  C   UNK d   0      29.901 -13.734  -1.756  0.00  0.00     0.017 A 
ATOM     18  C   UNK d   0      28.745 -14.240  -2.304  0.00  0.00     0.041 A 
ATOM     19  C   UNK d   0      27.704 -13.478  -2.940  0.00  0.00     0.256 C 
ATOM     20  O   UNK d   0      27.755 -12.277  -2.952  0.00  0.00    -0.267 OA
ATOM     21  N   UNK d   0      26.830 -14.405  -3.532  0.00  0.00    -0.320 N 
ATOM     22  H   UNK d   0      26.739 -18.046  -1.525  0.00  0.00     0.166 HD
ENDROOT
BRANCH   1  23
ATOM     23  C   UNK d   0      25.691 -12.643  -4.521  0.00  0.00     0.241 C 
ATOM     24  N   LEU d   1      26.412 -12.706  -5.770  0.00  0.00    -0.346 N 
ATOM     25  H   LEU d   1      26.799 -13.620  -5.915  0.00  0.00     0.163 HD
ATOM     26  O   UNK d   0      25.332 -11.678  -3.859  0.00  0.00    -0.271 OA
BRANCH  24  27
ATOM     27  CA  LEU d   1      27.184 -11.576  -6.418  0.00  0.00     0.177 C 
BRANCH  27  28
ATOM     28  C   LEU d   1      28.539 -12.209  -6.615  0.00  0.00     0.241 C 
ATOM     29  O   LEU d   1      28.847 -12.553  -7.761  0.00  0.00    -0.271 OA
ATOM     30  N   THR d   2      29.362 -12.620  -5.602  0.00  0.00    -0.343 N 
ATOM     31  H   THR d   2      29.035 -12.696  -4.652  0.00  0.00     0.163 HD
BRANCH  30  32
ATOM     32  CA  THR d   2      30.255 -13.702  -6.131  0.00  0.00     0.214 C 
BRANCH  32  33
ATOM     33  C   THR d   2      29.498 -15.146  -6.144  0.00  0.00     0.199 C 
ATOM     34  O   THR d   2      30.310 -16.129  -6.103  0.00  0.00    -0.646 OA
ATOM     35  OXT THR d   2      28.240 -15.200  -6.146  0.00  0.00    -0.646 OA
ENDBRANCH  32  33
BRANCH  32  36
ATOM     36  CB  THR d   2      31.685 -13.361  -5.532  0.00  0.00     0.147 C 
ATOM     37  CG2 THR d   2      32.730 -12.896  -6.494  0.00  0.00     0.042 C 
BRANCH  36  38
ATOM     38  OG1 THR d   2      32.397 -14.400  -4.821  0.00  0.00    -0.393 OA
ATOM     39  HG1 THR d   2      31.849 -15.207  -5.023  0.00  0.00     0.210 HD
ENDBRANCH  36  38
ENDBRANCH  32  36
ENDBRANCH  30  32
ENDBRANCH  27  28
BRANCH  27  40
ATOM     40  CB  LEU d   1      27.221 -10.311  -5.490  0.00  0.00     0.038 C 
BRANCH  40  41
ATOM     41  CG  LEU d   1      25.944  -9.426  -5.555  0.00  0.00    -0.020 C 
ATOM     42  CD1 LEU d   1      25.714  -8.619  -4.287  0.00  0.00     0.009 C 
ATOM     43  CD2 LEU d   1      25.989  -8.428  -6.714  0.00  0.00     0.009 C 
ENDBRANCH  40  41
ENDBRANCH  27  40
ENDBRANCH  24  27
ENDBRANCH   1  23
TORSDOF 9
ENDMDL
