MODEL 1
REMARK VINA RESULT:   -10.570      0.000      0.000
REMARK INTER + INTRA:         -13.891
REMARK INTER:                 -12.062
REMARK INTRA:                  -1.829
REMARK CONF_INDEPENDENT:        1.492
REMARK UNBOUND:                -1.829
REMARK  5 active torsions:
REMARK  status: ('A' for Active; 'I' for Inactive)
REMARK    1  A    between atoms: C_6  and  N_7 
REMARK       I    between atoms: N_7  and  C_8 
REMARK       I    between atoms: C_8  and  N_10 
REMARK    2  A    between atoms: N_10  and  C_11 
REMARK    3  A    between atoms: C_13  and  N_14 
REMARK       I    between atoms: N_14  and  C_15 
REMARK    4  A    between atoms: C_15  and  C_17 
REMARK    5  A    between atoms: C_26  and  N_27 
ROOT
ATOM      1  C   UNL d   1      24.836 -15.658  -1.599  0.00  0.00     0.065 A 
ATOM      2  C   UNL d   1      23.574 -16.268  -1.306  0.00  0.00     0.061 A 
ATOM      3  C   UNL d   1      23.490 -17.387  -0.444  0.00  0.00     0.037 A 
ATOM      4  C   UNL d   1      24.685 -17.947  -0.006  0.00  0.00     0.032 A 
ATOM      5  C   UNL d   1      25.913 -17.363  -0.286  0.00  0.00     0.034 A 
ATOM      6  C   UNL d   1      26.034 -16.204  -1.055  0.00  0.00     0.057 A 
ENDROOT
BRANCH   1   7
ATOM      7  N   UNL d   1      24.891 -14.484  -2.436  0.00  0.00    -0.306 N 
ATOM      8  C   UNL d   1      25.565 -14.549  -3.652  0.00  0.00     0.325 C 
ATOM      9  N   UNL d   1      25.825 -13.322  -4.262  0.00  0.00    -0.308 N 
ATOM     10  O   UNL d   1      25.920 -15.631  -4.125  0.00  0.00    -0.247 OA
ATOM     11  H   UNL d   1      25.351 -12.513  -3.892  0.00  0.00     0.170 HD
ATOM     12  H   UNL d   1      24.171 -13.788  -2.319  0.00  0.00     0.170 HD
BRANCH   9  13
ATOM     13  C   UNL d   1      26.721 -13.136  -5.386  0.00  0.00     0.042 A 
ATOM     14  C   UNL d   1      27.610 -14.163  -5.769  0.00  0.00     0.030 A 
ATOM     15  C   UNL d   1      28.541 -14.043  -6.795  0.00  0.00     0.003 A 
ATOM     16  C   UNL d   1      28.594 -12.874  -7.518  0.00  0.00     0.007 A 
ATOM     17  C   UNL d   1      27.737 -11.812  -7.191  0.00  0.00    -0.054 A 
ATOM     18  C   UNL d   1      27.844 -10.571  -8.039  0.00  0.00     0.049 C 
ATOM     19  C   UNL d   1      26.799 -11.925  -6.110  0.00  0.00    -0.029 A 
ATOM     20  C   UNL d   1      25.902 -10.748  -5.826  0.00  0.00     0.051 C 
ENDBRANCH   9  13
ENDBRANCH   1   7
BRANCH   6  21
ATOM     21  N   UNL d   1      27.312 -15.690  -1.156  0.00  0.00    -0.379 N 
ATOM     22  C   UNL d   1      27.708 -14.334  -0.836  0.00  0.00     0.123 C 
ATOM     23  C   UNL d   1      28.633 -13.943  -1.970  0.00  0.00     0.021 C 
ATOM     24  C   UNL d   1      29.282 -15.245  -2.408  0.00  0.00     0.021 C 
ATOM     25  C   UNL d   1      28.275 -16.342  -2.049  0.00  0.00     0.123 C 
ENDBRANCH   6  21
BRANCH   3  26
ATOM     26  N   UNL d   1      22.236 -17.905   0.026  0.00  0.00    -0.323 N 
ATOM     27  C   UNL d   1      21.474 -18.855  -0.667  0.00  0.00     0.256 C 
ATOM     28  O   UNL d   1      21.708 -19.324  -1.784  0.00  0.00    -0.267 OA
ATOM     29  H   UNL d   1      21.979 -17.696   0.983  0.00  0.00     0.169 HD
BRANCH  27  30
ATOM     30  C   UNL d   1      20.249 -19.404  -0.042  0.00  0.00     0.032 A 
ATOM     31  C   UNL d   1      20.290 -19.713   1.335  0.00  0.00     0.020 A 
ATOM     32  C   UNL d   1      19.266 -20.452   1.928  0.00  0.00     0.043 A 
ATOM     33  C   UNL d   1      18.174 -20.822   1.157  0.00  0.00     0.116 A 
ATOM     34  F   UNL d   1      17.160 -21.484   1.730  0.00  0.00    -0.206 F 
ATOM     35  C   UNL d   1      18.115 -20.515  -0.202  0.00  0.00     0.043 A 
ATOM     36  C   UNL d   1      19.160 -19.812  -0.812  0.00  0.00     0.020 A 
ENDBRANCH  27  30
ENDBRANCH   3  26
TORSDOF 5
ENDMDL
MODEL 2
REMARK VINA RESULT:   -10.535      0.870      1.714
REMARK INTER + INTRA:         -13.632
REMARK INTER:                 -12.026
REMARK INTRA:                  -1.606
REMARK CONF_INDEPENDENT:        1.492
REMARK UNBOUND:                -1.606
REMARK  5 active torsions:
REMARK  status: ('A' for Active; 'I' for Inactive)
REMARK    1  A    between atoms: C_6  and  N_7 
REMARK       I    between atoms: N_7  and  C_8 
REMARK       I    between atoms: C_8  and  N_10 
REMARK    2  A    between atoms: N_10  and  C_11 
REMARK    3  A    between atoms: C_13  and  N_14 
REMARK       I    between atoms: N_14  and  C_15 
REMARK    4  A    between atoms: C_15  and  C_17 
REMARK    5  A    between atoms: C_26  and  N_27 
ROOT
ATOM      1  C   UNL d   1      25.362 -15.607  -1.299  0.00  0.00     0.065 A 
ATOM      2  C   UNL d   1      24.047 -16.109  -1.030  0.00  0.00     0.061 A 
ATOM      3  C   UNL d   1      23.859 -17.397  -0.475  0.00  0.00     0.037 A 
ATOM      4  C   UNL d   1      24.985 -18.200  -0.330  0.00  0.00     0.032 A 
ATOM      5  C   UNL d   1      26.263 -17.722  -0.589  0.00  0.00     0.034 A 
ATOM      6  C   UNL d   1      26.500 -16.426  -1.049  0.00  0.00     0.057 A 
ENDROOT
BRANCH   1   7
ATOM      7  N   UNL d   1      25.531 -14.270  -1.813  0.00  0.00    -0.306 N 
ATOM      8  C   UNL d   1      25.705 -14.086  -3.181  0.00  0.00     0.325 C 
ATOM      9  N   UNL d   1      26.147 -12.821  -3.566  0.00  0.00    -0.308 N 
ATOM     10  O   UNL d   1      25.499 -15.005  -3.978  0.00  0.00    -0.247 OA
ATOM     11  H   UNL d   1      26.123 -12.091  -2.871  0.00  0.00     0.170 HD
ATOM     12  H   UNL d   1      25.167 -13.506  -1.265  0.00  0.00     0.170 HD
BRANCH   9  13
ATOM     13  C   UNL d   1      26.632 -12.487  -4.891  0.00  0.00     0.042 A 
ATOM     14  C   UNL d   1      26.054 -11.424  -5.617  0.00  0.00     0.030 A 
ATOM     15  C   UNL d   1      26.419 -11.079  -6.913  0.00  0.00     0.003 A 
ATOM     16  C   UNL d   1      27.426 -11.779  -7.535  0.00  0.00     0.007 A 
ATOM     17  C   UNL d   1      28.045 -12.849  -6.870  0.00  0.00    -0.054 A 
ATOM     18  C   UNL d   1      29.150 -13.557  -7.611  0.00  0.00     0.049 C 
ATOM     19  C   UNL d   1      27.645 -13.226  -5.544  0.00  0.00    -0.029 A 
ATOM     20  C   UNL d   1      28.364 -14.376  -4.889  0.00  0.00     0.051 C 
ENDBRANCH   9  13
ENDBRANCH   1   7
BRANCH   6  21
ATOM     21  N   UNL d   1      27.830 -16.070  -1.159  0.00  0.00    -0.379 N 
ATOM     22  C   UNL d   1      28.794 -16.661  -2.065  0.00  0.00     0.123 C 
ATOM     23  C   UNL d   1      30.036 -16.836  -1.217  0.00  0.00     0.021 C 
ATOM     24  C   UNL d   1      29.973 -15.711  -0.199  0.00  0.00     0.021 C 
ATOM     25  C   UNL d   1      28.484 -15.395  -0.033  0.00  0.00     0.123 C 
ENDBRANCH   6  21
BRANCH   3  26
ATOM     26  N   UNL d   1      22.580 -17.859  -0.015  0.00  0.00    -0.323 N 
ATOM     27  C   UNL d   1      21.802 -18.809  -0.690  0.00  0.00     0.256 C 
ATOM     28  O   UNL d   1      22.045 -19.325  -1.784  0.00  0.00    -0.267 OA
ATOM     29  H   UNL d   1      22.311 -17.607   0.928  0.00  0.00     0.169 HD
BRANCH  27  30
ATOM     30  C   UNL d   1      20.548 -19.296  -0.072  0.00  0.00     0.032 A 
ATOM     31  C   UNL d   1      20.536 -19.505   1.324  0.00  0.00     0.020 A 
ATOM     32  C   UNL d   1      19.481 -20.186   1.930  0.00  0.00     0.043 A 
ATOM     33  C   UNL d   1      18.411 -20.598   1.149  0.00  0.00     0.116 A 
ATOM     34  F   UNL d   1      17.368 -21.204   1.730  0.00  0.00    -0.206 F 
ATOM     35  C   UNL d   1      18.405 -20.389  -0.230  0.00  0.00     0.043 A 
ATOM     36  C   UNL d   1      19.481 -19.746  -0.850  0.00  0.00     0.020 A 
ENDBRANCH  27  30
ENDBRANCH   3  26
TORSDOF 5
ENDMDL
MODEL 3
REMARK VINA RESULT:    -9.995      2.872      5.578
REMARK INTER + INTRA:         -12.923
REMARK INTER:                 -11.487
REMARK INTRA:                  -1.436
REMARK CONF_INDEPENDENT:        1.492
REMARK UNBOUND:                -1.436
REMARK  5 active torsions:
REMARK  status: ('A' for Active; 'I' for Inactive)
REMARK    1  A    between atoms: C_6  and  N_7 
REMARK       I    between atoms: N_7  and  C_8 
REMARK       I    between atoms: C_8  and  N_10 
REMARK    2  A    between atoms: N_10  and  C_11 
REMARK    3  A    between atoms: C_13  and  N_14 
REMARK       I    between atoms: N_14  and  C_15 
REMARK    4  A    between atoms: C_15  and  C_17 
REMARK    5  A    between atoms: C_26  and  N_27 
ROOT
ATOM      1  C   UNL d   1      26.330 -16.813  -0.319  0.00  0.00     0.065 A 
ATOM      2  C   UNL d   1      25.185 -17.458   0.251  0.00  0.00     0.061 A 
ATOM      3  C   UNL d   1      24.054 -17.767  -0.542  0.00  0.00     0.037 A 
ATOM      4  C   UNL d   1      24.046 -17.299  -1.851  0.00  0.00     0.032 A 
ATOM      5  C   UNL d   1      25.151 -16.672  -2.412  0.00  0.00     0.034 A 
ATOM      6  C   UNL d   1      26.322 -16.432  -1.691  0.00  0.00     0.057 A 
ENDROOT
BRANCH   1   7
ATOM      7  N   UNL d   1      27.493 -16.559   0.496  0.00  0.00    -0.306 N 
ATOM      8  C   UNL d   1      27.613 -15.333   1.144  0.00  0.00     0.325 C 
ATOM      9  N   UNL d   1      28.874 -15.050   1.666  0.00  0.00    -0.308 N 
ATOM     10  O   UNL d   1      26.657 -14.556   1.216  0.00  0.00    -0.247 OA
ATOM     11  H   UNL d   1      29.537 -15.808   1.710  0.00  0.00     0.170 HD
ATOM     12  H   UNL d   1      27.989 -17.353   0.869  0.00  0.00     0.170 HD
BRANCH   9  13
ATOM     13  C   UNL d   1      29.290 -13.748   2.150  0.00  0.00     0.042 A 
ATOM     14  C   UNL d   1      30.292 -13.020   1.472  0.00  0.00     0.030 A 
ATOM     15  C   UNL d   1      30.789 -11.796   1.903  0.00  0.00     0.003 A 
ATOM     16  C   UNL d   1      30.265 -11.222   3.037  0.00  0.00     0.007 A 
ATOM     17  C   UNL d   1      29.266 -11.891   3.761  0.00  0.00    -0.054 A 
ATOM     18  C   UNL d   1      28.732 -11.190   4.983  0.00  0.00     0.049 C 
ATOM     19  C   UNL d   1      28.776 -13.171   3.333  0.00  0.00    -0.029 A 
ATOM     20  C   UNL d   1      27.693 -13.823   4.152  0.00  0.00     0.051 C 
ENDBRANCH   9  13
ENDBRANCH   1   7
BRANCH   6  21
ATOM     21  N   UNL d   1      27.365 -15.893  -2.419  0.00  0.00    -0.379 N 
ATOM     22  C   UNL d   1      27.236 -15.041  -3.583  0.00  0.00     0.123 C 
ATOM     23  C   UNL d   1      28.274 -15.575  -4.547  0.00  0.00     0.021 C 
ATOM     24  C   UNL d   1      29.375 -16.133  -3.662  0.00  0.00     0.021 C 
ATOM     25  C   UNL d   1      28.684 -16.531  -2.355  0.00  0.00     0.123 C 
ENDBRANCH   6  21
BRANCH   3  26
ATOM     26  N   UNL d   1      22.973 -18.579  -0.059  0.00  0.00    -0.323 N 
ATOM     27  C   UNL d   1      21.628 -18.366  -0.386  0.00  0.00     0.256 C 
ATOM     28  O   UNL d   1      21.164 -17.437  -1.053  0.00  0.00    -0.267 OA
ATOM     29  H   UNL d   1      23.219 -19.447   0.403  0.00  0.00     0.169 HD
BRANCH  27  30
ATOM     30  C   UNL d   1      20.603 -19.329   0.077  0.00  0.00     0.032 A 
ATOM     31  C   UNL d   1      19.586 -19.701  -0.829  0.00  0.00     0.020 A 
ATOM     32  C   UNL d   1      18.465 -20.403  -0.388  0.00  0.00     0.043 A 
ATOM     33  C   UNL d   1      18.396 -20.789   0.943  0.00  0.00     0.116 A 
ATOM     34  F   UNL d   1      17.350 -21.512   1.364  0.00  0.00    -0.206 F 
ATOM     35  C   UNL d   1      19.398 -20.438   1.847  0.00  0.00     0.043 A 
ATOM     36  C   UNL d   1      20.504 -19.695   1.420  0.00  0.00     0.020 A 
ENDBRANCH  27  30
ENDBRANCH   3  26
TORSDOF 5
ENDMDL
MODEL 4
REMARK VINA RESULT:    -9.560      1.773      2.485
REMARK INTER + INTRA:         -12.385
REMARK INTER:                 -11.052
REMARK INTRA:                  -1.333
REMARK CONF_INDEPENDENT:        1.492
REMARK UNBOUND:                -1.333
REMARK  5 active torsions:
REMARK  status: ('A' for Active; 'I' for Inactive)
REMARK    1  A    between atoms: C_6  and  N_7 
REMARK       I    between atoms: N_7  and  C_8 
REMARK       I    between atoms: C_8  and  N_10 
REMARK    2  A    between atoms: N_10  and  C_11 
REMARK    3  A    between atoms: C_13  and  N_14 
REMARK       I    between atoms: N_14  and  C_15 
REMARK    4  A    between atoms: C_15  and  C_17 
REMARK    5  A    between atoms: C_26  and  N_27 
ROOT
ATOM      1  C   UNL d   1      25.764 -16.384  -1.743  0.00  0.00     0.065 A 
ATOM      2  C   UNL d   1      24.461 -16.898  -1.441  0.00  0.00     0.061 A 
ATOM      3  C   UNL d   1      24.255 -17.751  -0.331  0.00  0.00     0.037 A 
ATOM      4  C   UNL d   1      25.381 -18.174   0.366  0.00  0.00     0.032 A 
ATOM      5  C   UNL d   1      26.647 -17.681   0.081  0.00  0.00     0.034 A 
ATOM      6  C   UNL d   1      26.881 -16.766  -0.947  0.00  0.00     0.057 A 
ENDROOT
BRANCH   1   7
ATOM      7  N   UNL d   1      25.939 -15.471  -2.846  0.00  0.00    -0.306 N 
ATOM      8  C   UNL d   1      26.316 -14.157  -2.586  0.00  0.00     0.325 C 
ATOM      9  N   UNL d   1      26.185 -13.271  -3.654  0.00  0.00    -0.308 N 
ATOM     10  O   UNL d   1      26.713 -13.819  -1.468  0.00  0.00    -0.247 OA
ATOM     11  H   UNL d   1      26.019 -13.667  -4.565  0.00  0.00     0.170 HD
ATOM     12  H   UNL d   1      26.145 -15.861  -3.752  0.00  0.00     0.170 HD
BRANCH   9  13
ATOM     13  C   UNL d   1      26.275 -11.828  -3.541  0.00  0.00     0.042 A 
ATOM     14  C   UNL d   1      26.655 -11.228  -2.322  0.00  0.00     0.030 A 
ATOM     15  C   UNL d   1      26.707  -9.855  -2.114  0.00  0.00     0.003 A 
ATOM     16  C   UNL d   1      26.408  -9.008  -3.155  0.00  0.00     0.007 A 
ATOM     17  C   UNL d   1      26.023  -9.537  -4.397  0.00  0.00    -0.054 A 
ATOM     18  C   UNL d   1      25.726  -8.545  -5.492  0.00  0.00     0.049 C 
ATOM     19  C   UNL d   1      25.937 -10.955  -4.601  0.00  0.00    -0.029 A 
ATOM     20  C   UNL d   1      25.530 -11.450  -5.964  0.00  0.00     0.051 C 
ENDBRANCH   9  13
ENDBRANCH   1   7
BRANCH   6  21
ATOM     21  N   UNL d   1      28.176 -16.294  -1.037  0.00  0.00    -0.379 N 
ATOM     22  C   UNL d   1      29.197 -16.788  -1.937  0.00  0.00     0.123 C 
ATOM     23  C   UNL d   1      30.441 -16.865  -1.076  0.00  0.00     0.021 C 
ATOM     24  C   UNL d   1      30.269 -15.761  -0.047  0.00  0.00     0.021 C 
ATOM     25  C   UNL d   1      28.756 -15.578   0.104  0.00  0.00     0.123 C 
ENDBRANCH   6  21
BRANCH   3  26
ATOM     26  N   UNL d   1      22.944 -18.130   0.116  0.00  0.00    -0.323 N 
ATOM     27  C   UNL d   1      22.003 -18.787  -0.688  0.00  0.00     0.256 C 
ATOM     28  O   UNL d   1      22.115 -19.066  -1.885  0.00  0.00    -0.267 OA
ATOM     29  H   UNL d   1      22.760 -18.068   1.110  0.00  0.00     0.169 HD
BRANCH  27  30
ATOM     30  C   UNL d   1      20.721 -19.231  -0.095  0.00  0.00     0.032 A 
ATOM     31  C   UNL d   1      20.655 -19.375   1.307  0.00  0.00     0.020 A 
ATOM     32  C   UNL d   1      19.570 -20.016   1.905  0.00  0.00     0.043 A 
ATOM     33  C   UNL d   1      18.524 -20.450   1.104  0.00  0.00     0.116 A 
ATOM     34  F   UNL d   1      17.452 -21.017   1.673  0.00  0.00    -0.206 F 
ATOM     35  C   UNL d   1      18.570 -20.304  -0.283  0.00  0.00     0.043 A 
ATOM     36  C   UNL d   1      19.677 -19.702  -0.891  0.00  0.00     0.020 A 
ENDBRANCH  27  30
ENDBRANCH   3  26
TORSDOF 5
ENDMDL
MODEL 5
REMARK VINA RESULT:    -9.379      2.485      4.925
REMARK INTER + INTRA:         -12.530
REMARK INTER:                 -10.871
REMARK INTRA:                  -1.660
REMARK CONF_INDEPENDENT:        1.492
REMARK UNBOUND:                -1.660
REMARK  5 active torsions:
REMARK  status: ('A' for Active; 'I' for Inactive)
REMARK    1  A    between atoms: C_6  and  N_7 
REMARK       I    between atoms: N_7  and  C_8 
REMARK       I    between atoms: C_8  and  N_10 
REMARK    2  A    between atoms: N_10  and  C_11 
REMARK    3  A    between atoms: C_13  and  N_14 
REMARK       I    between atoms: N_14  and  C_15 
REMARK    4  A    between atoms: C_15  and  C_17 
REMARK    5  A    between atoms: C_26  and  N_27 
ROOT
ATOM      1  C   UNL d   1      26.381 -16.866  -0.460  0.00  0.00     0.065 A 
ATOM      2  C   UNL d   1      25.292 -17.535   0.187  0.00  0.00     0.061 A 
ATOM      3  C   UNL d   1      24.028 -17.641  -0.440  0.00  0.00     0.037 A 
ATOM      4  C   UNL d   1      23.850 -16.958  -1.637  0.00  0.00     0.032 A 
ATOM      5  C   UNL d   1      24.899 -16.306  -2.271  0.00  0.00     0.034 A 
ATOM      6  C   UNL d   1      26.186 -16.257  -1.732  0.00  0.00     0.057 A 
ENDROOT
BRANCH   1   7
ATOM      7  N   UNL d   1      27.676 -16.819   0.175  0.00  0.00    -0.306 N 
ATOM      8  C   UNL d   1      28.140 -15.609   0.681  0.00  0.00     0.325 C 
ATOM      9  N   UNL d   1      29.494 -15.575   1.011  0.00  0.00    -0.308 N 
ATOM     10  O   UNL d   1      27.387 -14.638   0.797  0.00  0.00    -0.247 OA
ATOM     11  H   UNL d   1      29.984 -16.455   1.044  0.00  0.00     0.170 HD
ATOM     12  H   UNL d   1      28.044 -17.676   0.558  0.00  0.00     0.170 HD
BRANCH   9  13
ATOM     13  C   UNL d   1      30.237 -14.366   1.311  0.00  0.00     0.042 A 
ATOM     14  C   UNL d   1      30.588 -14.054   2.642  0.00  0.00     0.030 A 
ATOM     15  C   UNL d   1      31.246 -12.889   3.019  0.00  0.00     0.003 A 
ATOM     16  C   UNL d   1      31.617 -11.986   2.052  0.00  0.00     0.007 A 
ATOM     17  C   UNL d   1      31.300 -12.233   0.707  0.00  0.00    -0.054 A 
ATOM     18  C   UNL d   1      31.756 -11.204  -0.296  0.00  0.00     0.049 C 
ATOM     19  C   UNL d   1      30.592 -13.421   0.321  0.00  0.00    -0.029 A 
ATOM     20  C   UNL d   1      30.299 -13.626  -1.142  0.00  0.00     0.051 C 
ENDBRANCH   9  13
ENDBRANCH   1   7
BRANCH   6  21
ATOM     21  N   UNL d   1      27.142 -15.660  -2.532  0.00  0.00    -0.379 N 
ATOM     22  C   UNL d   1      26.885 -14.704  -3.589  0.00  0.00     0.123 C 
ATOM     23  C   UNL d   1      27.786 -15.153  -4.720  0.00  0.00     0.021 C 
ATOM     24  C   UNL d   1      28.978 -15.798  -4.033  0.00  0.00     0.021 C 
ATOM     25  C   UNL d   1      28.446 -16.310  -2.691  0.00  0.00     0.123 C 
ENDBRANCH   6  21
BRANCH   3  26
ATOM     26  N   UNL d   1      22.974 -18.464   0.085  0.00  0.00    -0.323 N 
ATOM     27  C   UNL d   1      21.624 -18.322  -0.262  0.00  0.00     0.256 C 
ATOM     28  O   UNL d   1      21.132 -17.452  -0.986  0.00  0.00    -0.267 OA
ATOM     29  H   UNL d   1      23.248 -19.292   0.599  0.00  0.00     0.169 HD
BRANCH  27  30
ATOM     30  C   UNL d   1      20.633 -19.293   0.253  0.00  0.00     0.032 A 
ATOM     31  C   UNL d   1      19.620 -19.734  -0.626  0.00  0.00     0.020 A 
ATOM     32  C   UNL d   1      18.524 -20.449  -0.145  0.00  0.00     0.043 A 
ATOM     33  C   UNL d   1      18.477 -20.778   1.202  0.00  0.00     0.116 A 
ATOM     34  F   UNL d   1      17.457 -21.512   1.664  0.00  0.00    -0.206 F 
ATOM     35  C   UNL d   1      19.476 -20.358   2.081  0.00  0.00     0.043 A 
ATOM     36  C   UNL d   1      20.556 -19.603   1.611  0.00  0.00     0.020 A 
ENDBRANCH  27  30
ENDBRANCH   3  26
TORSDOF 5
ENDMDL
MODEL 6
REMARK VINA RESULT:    -9.194      4.814     10.185
REMARK INTER + INTRA:         -12.075
REMARK INTER:                 -10.686
REMARK INTRA:                  -1.389
REMARK CONF_INDEPENDENT:        1.492
REMARK UNBOUND:                -1.389
REMARK  5 active torsions:
REMARK  status: ('A' for Active; 'I' for Inactive)
REMARK    1  A    between atoms: C_6  and  N_7 
REMARK       I    between atoms: N_7  and  C_8 
REMARK       I    between atoms: C_8  and  N_10 
REMARK    2  A    between atoms: N_10  and  C_11 
REMARK    3  A    between atoms: C_13  and  N_14 
REMARK       I    between atoms: N_14  and  C_15 
REMARK    4  A    between atoms: C_15  and  C_17 
REMARK    5  A    between atoms: C_26  and  N_27 
ROOT
ATOM      1  C   UNL d   1      26.825 -15.584  -1.125  0.00  0.00     0.065 A 
ATOM      2  C   UNL d   1      27.516 -14.825  -2.125  0.00  0.00     0.061 A 
ATOM      3  C   UNL d   1      26.978 -14.674  -3.425  0.00  0.00     0.037 A 
ATOM      4  C   UNL d   1      25.831 -15.398  -3.729  0.00  0.00     0.032 A 
ATOM      5  C   UNL d   1      25.155 -16.137  -2.767  0.00  0.00     0.034 A 
ATOM      6  C   UNL d   1      25.601 -16.236  -1.448  0.00  0.00     0.057 A 
ENDROOT
BRANCH   1   7
ATOM      7  N   UNL d   1      27.365 -15.677   0.209  0.00  0.00    -0.306 N 
ATOM      8  C   UNL d   1      27.060 -14.684   1.135  0.00  0.00     0.325 C 
ATOM      9  N   UNL d   1      27.836 -14.682   2.293  0.00  0.00    -0.308 N 
ATOM     10  O   UNL d   1      26.173 -13.856   0.910  0.00  0.00    -0.247 OA
ATOM     11  H   UNL d   1      28.413 -15.490   2.464  0.00  0.00     0.170 HD
ATOM     12  H   UNL d   1      27.627 -16.589   0.549  0.00  0.00     0.170 HD
BRANCH   9  13
ATOM     13  C   UNL d   1      27.865 -13.604   3.262  0.00  0.00     0.042 A 
ATOM     14  C   UNL d   1      27.753 -12.261   2.841  0.00  0.00     0.030 A 
ATOM     15  C   UNL d   1      27.831 -11.169   3.698  0.00  0.00     0.003 A 
ATOM     16  C   UNL d   1      27.995 -11.386   5.046  0.00  0.00     0.007 A 
ATOM     17  C   UNL d   1      28.113 -12.696   5.533  0.00  0.00    -0.054 A 
ATOM     18  C   UNL d   1      28.274 -12.852   7.024  0.00  0.00     0.049 C 
ATOM     19  C   UNL d   1      28.065 -13.822   4.644  0.00  0.00    -0.029 A 
ATOM     20  C   UNL d   1      28.185 -15.200   5.241  0.00  0.00     0.051 C 
ENDBRANCH   9  13
ENDBRANCH   1   7
BRANCH   6  21
ATOM     21  N   UNL d   1      24.763 -16.921  -0.589  0.00  0.00    -0.379 N 
ATOM     22  C   UNL d   1      25.019 -18.228  -0.020  0.00  0.00     0.123 C 
ATOM     23  C   UNL d   1      23.693 -18.950  -0.145  0.00  0.00     0.021 C 
ATOM     24  C   UNL d   1      22.645 -17.854  -0.055  0.00  0.00     0.021 C 
ATOM     25  C   UNL d   1      23.335 -16.587  -0.567  0.00  0.00     0.123 C 
ENDBRANCH   6  21
BRANCH   3  26
ATOM     26  N   UNL d   1      27.538 -13.770  -4.390  0.00  0.00    -0.323 N 
ATOM     27  C   UNL d   1      27.761 -14.100  -5.733  0.00  0.00     0.256 C 
ATOM     28  O   UNL d   1      27.592 -15.200  -6.266  0.00  0.00    -0.267 OA
ATOM     29  H   UNL d   1      27.616 -12.797  -4.120  0.00  0.00     0.169 HD
BRANCH  27  30
ATOM     30  C   UNL d   1      28.241 -13.058  -6.670  0.00  0.00     0.032 A 
ATOM     31  C   UNL d   1      27.551 -11.827  -6.701  0.00  0.00     0.020 A 
ATOM     32  C   UNL d   1      27.792 -10.904  -7.718  0.00  0.00     0.043 A 
ATOM     33  C   UNL d   1      28.768 -11.186  -8.662  0.00  0.00     0.116 A 
ATOM     34  F   UNL d   1      29.046 -10.281  -9.610  0.00  0.00    -0.206 F 
ATOM     35  C   UNL d   1      29.466 -12.393  -8.637  0.00  0.00     0.043 A 
ATOM     36  C   UNL d   1      29.197 -13.342  -7.645  0.00  0.00     0.020 A 
ENDBRANCH  27  30
ENDBRANCH   3  26
TORSDOF 5
ENDMDL
MODEL 7
REMARK VINA RESULT:    -8.834      3.540      6.421
REMARK INTER + INTRA:         -11.943
REMARK INTER:                 -10.326
REMARK INTRA:                  -1.617
REMARK CONF_INDEPENDENT:        1.492
REMARK UNBOUND:                -1.617
REMARK  5 active torsions:
REMARK  status: ('A' for Active; 'I' for Inactive)
REMARK    1  A    between atoms: C_6  and  N_7 
REMARK       I    between atoms: N_7  and  C_8 
REMARK       I    between atoms: C_8  and  N_10 
REMARK    2  A    between atoms: N_10  and  C_11 
REMARK    3  A    between atoms: C_13  and  N_14 
REMARK       I    between atoms: N_14  and  C_15 
REMARK    4  A    between atoms: C_15  and  C_17 
REMARK    5  A    between atoms: C_26  and  N_27 
ROOT
ATOM      1  C   UNL d   1      26.891 -15.984  -0.337  0.00  0.00     0.065 A 
ATOM      2  C   UNL d   1      25.533 -16.391  -0.131  0.00  0.00     0.061 A 
ATOM      3  C   UNL d   1      24.633 -16.500  -1.217  0.00  0.00     0.037 A 
ATOM      4  C   UNL d   1      25.079 -16.067  -2.461  0.00  0.00     0.032 A 
ATOM      5  C   UNL d   1      26.394 -15.670  -2.670  0.00  0.00     0.034 A 
ATOM      6  C   UNL d   1      27.339 -15.638  -1.644  0.00  0.00     0.057 A 
ENDROOT
BRANCH   1   7
ATOM      7  N   UNL d   1      27.805 -15.935   0.778  0.00  0.00    -0.306 N 
ATOM      8  C   UNL d   1      27.710 -14.885   1.687  0.00  0.00     0.325 C 
ATOM      9  N   UNL d   1      28.791 -14.744   2.557  0.00  0.00    -0.308 N 
ATOM     10  O   UNL d   1      26.736 -14.129   1.686  0.00  0.00    -0.247 OA
ATOM     11  H   UNL d   1      29.453 -15.503   2.599  0.00  0.00     0.170 HD
ATOM     12  H   UNL d   1      28.225 -16.799   1.081  0.00  0.00     0.170 HD
BRANCH   9  13
ATOM     13  C   UNL d   1      29.021 -13.588   3.401  0.00  0.00     0.042 A 
ATOM     14  C   UNL d   1      29.580 -12.409   2.863  0.00  0.00     0.030 A 
ATOM     15  C   UNL d   1      29.887 -11.281   3.615  0.00  0.00     0.003 A 
ATOM     16  C   UNL d   1      29.607 -11.276   4.961  0.00  0.00     0.007 A 
ATOM     17  C   UNL d   1      29.049 -12.416   5.562  0.00  0.00    -0.054 A 
ATOM     18  C   UNL d   1      28.756 -12.327   7.038  0.00  0.00     0.049 C 
ATOM     19  C   UNL d   1      28.763 -13.592   4.791  0.00  0.00    -0.029 A 
ATOM     20  C   UNL d   1      28.152 -14.771   5.502  0.00  0.00     0.051 C 
ENDBRANCH   9  13
ENDBRANCH   1   7
BRANCH   6  21
ATOM     21  N   UNL d   1      28.626 -15.320  -2.033  0.00  0.00    -0.379 N 
ATOM     22  C   UNL d   1      29.625 -16.257  -2.502  0.00  0.00     0.123 C 
ATOM     23  C   UNL d   1      30.895 -15.824  -1.799  0.00  0.00     0.021 C 
ATOM     24  C   UNL d   1      30.741 -14.325  -1.608  0.00  0.00     0.021 C 
ATOM     25  C   UNL d   1      29.231 -14.076  -1.548  0.00  0.00     0.123 C 
ENDBRANCH   6  21
BRANCH   3  26
ATOM     26  N   UNL d   1      23.329 -17.085  -1.082  0.00  0.00    -0.323 N 
ATOM     27  C   UNL d   1      23.064 -18.240  -0.334  0.00  0.00     0.256 C 
ATOM     28  O   UNL d   1      23.887 -18.957   0.242  0.00  0.00    -0.267 OA
ATOM     29  H   UNL d   1      22.542 -16.537  -1.406  0.00  0.00     0.169 HD
BRANCH  27  30
ATOM     30  C   UNL d   1      21.665 -18.697  -0.171  0.00  0.00     0.032 A 
ATOM     31  C   UNL d   1      21.201 -18.950   1.138  0.00  0.00     0.020 A 
ATOM     32  C   UNL d   1      19.989 -19.609   1.346  0.00  0.00     0.043 A 
ATOM     33  C   UNL d   1      19.216 -19.953   0.248  0.00  0.00     0.116 A 
ATOM     34  F   UNL d   1      18.025 -20.536   0.439  0.00  0.00    -0.206 F 
ATOM     35  C   UNL d   1      19.657 -19.700  -1.051  0.00  0.00     0.043 A 
ATOM     36  C   UNL d   1      20.892 -19.079  -1.267  0.00  0.00     0.020 A 
ENDBRANCH  27  30
ENDBRANCH   3  26
TORSDOF 5
ENDMDL
MODEL 8
REMARK VINA RESULT:    -8.449      5.020      8.828
REMARK INTER + INTRA:         -11.190
REMARK INTER:                  -9.940
REMARK INTRA:                  -1.250
REMARK CONF_INDEPENDENT:        1.492
REMARK UNBOUND:                -1.250
REMARK  5 active torsions:
REMARK  status: ('A' for Active; 'I' for Inactive)
REMARK    1  A    between atoms: C_6  and  N_7 
REMARK       I    between atoms: N_7  and  C_8 
REMARK       I    between atoms: C_8  and  N_10 
REMARK    2  A    between atoms: N_10  and  C_11 
REMARK    3  A    between atoms: C_13  and  N_14 
REMARK       I    between atoms: N_14  and  C_15 
REMARK    4  A    between atoms: C_15  and  C_17 
REMARK    5  A    between atoms: C_26  and  N_27 
ROOT
ATOM      1  C   UNL d   1      27.023 -15.314  -3.238  0.00  0.00     0.065 A 
ATOM      2  C   UNL d   1      26.748 -14.137  -4.007  0.00  0.00     0.061 A 
ATOM      3  C   UNL d   1      25.500 -13.478  -3.908  0.00  0.00     0.037 A 
ATOM      4  C   UNL d   1      24.513 -14.091  -3.144  0.00  0.00     0.032 A 
ATOM      5  C   UNL d   1      24.770 -15.233  -2.396  0.00  0.00     0.034 A 
ATOM      6  C   UNL d   1      26.017 -15.861  -2.392  0.00  0.00     0.057 A 
ENDROOT
BRANCH   1   7
ATOM      7  N   UNL d   1      28.323 -15.936  -3.314  0.00  0.00    -0.306 N 
ATOM      8  C   UNL d   1      28.912 -16.125  -4.560  0.00  0.00     0.325 C 
ATOM      9  N   UNL d   1      30.014 -16.979  -4.580  0.00  0.00    -0.308 N 
ATOM     10  O   UNL d   1      28.456 -15.581  -5.568  0.00  0.00    -0.247 OA
ATOM     11  H   UNL d   1      30.415 -17.238  -3.692  0.00  0.00     0.170 HD
ATOM     12  H   UNL d   1      28.916 -15.886  -2.501  0.00  0.00     0.170 HD
BRANCH   9  13
ATOM     13  C   UNL d   1      30.619 -17.513  -5.785  0.00  0.00     0.042 A 
ATOM     14  C   UNL d   1      31.051 -16.647  -6.812  0.00  0.00     0.030 A 
ATOM     15  C   UNL d   1      31.585 -17.080  -8.020  0.00  0.00     0.003 A 
ATOM     16  C   UNL d   1      31.742 -18.429  -8.238  0.00  0.00     0.007 A 
ATOM     17  C   UNL d   1      31.333 -19.347  -7.258  0.00  0.00    -0.054 A 
ATOM     18  C   UNL d   1      31.554 -20.806  -7.565  0.00  0.00     0.049 C 
ATOM     19  C   UNL d   1      30.752 -18.900  -6.024  0.00  0.00    -0.029 A 
ATOM     20  C   UNL d   1      30.350 -19.942  -5.014  0.00  0.00     0.051 C 
ENDBRANCH   9  13
ENDBRANCH   1   7
BRANCH   6  21
ATOM     21  N   UNL d   1      26.142 -16.923  -1.517  0.00  0.00    -0.379 N 
ATOM     22  C   UNL d   1      25.060 -17.755  -1.034  0.00  0.00     0.123 C 
ATOM     23  C   UNL d   1      25.349 -17.914   0.444  0.00  0.00     0.021 C 
ATOM     24  C   UNL d   1      26.862 -17.838   0.554  0.00  0.00     0.021 C 
ATOM     25  C   UNL d   1      27.314 -16.990  -0.639  0.00  0.00     0.123 C 
ENDBRANCH   6  21
BRANCH   3  26
ATOM     26  N   UNL d   1      25.254 -12.198  -4.511  0.00  0.00    -0.323 N 
ATOM     27  C   UNL d   1      25.827 -11.000  -4.062  0.00  0.00     0.256 C 
ATOM     28  O   UNL d   1      26.543 -10.845  -3.070  0.00  0.00    -0.267 OA
ATOM     29  H   UNL d   1      24.779 -12.192  -5.405  0.00  0.00     0.169 HD
BRANCH  27  30
ATOM     30  C   UNL d   1      25.593  -9.751  -4.823  0.00  0.00     0.032 A 
ATOM     31  C   UNL d   1      24.779  -8.760  -4.233  0.00  0.00     0.020 A 
ATOM     32  C   UNL d   1      24.323  -7.677  -4.984  0.00  0.00     0.043 A 
ATOM     33  C   UNL d   1      24.736  -7.555  -6.303  0.00  0.00     0.116 A 
ATOM     34  F   UNL d   1      24.348  -6.489  -7.016  0.00  0.00    -0.206 F 
ATOM     35  C   UNL d   1      25.548  -8.521  -6.896  0.00  0.00     0.043 A 
ATOM     36  C   UNL d   1      25.973  -9.632  -6.159  0.00  0.00     0.020 A 
ENDBRANCH  27  30
ENDBRANCH   3  26
TORSDOF 5
ENDMDL
MODEL 9
REMARK VINA RESULT:    -8.445      5.103     10.004
REMARK INTER + INTRA:         -11.330
REMARK INTER:                  -9.937
REMARK INTRA:                  -1.393
REMARK CONF_INDEPENDENT:        1.492
REMARK UNBOUND:                -1.393
REMARK  5 active torsions:
REMARK  status: ('A' for Active; 'I' for Inactive)
REMARK    1  A    between atoms: C_6  and  N_7 
REMARK       I    between atoms: N_7  and  C_8 
REMARK       I    between atoms: C_8  and  N_10 
REMARK    2  A    between atoms: N_10  and  C_11 
REMARK    3  A    between atoms: C_13  and  N_14 
REMARK       I    between atoms: N_14  and  C_15 
REMARK    4  A    between atoms: C_15  and  C_17 
REMARK    5  A    between atoms: C_26  and  N_27 
ROOT
ATOM      1  C   UNL d   1      26.563 -14.501  -1.140  0.00  0.00     0.065 A 
ATOM      2  C   UNL d   1      26.459 -13.224  -1.781  0.00  0.00     0.061 A 
ATOM      3  C   UNL d   1      25.643 -13.048  -2.923  0.00  0.00     0.037 A 
ATOM      4  C   UNL d   1      25.059 -14.184  -3.472  0.00  0.00     0.032 A 
ATOM      5  C   UNL d   1      25.155 -15.426  -2.858  0.00  0.00     0.034 A 
ATOM      6  C   UNL d   1      25.874 -15.625  -1.678  0.00  0.00     0.057 A 
ENDROOT
BRANCH   1   7
ATOM      7  N   UNL d   1      27.357 -14.643   0.056  0.00  0.00    -0.306 N 
ATOM      8  C   UNL d   1      27.008 -13.918   1.192  0.00  0.00     0.325 C 
ATOM      9  N   UNL d   1      27.971 -13.880   2.200  0.00  0.00    -0.308 N 
ATOM     10  O   UNL d   1      25.923 -13.336   1.266  0.00  0.00    -0.247 OA
ATOM     11  H   UNL d   1      28.746 -14.519   2.123  0.00  0.00     0.170 HD
ATOM     12  H   UNL d   1      27.890 -15.490   0.169  0.00  0.00     0.170 HD
BRANCH   9  13
ATOM     13  C   UNL d   1      27.928 -12.990   3.344  0.00  0.00     0.042 A 
ATOM     14  C   UNL d   1      27.753 -11.602   3.164  0.00  0.00     0.030 A 
ATOM     15  C   UNL d   1      27.761 -10.676   4.202  0.00  0.00     0.003 A 
ATOM     16  C   UNL d   1      27.913 -11.120   5.494  0.00  0.00     0.007 A 
ATOM     17  C   UNL d   1      28.092 -12.490   5.746  0.00  0.00    -0.054 A 
ATOM     18  C   UNL d   1      28.235 -12.899   7.189  0.00  0.00     0.049 C 
ATOM     19  C   UNL d   1      28.116 -13.441   4.671  0.00  0.00    -0.029 A 
ATOM     20  C   UNL d   1      28.298 -14.895   5.018  0.00  0.00     0.051 C 
ENDBRANCH   9  13
ENDBRANCH   1   7
BRANCH   6  21
ATOM     21  N   UNL d   1      25.787 -16.893  -1.137  0.00  0.00    -0.379 N 
ATOM     22  C   UNL d   1      24.568 -17.553  -0.716  0.00  0.00     0.123 C 
ATOM     23  C   UNL d   1      24.936 -18.196   0.605  0.00  0.00     0.021 C 
ATOM     24  C   UNL d   1      26.418 -18.510   0.484  0.00  0.00     0.021 C 
ATOM     25  C   UNL d   1      26.972 -17.483  -0.507  0.00  0.00     0.123 C 
ENDBRANCH   6  21
BRANCH   3  26
ATOM     26  N   UNL d   1      25.361 -11.753  -3.477  0.00  0.00    -0.323 N 
ATOM     27  C   UNL d   1      26.061 -10.588  -3.137  0.00  0.00     0.256 C 
ATOM     28  O   UNL d   1      26.944 -10.475  -2.283  0.00  0.00    -0.267 OA
ATOM     29  H   UNL d   1      24.740 -11.719  -4.276  0.00  0.00     0.169 HD
BRANCH  27  30
ATOM     30  C   UNL d   1      25.763  -9.324  -3.848  0.00  0.00     0.032 A 
ATOM     31  C   UNL d   1      25.903  -8.114  -3.135  0.00  0.00     0.020 A 
ATOM     32  C   UNL d   1      25.410  -6.920  -3.659  0.00  0.00     0.043 A 
ATOM     33  C   UNL d   1      24.839  -6.928  -4.923  0.00  0.00     0.116 A 
ATOM     34  F   UNL d   1      24.413  -5.776  -5.459  0.00  0.00    -0.206 F 
ATOM     35  C   UNL d   1      24.703  -8.114  -5.644  0.00  0.00     0.043 A 
ATOM     36  C   UNL d   1      25.156  -9.322  -5.104  0.00  0.00     0.020 A 
ENDBRANCH  27  30
ENDBRANCH   3  26
TORSDOF 5
ENDMDL
