MODEL 1
REMARK VINA RESULT:    -9.929      0.000      0.000
REMARK INTER + INTRA:         -12.297
REMARK INTER:                 -11.421
REMARK INTRA:                  -0.877
REMARK CONF_INDEPENDENT:        1.492
REMARK UNBOUND:                -0.877
REMARK  5 active torsions:
REMARK  status: ('A' for Active; 'I' for Inactive)
REMARK    1  A    between atoms: C_2  and  N_3 
REMARK    2  A    between atoms: N_6  and  C_7 
REMARK    3  A    between atoms: C_10  and  C_11 
REMARK    4  A    between atoms: C_16  and  N_17 
REMARK    5  A    between atoms: N_17  and  C_18 
ROOT
ATOM      1  C   UNL d   1      27.726 -14.750  -4.942  0.00  0.00     0.079 A 
ATOM      2  C   UNL d   1      27.466 -13.571  -5.515  0.00  0.00     0.107 A 
ATOM      3  C   UNL d   1      28.155 -13.252  -6.766  0.00  0.00     0.249 A 
ATOM      4  O   UNL d   1      27.891 -12.216  -7.388  0.00  0.00    -0.268 OA
ATOM      5  N   UNL d   1      29.046 -14.184  -7.209  0.00  0.00    -0.298 N 
ATOM      6  C   UNL d   1      29.258 -15.381  -6.541  0.00  0.00     0.189 A 
ATOM      7  N   UNL d   1      28.660 -15.632  -5.425  0.00  0.00    -0.219 NA
ATOM      8  H   UNL d   1      29.479 -13.975  -8.094  0.00  0.00     0.171 HD
ENDROOT
BRANCH   1   9
ATOM      9  C   UNL d   1      26.879 -15.197  -3.811  0.00  0.00     0.036 A 
ATOM     10  C   UNL d   1      25.524 -14.923  -3.730  0.00  0.00     0.152 A 
ATOM     11  N   UNL d   1      24.678 -15.388  -2.749  0.00  0.00    -0.074 NA
ATOM     12  C   UNL d   1      25.232 -16.095  -1.752  0.00  0.00     0.724 A 
ATOM     13  N   UNL d   1      26.547 -16.347  -1.701  0.00  0.00    -0.067 NA
ATOM     14  C   UNL d   1      27.349 -15.929  -2.728  0.00  0.00     0.064 A 
ATOM     15  C   UNL d   1      28.792 -16.341  -2.606  0.00  0.00     0.072 C 
BRANCH  12  16
ATOM     16  N   UNL d   1      24.456 -16.603  -0.735  0.00  0.00    -0.211 N 
ATOM     17  C   UNL d   1      24.863 -17.721   0.098  0.00  0.00     0.169 C 
ATOM     18  C   UNL d   1      23.957 -18.951  -0.172  0.00  0.00     0.255 C 
ATOM     19  N   UNL d   1      22.442 -18.567   0.007  0.00  0.00    -0.068 N 
ATOM     20  C   UNL d   1      22.105 -17.296  -0.844  0.00  0.00     0.255 C 
ATOM     21  H   UNL d   1      22.343 -18.290   0.992  0.00  0.00     0.280 HD
ATOM     22  C   UNL d   1      23.094 -16.137  -0.527  0.00  0.00     0.169 C 
BRANCH  19  23
ATOM     23  C   UNL d   1      21.416 -19.690  -0.145  0.00  0.00     0.230 C 
ATOM     24  C   UNL d   1      20.287 -19.325  -1.080  0.00  0.00     0.034 C 
ENDBRANCH  19  23
ENDBRANCH  12  16
ENDBRANCH   1   9
BRANCH   6  25
ATOM     25  N   UNL d   1      30.116 -16.285  -7.136  0.00  0.00    -0.196 NA
ATOM     26  H   UNL d   1      30.959 -15.875  -7.532  0.00  0.00     0.139 HD
BRANCH  25  27
ATOM     27  C   UNL d   1      30.465 -17.470  -6.455  0.00  0.00     0.209 C 
ATOM     28  N   UNL d   1      30.776 -18.457  -7.292  0.00  0.00    -0.223 NA
ATOM     29  C   UNL d   1      30.893 -19.662  -6.733  0.00  0.00     0.043 C 
ATOM     30  C   UNL d   1      31.526 -20.673  -7.641  0.00  0.00     0.071 C 
ATOM     31  C   UNL d   1      30.599 -20.017  -5.373  0.00  0.00     0.004 C 
ATOM     32  C   UNL d   1      30.406 -21.305  -4.640  0.00  0.00     0.064 C 
ATOM     33  C   UNL d   1      30.879 -18.942  -4.576  0.00  0.00     0.069 C 
ATOM     34  C   UNL d   1      31.574 -21.945  -4.396  0.00  0.00    -0.074 C 
ATOM     35  C   UNL d   1      32.159 -22.666  -5.583  0.00  0.00     0.044 C 
ATOM     36  C   UNL d   1      32.107 -21.061  -3.468  0.00  0.00     0.005 C 
ATOM     37  C   UNL d   1      31.538 -19.577  -3.427  0.00  0.00     0.032 C 
ATOM     38  N   UNL d   1      30.557 -17.655  -5.096  0.00  0.00    -0.218 NA
ENDBRANCH  25  27
ENDBRANCH   6  25
TORSDOF 5
ENDMDL
MODEL 2
REMARK VINA RESULT:    -9.578      4.881      7.835
REMARK INTER + INTRA:         -11.903
REMARK INTER:                 -11.069
REMARK INTRA:                  -0.834
REMARK CONF_INDEPENDENT:        1.492
REMARK UNBOUND:                -0.834
REMARK  5 active torsions:
REMARK  status: ('A' for Active; 'I' for Inactive)
REMARK    1  A    between atoms: C_2  and  N_3 
REMARK    2  A    between atoms: N_6  and  C_7 
REMARK    3  A    between atoms: C_10  and  C_11 
REMARK    4  A    between atoms: C_16  and  N_17 
REMARK    5  A    between atoms: N_17  and  C_18 
ROOT
ATOM      1  C   UNL d   1      26.212 -15.738  -0.534  0.00  0.00     0.079 A 
ATOM      2  C   UNL d   1      25.580 -16.871  -0.213  0.00  0.00     0.107 A 
ATOM      3  C   UNL d   1      24.711 -17.478  -1.222  0.00  0.00     0.249 A 
ATOM      4  O   UNL d   1      24.169 -18.570  -1.015  0.00  0.00    -0.268 OA
ATOM      5  N   UNL d   1      24.593 -16.794  -2.395  0.00  0.00    -0.298 N 
ATOM      6  C   UNL d   1      25.284 -15.616  -2.637  0.00  0.00     0.189 A 
ATOM      7  N   UNL d   1      26.024 -15.082  -1.725  0.00  0.00    -0.219 NA
ATOM      8  H   UNL d   1      24.030 -17.245  -3.098  0.00  0.00     0.171 HD
ENDROOT
BRANCH   1   9
ATOM      9  C   UNL d   1      27.269 -15.229   0.372  0.00  0.00     0.036 A 
ATOM     10  C   UNL d   1      27.035 -14.262   1.335  0.00  0.00     0.152 A 
ATOM     11  N   UNL d   1      27.957 -13.819   2.255  0.00  0.00    -0.074 NA
ATOM     12  C   UNL d   1      29.202 -14.309   2.154  0.00  0.00     0.724 A 
ATOM     13  N   UNL d   1      29.547 -15.192   1.206  0.00  0.00    -0.067 NA
ATOM     14  C   UNL d   1      28.588 -15.663   0.350  0.00  0.00     0.064 A 
ATOM     15  C   UNL d   1      29.070 -16.712  -0.617  0.00  0.00     0.072 C 
BRANCH  12  16
ATOM     16  N   UNL d   1      30.184 -13.925   3.039  0.00  0.00    -0.211 N 
ATOM     17  C   UNL d   1      30.781 -14.825   4.010  0.00  0.00     0.169 C 
ATOM     18  C   UNL d   1      30.389 -14.401   5.450  0.00  0.00     0.255 C 
ATOM     19  N   UNL d   1      30.759 -12.891   5.697  0.00  0.00    -0.068 N 
ATOM     20  C   UNL d   1      30.164 -11.997   4.557  0.00  0.00     0.255 C 
ATOM     21  H   UNL d   1      31.781 -12.840   5.601  0.00  0.00     0.280 HD
ATOM     22  C   UNL d   1      30.583 -12.531   3.156  0.00  0.00     0.169 C 
BRANCH  19  23
ATOM     23  C   UNL d   1      30.512 -12.334   7.099  0.00  0.00     0.230 C 
ATOM     24  C   UNL d   1      29.370 -13.026   7.807  0.00  0.00     0.034 C 
ENDBRANCH  19  23
ENDBRANCH  12  16
ENDBRANCH   1   9
BRANCH   6  25
ATOM     25  N   UNL d   1      25.154 -15.064  -3.897  0.00  0.00    -0.196 NA
ATOM     26  H   UNL d   1      24.486 -14.299  -3.960  0.00  0.00     0.139 HD
BRANCH  25  27
ATOM     27  C   UNL d   1      26.308 -14.721  -4.632  0.00  0.00     0.209 C 
ATOM     28  N   UNL d   1      26.578 -13.421  -4.566  0.00  0.00    -0.223 NA
ATOM     29  C   UNL d   1      27.513 -12.989  -5.414  0.00  0.00     0.043 C 
ATOM     30  C   UNL d   1      27.992 -11.603  -5.106  0.00  0.00     0.071 C 
ATOM     31  C   UNL d   1      28.151 -13.745  -6.455  0.00  0.00     0.004 C 
ATOM     32  C   UNL d   1      28.988 -13.398  -7.644  0.00  0.00     0.064 C 
ATOM     33  C   UNL d   1      28.247 -15.046  -6.047  0.00  0.00     0.069 C 
ATOM     34  C   UNL d   1      30.259 -13.072  -7.309  0.00  0.00    -0.074 C 
ATOM     35  C   UNL d   1      30.425 -11.686  -6.743  0.00  0.00     0.044 C 
ATOM     36  C   UNL d   1      30.693 -14.323  -6.894  0.00  0.00     0.005 C 
ATOM     37  C   UNL d   1      29.601 -15.405  -6.488  0.00  0.00     0.032 C 
ATOM     38  N   UNL d   1      27.145 -15.573  -5.314  0.00  0.00    -0.218 NA
ENDBRANCH  25  27
ENDBRANCH   6  25
TORSDOF 5
ENDMDL
MODEL 3
REMARK VINA RESULT:    -9.491      8.508     11.600
REMARK INTER + INTRA:         -11.605
REMARK INTER:                 -10.982
REMARK INTRA:                  -0.623
REMARK CONF_INDEPENDENT:        1.492
REMARK UNBOUND:                -0.623
REMARK  5 active torsions:
REMARK  status: ('A' for Active; 'I' for Inactive)
REMARK    1  A    between atoms: C_2  and  N_3 
REMARK    2  A    between atoms: N_6  and  C_7 
REMARK    3  A    between atoms: C_10  and  C_11 
REMARK    4  A    between atoms: C_16  and  N_17 
REMARK    5  A    between atoms: N_17  and  C_18 
ROOT
ATOM      1  C   UNL d   1      27.543 -11.298   3.653  0.00  0.00     0.079 A 
ATOM      2  C   UNL d   1      27.004 -10.115   3.341  0.00  0.00     0.107 A 
ATOM      3  C   UNL d   1      27.428  -8.946   4.112  0.00  0.00     0.249 A 
ATOM      4  O   UNL d   1      27.031  -7.813   3.813  0.00  0.00    -0.268 OA
ATOM      5  N   UNL d   1      28.311  -9.187   5.122  0.00  0.00    -0.298 N 
ATOM      6  C   UNL d   1      28.811 -10.455   5.380  0.00  0.00     0.189 A 
ATOM      7  N   UNL d   1      28.406 -11.478   4.706  0.00  0.00    -0.219 NA
ATOM      8  H   UNL d   1      28.630  -8.369   5.616  0.00  0.00     0.171 HD
ENDROOT
BRANCH   1   9
ATOM      9  C   UNL d   1      27.313 -12.449   2.749  0.00  0.00     0.036 A 
ATOM     10  C   UNL d   1      26.769 -12.316   1.483  0.00  0.00     0.152 A 
ATOM     11  N   UNL d   1      26.616 -13.337   0.573  0.00  0.00    -0.074 NA
ATOM     12  C   UNL d   1      26.950 -14.571   0.981  0.00  0.00     0.724 A 
ATOM     13  N   UNL d   1      27.414 -14.813   2.215  0.00  0.00    -0.067 NA
ATOM     14  C   UNL d   1      27.618 -13.765   3.071  0.00  0.00     0.064 A 
ATOM     15  C   UNL d   1      28.221 -14.146   4.397  0.00  0.00     0.072 C 
BRANCH  12  16
ATOM     16  N   UNL d   1      26.836 -15.648   0.132  0.00  0.00    -0.211 N 
ATOM     17  C   UNL d   1      26.283 -15.552  -1.208  0.00  0.00     0.169 C 
ATOM     18  C   UNL d   1      24.938 -16.322  -1.292  0.00  0.00     0.255 C 
ATOM     19  N   UNL d   1      25.123 -17.807  -0.803  0.00  0.00    -0.068 N 
ATOM     20  C   UNL d   1      25.814 -17.829   0.602  0.00  0.00     0.255 C 
ATOM     21  H   UNL d   1      25.791 -18.230  -1.460  0.00  0.00     0.280 HD
ATOM     22  C   UNL d   1      27.130 -16.997   0.588  0.00  0.00     0.169 C 
BRANCH  19  23
ATOM     23  C   UNL d   1      23.907 -18.728  -0.898  0.00  0.00     0.230 C 
ATOM     24  C   UNL d   1      22.630 -18.054  -0.453  0.00  0.00     0.034 C 
ENDBRANCH  19  23
ENDBRANCH  12  16
ENDBRANCH   1   9
BRANCH   6  25
ATOM     25  N   UNL d   1      29.769 -10.558   6.370  0.00  0.00    -0.196 NA
ATOM     26  H   UNL d   1      30.118  -9.669   6.720  0.00  0.00     0.139 HD
BRANCH  25  27
ATOM     27  C   UNL d   1      29.553 -11.423   7.464  0.00  0.00     0.209 C 
ATOM     28  N   UNL d   1      30.547 -12.293   7.620  0.00  0.00    -0.223 NA
ATOM     29  C   UNL d   1      30.309 -13.281   8.483  0.00  0.00     0.043 C 
ATOM     30  C   UNL d   1      31.541 -14.054   8.847  0.00  0.00     0.071 C 
ATOM     31  C   UNL d   1      29.070 -13.568   9.150  0.00  0.00     0.004 C 
ATOM     32  C   UNL d   1      28.530 -14.735   9.911  0.00  0.00     0.064 C 
ATOM     33  C   UNL d   1      28.418 -12.387   9.374  0.00  0.00     0.069 C 
ATOM     34  C   UNL d   1      29.048 -14.827  11.159  0.00  0.00    -0.074 C 
ATOM     35  C   UNL d   1      30.446 -15.386  11.221  0.00  0.00     0.044 C 
ATOM     36  C   UNL d   1      28.452 -13.705  11.717  0.00  0.00     0.005 C 
ATOM     37  C   UNL d   1      27.909 -12.574  10.739  0.00  0.00     0.032 C 
ATOM     38  N   UNL d   1      28.501 -11.401   8.349  0.00  0.00    -0.218 NA
ENDBRANCH  25  27
ENDBRANCH   6  25
TORSDOF 5
ENDMDL
MODEL 4
REMARK VINA RESULT:    -9.230      3.738      7.705
REMARK INTER + INTRA:         -11.598
REMARK INTER:                 -10.722
REMARK INTRA:                  -0.877
REMARK CONF_INDEPENDENT:        1.492
REMARK UNBOUND:                -0.877
REMARK  5 active torsions:
REMARK  status: ('A' for Active; 'I' for Inactive)
REMARK    1  A    between atoms: C_2  and  N_3 
REMARK    2  A    between atoms: N_6  and  C_7 
REMARK    3  A    between atoms: C_10  and  C_11 
REMARK    4  A    between atoms: C_16  and  N_17 
REMARK    5  A    between atoms: N_17  and  C_18 
ROOT
ATOM      1  C   UNL d   1      30.912 -19.424  -5.304  0.00  0.00     0.079 A 
ATOM      2  C   UNL d   1      31.437 -20.022  -6.378  0.00  0.00     0.107 A 
ATOM      3  C   UNL d   1      31.484 -19.263  -7.628  0.00  0.00     0.249 A 
ATOM      4  O   UNL d   1      32.035 -19.729  -8.632  0.00  0.00    -0.268 OA
ATOM      5  N   UNL d   1      30.937 -18.014  -7.588  0.00  0.00    -0.298 N 
ATOM      6  C   UNL d   1      30.405 -17.478  -6.424  0.00  0.00     0.189 A 
ATOM      7  N   UNL d   1      30.349 -18.173  -5.339  0.00  0.00    -0.219 NA
ATOM      8  H   UNL d   1      31.017 -17.484  -8.440  0.00  0.00     0.171 HD
ENDROOT
BRANCH   1   9
ATOM      9  C   UNL d   1      31.062 -20.074  -3.981  0.00  0.00     0.036 A 
ATOM     10  C   UNL d   1      30.916 -21.438  -3.790  0.00  0.00     0.152 A 
ATOM     11  N   UNL d   1      31.129 -22.100  -2.603  0.00  0.00    -0.074 NA
ATOM     12  C   UNL d   1      31.423 -21.349  -1.530  0.00  0.00     0.724 A 
ATOM     13  N   UNL d   1      31.511 -20.013  -1.598  0.00  0.00    -0.067 NA
ATOM     14  C   UNL d   1      31.361 -19.392  -2.808  0.00  0.00     0.064 A 
ATOM     15  C   UNL d   1      31.564 -17.901  -2.779  0.00  0.00     0.072 C 
BRANCH  12  16
ATOM     16  N   UNL d   1      31.659 -21.932  -0.306  0.00  0.00    -0.211 N 
ATOM     17  C   UNL d   1      30.621 -22.563   0.490  0.00  0.00     0.169 C 
ATOM     18  C   UNL d   1      30.368 -21.750   1.787  0.00  0.00     0.255 C 
ATOM     19  N   UNL d   1      31.713 -21.542   2.577  0.00  0.00    -0.068 N 
ATOM     20  C   UNL d   1      32.809 -20.951   1.627  0.00  0.00     0.255 C 
ATOM     21  H   UNL d   1      32.030 -22.486   2.832  0.00  0.00     0.280 HD
ATOM     22  C   UNL d   1      32.956 -21.817   0.341  0.00  0.00     0.169 C 
BRANCH  19  23
ATOM     23  C   UNL d   1      31.626 -20.826   3.924  0.00  0.00     0.230 C 
ATOM     24  C   UNL d   1      30.780 -21.575   4.927  0.00  0.00     0.034 C 
ENDBRANCH  19  23
ENDBRANCH  12  16
ENDBRANCH   1   9
BRANCH   6  25
ATOM     25  N   UNL d   1      29.963 -16.170  -6.486  0.00  0.00    -0.196 NA
ATOM     26  H   UNL d   1      29.754 -15.834  -7.423  0.00  0.00     0.139 HD
BRANCH  25  27
ATOM     27  C   UNL d   1      28.947 -15.734  -5.609  0.00  0.00     0.209 C 
ATOM     28  N   UNL d   1      29.308 -15.834  -4.333  0.00  0.00    -0.223 NA
ATOM     29  C   UNL d   1      28.326 -15.658  -3.448  0.00  0.00     0.043 C 
ATOM     30  C   UNL d   1      28.822 -15.485  -2.044  0.00  0.00     0.071 C 
ATOM     31  C   UNL d   1      26.926 -15.502  -3.728  0.00  0.00     0.004 C 
ATOM     32  C   UNL d   1      25.676 -15.564  -2.912  0.00  0.00     0.064 C 
ATOM     33  C   UNL d   1      26.796 -14.855  -4.925  0.00  0.00     0.069 C 
ATOM     34  C   UNL d   1      25.494 -14.456  -2.154  0.00  0.00    -0.074 C 
ATOM     35  C   UNL d   1      26.345 -14.395  -0.913  0.00  0.00     0.044 C 
ATOM     36  C   UNL d   1      25.234 -13.548  -3.171  0.00  0.00     0.005 C 
ATOM     37  C   UNL d   1      25.706 -13.911  -4.645  0.00  0.00     0.032 C 
ATOM     38  N   UNL d   1      27.726 -15.200  -5.948  0.00  0.00    -0.218 NA
ENDBRANCH  25  27
ENDBRANCH   6  25
TORSDOF 5
ENDMDL
MODEL 5
REMARK VINA RESULT:    -9.211      4.630      8.274
REMARK INTER + INTRA:         -11.552
REMARK INTER:                 -10.703
REMARK INTRA:                  -0.849
REMARK CONF_INDEPENDENT:        1.492
REMARK UNBOUND:                -0.849
REMARK  5 active torsions:
REMARK  status: ('A' for Active; 'I' for Inactive)
REMARK    1  A    between atoms: C_2  and  N_3 
REMARK    2  A    between atoms: N_6  and  C_7 
REMARK    3  A    between atoms: C_10  and  C_11 
REMARK    4  A    between atoms: C_16  and  N_17 
REMARK    5  A    between atoms: N_17  and  C_18 
ROOT
ATOM      1  C   UNL d   1      26.314 -15.719  -0.521  0.00  0.00     0.079 A 
ATOM      2  C   UNL d   1      25.677 -16.856  -0.227  0.00  0.00     0.107 A 
ATOM      3  C   UNL d   1      24.768 -17.410  -1.231  0.00  0.00     0.249 A 
ATOM      4  O   UNL d   1      24.217 -18.503  -1.053  0.00  0.00    -0.268 OA
ATOM      5  N   UNL d   1      24.621 -16.676  -2.371  0.00  0.00    -0.298 N 
ATOM      6  C   UNL d   1      25.321 -15.498  -2.587  0.00  0.00     0.189 A 
ATOM      7  N   UNL d   1      26.097 -15.012  -1.678  0.00  0.00    -0.219 NA
ATOM      8  H   UNL d   1      24.030 -17.090  -3.074  0.00  0.00     0.171 HD
ENDROOT
BRANCH   1   9
ATOM      9  C   UNL d   1      27.407 -15.261   0.369  0.00  0.00     0.036 A 
ATOM     10  C   UNL d   1      27.197 -14.418   1.447  0.00  0.00     0.152 A 
ATOM     11  N   UNL d   1      28.158 -14.035   2.354  0.00  0.00    -0.074 NA
ATOM     12  C   UNL d   1      29.414 -14.450   2.122  0.00  0.00     0.724 A 
ATOM     13  N   UNL d   1      29.731 -15.206   1.062  0.00  0.00    -0.067 NA
ATOM     14  C   UNL d   1      28.738 -15.626   0.219  0.00  0.00     0.064 A 
ATOM     15  C   UNL d   1      29.198 -16.539  -0.887  0.00  0.00     0.072 C 
BRANCH  12  16
ATOM     16  N   UNL d   1      30.434 -14.118   2.983  0.00  0.00    -0.211 N 
ATOM     17  C   UNL d   1      30.575 -12.803   3.585  0.00  0.00     0.169 C 
ATOM     18  C   UNL d   1      31.840 -12.092   3.035  0.00  0.00     0.255 C 
ATOM     19  N   UNL d   1      33.110 -13.001   3.230  0.00  0.00    -0.068 N 
ATOM     20  C   UNL d   1      32.845 -14.429   2.645  0.00  0.00     0.255 C 
ATOM     21  H   UNL d   1      33.209 -13.119   4.247  0.00  0.00     0.280 HD
ATOM     22  C   UNL d   1      31.536 -15.036   3.230  0.00  0.00     0.169 C 
BRANCH  19  23
ATOM     23  C   UNL d   1      34.457 -12.413   2.813  0.00  0.00     0.230 C 
ATOM     24  C   UNL d   1      35.624 -13.098   3.484  0.00  0.00     0.034 C 
ENDBRANCH  19  23
ENDBRANCH  12  16
ENDBRANCH   1   9
BRANCH   6  25
ATOM     25  N   UNL d   1      25.158 -14.892  -3.817  0.00  0.00    -0.196 NA
ATOM     26  H   UNL d   1      24.505 -14.112  -3.826  0.00  0.00     0.139 HD
BRANCH  25  27
ATOM     27  C   UNL d   1      26.293 -14.541  -4.579  0.00  0.00     0.209 C 
ATOM     28  N   UNL d   1      26.652 -13.274  -4.392  0.00  0.00    -0.223 NA
ATOM     29  C   UNL d   1      27.568 -12.810  -5.243  0.00  0.00     0.043 C 
ATOM     30  C   UNL d   1      28.153 -11.496  -4.818  0.00  0.00     0.071 C 
ATOM     31  C   UNL d   1      28.100 -13.484  -6.394  0.00  0.00     0.004 C 
ATOM     32  C   UNL d   1      28.894 -13.061  -7.587  0.00  0.00     0.064 C 
ATOM     33  C   UNL d   1      28.130 -14.825  -6.132  0.00  0.00     0.069 C 
ATOM     34  C   UNL d   1      30.200 -12.850  -7.294  0.00  0.00    -0.074 C 
ATOM     35  C   UNL d   1      30.487 -11.547  -6.595  0.00  0.00     0.044 C 
ATOM     36  C   UNL d   1      30.572 -14.163  -7.040  0.00  0.00     0.005 C 
ATOM     37  C   UNL d   1      29.433 -15.214  -6.687  0.00  0.00     0.032 C 
ATOM     38  N   UNL d   1      27.035 -15.362  -5.395  0.00  0.00    -0.218 NA
ENDBRANCH  25  27
ENDBRANCH   6  25
TORSDOF 5
ENDMDL
MODEL 6
REMARK VINA RESULT:    -8.974      1.279      1.911
REMARK INTER + INTRA:         -11.166
REMARK INTER:                 -10.465
REMARK INTRA:                  -0.700
REMARK CONF_INDEPENDENT:        1.492
REMARK UNBOUND:                -0.700
REMARK  5 active torsions:
REMARK  status: ('A' for Active; 'I' for Inactive)
REMARK    1  A    between atoms: C_2  and  N_3 
REMARK    2  A    between atoms: N_6  and  C_7 
REMARK    3  A    between atoms: C_10  and  C_11 
REMARK    4  A    between atoms: C_16  and  N_17 
REMARK    5  A    between atoms: N_17  and  C_18 
ROOT
ATOM      1  C   UNL d   1      28.109 -14.842  -3.883  0.00  0.00     0.079 A 
ATOM      2  C   UNL d   1      28.433 -13.560  -3.686  0.00  0.00     0.107 A 
ATOM      3  C   UNL d   1      29.279 -12.907  -4.684  0.00  0.00     0.249 A 
ATOM      4  O   UNL d   1      29.540 -11.701  -4.602  0.00  0.00    -0.268 OA
ATOM      5  N   UNL d   1      29.702 -13.695  -5.714  0.00  0.00    -0.298 N 
ATOM      6  C   UNL d   1      29.321 -15.023  -5.833  0.00  0.00     0.189 A 
ATOM      7  N   UNL d   1      28.596 -15.589  -4.928  0.00  0.00    -0.219 NA
ATOM      8  H   UNL d   1      30.245 -13.223  -6.419  0.00  0.00     0.171 HD
ENDROOT
BRANCH   1   9
ATOM      9  C   UNL d   1      27.073 -15.459  -3.021  0.00  0.00     0.036 A 
ATOM     10  C   UNL d   1      27.371 -16.352  -2.006  0.00  0.00     0.152 A 
ATOM     11  N   UNL d   1      26.459 -16.884  -1.124  0.00  0.00    -0.074 NA
ATOM     12  C   UNL d   1      25.169 -16.570  -1.320  0.00  0.00     0.724 A 
ATOM     13  N   UNL d   1      24.772 -15.775  -2.323  0.00  0.00    -0.067 NA
ATOM     14  C   UNL d   1      25.713 -15.208  -3.140  0.00  0.00     0.064 A 
ATOM     15  C   UNL d   1      25.159 -14.267  -4.176  0.00  0.00     0.072 C 
BRANCH  12  16
ATOM     16  N   UNL d   1      24.193 -17.054  -0.479  0.00  0.00    -0.211 N 
ATOM     17  C   UNL d   1      24.257 -18.361   0.151  0.00  0.00     0.169 C 
ATOM     18  C   UNL d   1      23.149 -19.288  -0.415  0.00  0.00     0.255 C 
ATOM     19  N   UNL d   1      21.738 -18.604  -0.278  0.00  0.00    -0.068 N 
ATOM     20  C   UNL d   1      21.776 -17.163  -0.892  0.00  0.00     0.255 C 
ATOM     21  H   UNL d   1      21.589 -18.484   0.732  0.00  0.00     0.280 HD
ATOM     22  C   UNL d   1      22.945 -16.332  -0.286  0.00  0.00     0.169 C 
BRANCH  19  23
ATOM     23  C   UNL d   1      20.523 -19.420  -0.718  0.00  0.00     0.230 C 
ATOM     24  C   UNL d   1      19.661 -19.853   0.445  0.00  0.00     0.034 C 
ENDBRANCH  19  23
ENDBRANCH  12  16
ENDBRANCH   1   9
BRANCH   6  25
ATOM     25  N   UNL d   1      29.739 -15.693  -6.966  0.00  0.00    -0.196 NA
ATOM     26  H   UNL d   1      30.315 -15.143  -7.599  0.00  0.00     0.139 HD
BRANCH  25  27
ATOM     27  C   UNL d   1      30.297 -16.983  -6.850  0.00  0.00     0.209 C 
ATOM     28  N   UNL d   1      31.182 -17.236  -7.810  0.00  0.00    -0.223 NA
ATOM     29  C   UNL d   1      31.579 -18.506  -7.900  0.00  0.00     0.043 C 
ATOM     30  C   UNL d   1      32.777 -18.688  -8.782  0.00  0.00     0.071 C 
ATOM     31  C   UNL d   1      31.064 -19.627  -7.164  0.00  0.00     0.004 C 
ATOM     32  C   UNL d   1      31.169 -21.112  -7.299  0.00  0.00     0.064 C 
ATOM     33  C   UNL d   1      30.678 -19.191  -5.928  0.00  0.00     0.069 C 
ATOM     34  C   UNL d   1      32.369 -21.588  -6.891  0.00  0.00    -0.074 C 
ATOM     35  C   UNL d   1      33.495 -21.382  -7.871  0.00  0.00     0.044 C 
ATOM     36  C   UNL d   1      32.240 -21.342  -5.531  0.00  0.00     0.005 C 
ATOM     37  C   UNL d   1      31.168 -20.267  -5.058  0.00  0.00     0.032 C 
ATOM     38  N   UNL d   1      30.058 -17.909  -5.862  0.00  0.00    -0.218 NA
ENDBRANCH  25  27
ENDBRANCH   6  25
TORSDOF 5
ENDMDL
MODEL 7
REMARK VINA RESULT:    -8.809      8.497     11.681
REMARK INTER + INTRA:         -11.268
REMARK INTER:                 -10.301
REMARK INTRA:                  -0.967
REMARK CONF_INDEPENDENT:        1.492
REMARK UNBOUND:                -0.967
REMARK  5 active torsions:
REMARK  status: ('A' for Active; 'I' for Inactive)
REMARK    1  A    between atoms: C_2  and  N_3 
REMARK    2  A    between atoms: N_6  and  C_7 
REMARK    3  A    between atoms: C_10  and  C_11 
REMARK    4  A    between atoms: C_16  and  N_17 
REMARK    5  A    between atoms: N_17  and  C_18 
ROOT
ATOM      1  C   UNL d   1      29.611 -12.325   3.400  0.00  0.00     0.079 A 
ATOM      2  C   UNL d   1      30.904 -12.048   3.209  0.00  0.00     0.107 A 
ATOM      3  C   UNL d   1      31.597 -11.276   4.240  0.00  0.00     0.249 A 
ATOM      4  O   UNL d   1      32.813 -11.063   4.162  0.00  0.00    -0.268 OA
ATOM      5  N   UNL d   1      30.833 -10.867   5.293  0.00  0.00    -0.298 N 
ATOM      6  C   UNL d   1      29.490 -11.196   5.403  0.00  0.00     0.189 A 
ATOM      7  N   UNL d   1      28.890 -11.855   4.470  0.00  0.00    -0.219 NA
ATOM      8  H   UNL d   1      31.331 -10.377   6.018  0.00  0.00     0.171 HD
ENDROOT
BRANCH   1   9
ATOM      9  C   UNL d   1      28.946 -13.294   2.496  0.00  0.00     0.036 A 
ATOM     10  C   UNL d   1      28.903 -13.136   1.122  0.00  0.00     0.152 A 
ATOM     11  N   UNL d   1      28.378 -14.046   0.234  0.00  0.00    -0.074 NA
ATOM     12  C   UNL d   1      27.790 -15.134   0.754  0.00  0.00     0.724 A 
ATOM     13  N   UNL d   1      27.712 -15.340   2.076  0.00  0.00    -0.067 NA
ATOM     14  C   UNL d   1      28.306 -14.448   2.928  0.00  0.00     0.064 A 
ATOM     15  C   UNL d   1      28.229 -14.825   4.384  0.00  0.00     0.072 C 
BRANCH  12  16
ATOM     16  N   UNL d   1      27.245 -16.098  -0.063  0.00  0.00    -0.211 N 
ATOM     17  C   UNL d   1      26.280 -15.806  -1.108  0.00  0.00     0.169 C 
ATOM     18  C   UNL d   1      24.900 -16.421  -0.754  0.00  0.00     0.255 C 
ATOM     19  N   UNL d   1      25.043 -17.960  -0.457  0.00  0.00    -0.068 N 
ATOM     20  C   UNL d   1      26.169 -18.200   0.605  0.00  0.00     0.255 C 
ATOM     21  H   UNL d   1      25.379 -18.378  -1.334  0.00  0.00     0.280 HD
ATOM     22  C   UNL d   1      27.497 -17.511   0.173  0.00  0.00     0.169 C 
BRANCH  19  23
ATOM     23  C   UNL d   1      23.759 -18.736  -0.168  0.00  0.00     0.230 C 
ATOM     24  C   UNL d   1      22.559 -18.164  -0.886  0.00  0.00     0.034 C 
ENDBRANCH  19  23
ENDBRANCH  12  16
ENDBRANCH   1   9
BRANCH   6  25
ATOM     25  N   UNL d   1      28.844 -10.802   6.558  0.00  0.00    -0.196 NA
ATOM     26  H   UNL d   1      27.886 -10.486   6.425  0.00  0.00     0.139 HD
BRANCH  25  27
ATOM     27  C   UNL d   1      28.894 -11.626   7.703  0.00  0.00     0.209 C 
ATOM     28  N   UNL d   1      29.820 -12.575   7.598  0.00  0.00    -0.223 NA
ATOM     29  C   UNL d   1      29.772 -13.524   8.534  0.00  0.00     0.043 C 
ATOM     30  C   UNL d   1      30.994 -14.393   8.554  0.00  0.00     0.071 C 
ATOM     31  C   UNL d   1      28.766 -13.692   9.545  0.00  0.00     0.004 C 
ATOM     32  C   UNL d   1      28.387 -14.795  10.479  0.00  0.00     0.064 C 
ATOM     33  C   UNL d   1      28.302 -12.456   9.900  0.00  0.00     0.069 C 
ATOM     34  C   UNL d   1      29.242 -14.909  11.523  0.00  0.00    -0.074 C 
ATOM     35  C   UNL d   1      30.549 -15.584  11.198  0.00  0.00     0.044 C 
ATOM     36  C   UNL d   1      28.924 -13.731  12.184  0.00  0.00     0.005 C 
ATOM     37  C   UNL d   1      28.206 -12.575  11.361  0.00  0.00     0.032 C 
ATOM     38  N   UNL d   1      28.155 -11.499   8.855  0.00  0.00    -0.218 NA
ENDBRANCH  25  27
ENDBRANCH   6  25
TORSDOF 5
ENDMDL
MODEL 8
REMARK VINA RESULT:    -8.547      4.387      8.648
REMARK INTER + INTRA:         -10.982
REMARK INTER:                 -10.038
REMARK INTRA:                  -0.944
REMARK CONF_INDEPENDENT:        1.492
REMARK UNBOUND:                -0.944
REMARK  5 active torsions:
REMARK  status: ('A' for Active; 'I' for Inactive)
REMARK    1  A    between atoms: C_2  and  N_3 
REMARK    2  A    between atoms: N_6  and  C_7 
REMARK    3  A    between atoms: C_10  and  C_11 
REMARK    4  A    between atoms: C_16  and  N_17 
REMARK    5  A    between atoms: N_17  and  C_18 
ROOT
ATOM      1  C   UNL d   1      26.259 -16.536  -0.455  0.00  0.00     0.079 A 
ATOM      2  C   UNL d   1      25.599 -17.627  -0.057  0.00  0.00     0.107 A 
ATOM      3  C   UNL d   1      24.260 -17.854  -0.603  0.00  0.00     0.249 A 
ATOM      4  O   UNL d   1      23.636 -18.888  -0.340  0.00  0.00    -0.268 OA
ATOM      5  N   UNL d   1      23.789 -16.890  -1.445  0.00  0.00    -0.298 N 
ATOM      6  C   UNL d   1      24.546 -15.781  -1.796  0.00  0.00     0.189 A 
ATOM      7  N   UNL d   1      25.714 -15.586  -1.283  0.00  0.00    -0.219 NA
ATOM      8  H   UNL d   1      22.887 -17.079  -1.850  0.00  0.00     0.171 HD
ENDROOT
BRANCH   1   9
ATOM      9  C   UNL d   1      27.693 -16.401  -0.105  0.00  0.00     0.036 A 
ATOM     10  C   UNL d   1      28.665 -17.277  -0.558  0.00  0.00     0.152 A 
ATOM     11  N   UNL d   1      30.017 -17.147  -0.334  0.00  0.00    -0.074 NA
ATOM     12  C   UNL d   1      30.409 -16.133   0.452  0.00  0.00     0.724 A 
ATOM     13  N   UNL d   1      29.536 -15.276   1.001  0.00  0.00    -0.067 NA
ATOM     14  C   UNL d   1      28.205 -15.394   0.702  0.00  0.00     0.064 A 
ATOM     15  C   UNL d   1      27.330 -14.328   1.306  0.00  0.00     0.072 C 
BRANCH  12  16
ATOM     16  N   UNL d   1      31.743 -15.926   0.721  0.00  0.00    -0.211 N 
ATOM     17  C   UNL d   1      32.419 -16.480   1.881  0.00  0.00     0.169 C 
ATOM     18  C   UNL d   1      32.838 -15.345   2.852  0.00  0.00     0.255 C 
ATOM     19  N   UNL d   1      33.693 -14.262   2.096  0.00  0.00    -0.068 N 
ATOM     20  C   UNL d   1      32.943 -13.788   0.806  0.00  0.00     0.255 C 
ATOM     21  H   UNL d   1      34.537 -14.755   1.775  0.00  0.00     0.280 HD
ATOM     22  C   UNL d   1      32.534 -15.002  -0.078  0.00  0.00     0.169 C 
BRANCH  19  23
ATOM     23  C   UNL d   1      34.256 -13.112   2.931  0.00  0.00     0.230 C 
ATOM     24  C   UNL d   1      33.175 -12.281   3.581  0.00  0.00     0.034 C 
ENDBRANCH  19  23
ENDBRANCH  12  16
ENDBRANCH   1   9
BRANCH   6  25
ATOM     25  N   UNL d   1      23.997 -14.921  -2.727  0.00  0.00    -0.196 NA
ATOM     26  H   UNL d   1      23.279 -14.300  -2.363  0.00  0.00     0.139 HD
BRANCH  25  27
ATOM     27  C   UNL d   1      24.844 -14.183  -3.582  0.00  0.00     0.209 C 
ATOM     28  N   UNL d   1      25.733 -14.957  -4.198  0.00  0.00    -0.223 NA
ATOM     29  C   UNL d   1      26.705 -14.308  -4.840  0.00  0.00     0.043 C 
ATOM     30  C   UNL d   1      27.499 -15.193  -5.754  0.00  0.00     0.071 C 
ATOM     31  C   UNL d   1      26.957 -12.895  -4.827  0.00  0.00     0.004 C 
ATOM     32  C   UNL d   1      28.103 -12.026  -5.234  0.00  0.00     0.064 C 
ATOM     33  C   UNL d   1      25.760 -12.245  -4.709  0.00  0.00     0.069 C 
ATOM     34  C   UNL d   1      28.191 -11.877  -6.577  0.00  0.00    -0.074 C 
ATOM     35  C   UNL d   1      28.779 -13.057  -7.306  0.00  0.00     0.044 C 
ATOM     36  C   UNL d   1      27.050 -11.112  -6.777  0.00  0.00     0.005 C 
ATOM     37  C   UNL d   1      25.920 -11.137  -5.659  0.00  0.00     0.032 C 
ATOM     38  N   UNL d   1      24.789 -12.836  -3.850  0.00  0.00    -0.218 NA
ENDBRANCH  25  27
ENDBRANCH   6  25
TORSDOF 5
ENDMDL
MODEL 9
REMARK VINA RESULT:    -8.321      3.339      7.367
REMARK INTER + INTRA:         -10.934
REMARK INTER:                  -9.813
REMARK INTRA:                  -1.121
REMARK CONF_INDEPENDENT:        1.492
REMARK UNBOUND:                -1.121
REMARK  5 active torsions:
REMARK  status: ('A' for Active; 'I' for Inactive)
REMARK    1  A    between atoms: C_2  and  N_3 
REMARK    2  A    between atoms: N_6  and  C_7 
REMARK    3  A    between atoms: C_10  and  C_11 
REMARK    4  A    between atoms: C_16  and  N_17 
REMARK    5  A    between atoms: N_17  and  C_18 
ROOT
ATOM      1  C   UNL d   1      31.364 -18.084  -6.770  0.00  0.00     0.079 A 
ATOM      2  C   UNL d   1      32.469 -17.854  -7.485  0.00  0.00     0.107 A 
ATOM      3  C   UNL d   1      32.592 -16.559  -8.155  0.00  0.00     0.249 A 
ATOM      4  O   UNL d   1      33.628 -16.255  -8.759  0.00  0.00    -0.268 OA
ATOM      5  N   UNL d   1      31.530 -15.715  -8.021  0.00  0.00    -0.298 N 
ATOM      6  C   UNL d   1      30.416 -16.044  -7.262  0.00  0.00     0.189 A 
ATOM      7  N   UNL d   1      30.314 -17.202  -6.701  0.00  0.00    -0.219 NA
ATOM      8  H   UNL d   1      31.646 -14.810  -8.447  0.00  0.00     0.171 HD
ENDROOT
BRANCH   1   9
ATOM      9  C   UNL d   1      31.313 -19.281  -5.898  0.00  0.00     0.036 A 
ATOM     10  C   UNL d   1      31.478 -20.570  -6.376  0.00  0.00     0.152 A 
ATOM     11  N   UNL d   1      31.527 -21.705  -5.600  0.00  0.00    -0.074 NA
ATOM     12  C   UNL d   1      31.318 -21.551  -4.283  0.00  0.00     0.724 A 
ATOM     13  N   UNL d   1      31.073 -20.353  -3.734  0.00  0.00    -0.067 NA
ATOM     14  C   UNL d   1      31.100 -19.236  -4.526  0.00  0.00     0.064 A 
ATOM     15  C   UNL d   1      30.896 -17.939  -3.789  0.00  0.00     0.072 C 
BRANCH  12  16
ATOM     16  N   UNL d   1      31.357 -22.633  -3.434  0.00  0.00    -0.211 N 
ATOM     17  C   UNL d   1      30.414 -23.736  -3.502  0.00  0.00     0.169 C 
ATOM     18  C   UNL d   1      29.512 -23.752  -2.240  0.00  0.00     0.255 C 
ATOM     19  N   UNL d   1      30.392 -23.770  -0.935  0.00  0.00    -0.068 N 
ATOM     20  C   UNL d   1      31.447 -22.614  -0.981  0.00  0.00     0.255 C 
ATOM     21  H   UNL d   1      30.924 -24.649  -0.975  0.00  0.00     0.280 HD
ATOM     22  C   UNL d   1      32.270 -22.665  -2.302  0.00  0.00     0.169 C 
BRANCH  19  23
ATOM     23  C   UNL d   1      29.655 -23.868   0.400  0.00  0.00     0.230 C 
ATOM     24  C   UNL d   1      29.317 -22.515   0.980  0.00  0.00     0.034 C 
ENDBRANCH  19  23
ENDBRANCH  12  16
ENDBRANCH   1   9
BRANCH   6  25
ATOM     25  N   UNL d   1      29.445 -15.072  -7.126  0.00  0.00    -0.196 NA
ATOM     26  H   UNL d   1      28.849 -14.947  -7.940  0.00  0.00     0.139 HD
BRANCH  25  27
ATOM     27  C   UNL d   1      28.640 -15.045  -5.966  0.00  0.00     0.209 C 
ATOM     28  N   UNL d   1      29.366 -14.978  -4.854  0.00  0.00    -0.223 NA
ATOM     29  C   UNL d   1      28.691 -15.178  -3.721  0.00  0.00     0.043 C 
ATOM     30  C   UNL d   1      29.471 -14.805  -2.497  0.00  0.00     0.071 C 
ATOM     31  C   UNL d   1      27.317 -15.575  -3.591  0.00  0.00     0.004 C 
ATOM     32  C   UNL d   1      26.474 -16.099  -2.474  0.00  0.00     0.064 C 
ATOM     33  C   UNL d   1      26.615 -15.047  -4.638  0.00  0.00     0.069 C 
ATOM     34  C   UNL d   1      26.121 -15.134  -1.592  0.00  0.00    -0.074 C 
ATOM     35  C   UNL d   1      27.209 -14.730  -0.630  0.00  0.00     0.044 C 
ATOM     36  C   UNL d   1      25.260 -14.411  -2.405  0.00  0.00     0.005 C 
ATOM     37  C   UNL d   1      25.384 -14.589  -3.980  0.00  0.00     0.032 C 
ATOM     38  N   UNL d   1      27.267 -15.025  -5.905  0.00  0.00    -0.218 NA
ENDBRANCH  25  27
ENDBRANCH   6  25
TORSDOF 5
ENDMDL
