MODEL 1
REMARK VINA RESULT:    -8.488      0.000      0.000
REMARK INTER + INTRA:         -12.322
REMARK INTER:                 -10.875
REMARK INTRA:                  -1.447
REMARK CONF_INDEPENDENT:        2.386
REMARK UNBOUND:                -1.447
REMARK  8 active torsions:
REMARK  status: ('A' for Active; 'I' for Inactive)
REMARK    1  A    between atoms: C_2  and  C_4 
REMARK    2  A    between atoms: C_4  and  N_5 
REMARK       I    between atoms: N_5  and  C_6 
REMARK       I    between atoms: C_6  and  N_8 
REMARK    3  A    between atoms: N_8  and  N_9 
REMARK       I    between atoms: N_9  and  C_10 
REMARK    4  A    between atoms: C_10  and  C_12 
REMARK    5  A    between atoms: C_12  and  C_13 
REMARK    6  A    between atoms: C_13  and  C_14 
REMARK    7  A    between atoms: C_14  and  O_15 
REMARK    8  A    between atoms: O_15  and  C_16 
ROOT
ATOM      1  N   UNL d   1      23.715 -17.795  -0.619  0.00  0.00    -0.266 N 
ATOM      2  C   UNL d   1      25.050 -17.722  -0.237  0.00  0.00     0.236 C 
ATOM      3  O   UNL d   1      25.556 -18.572   0.498  0.00  0.00    -0.272 OA
ATOM      4  H   UNL d   1      23.248 -17.119  -1.222  0.00  0.00     0.190 HD
ENDROOT
BRANCH   2   5
ATOM      5  C   UNL d   1      25.851 -16.522  -0.784  0.00  0.00     0.106 C 
BRANCH   5   6
ATOM      6  C   UNL d   1      25.488 -16.185  -2.249  0.00  0.00     0.036 C 
BRANCH   6   7
ATOM      7  C   UNL d   1      25.151 -14.703  -2.488  0.00  0.00     0.176 C 
BRANCH   7   8
ATOM      8  O   UNL d   1      24.846 -14.509  -3.881  0.00  0.00    -0.351 OA
BRANCH   8   9
ATOM      9  C   UNL d   1      25.884 -14.064  -4.661  0.00  0.00     0.071 A 
ATOM     10  C   UNL d   1      26.143 -12.714  -4.920  0.00  0.00     0.037 A 
ATOM     11  C   UNL d   1      27.251 -12.335  -5.689  0.00  0.00     0.006 A 
ATOM     12  C   UNL d   1      28.112 -13.304  -6.198  0.00  0.00     0.042 A 
ATOM     13  C   UNL d   1      27.866 -14.643  -5.918  0.00  0.00     0.119 A 
ATOM     14  F   UNL d   1      28.700 -15.574  -6.401  0.00  0.00    -0.206 F 
ATOM     15  C   UNL d   1      26.771 -15.029  -5.146  0.00  0.00     0.079 A 
ENDBRANCH   8   9
ENDBRANCH   7   8
ENDBRANCH   6   7
ENDBRANCH   5   6
ENDBRANCH   2   5
BRANCH   1  16
ATOM     16  N   UNL d   1      22.898 -18.879  -0.147  0.00  0.00    -0.249 N 
ATOM     17  C   UNL d   1      21.539 -18.887  -0.422  0.00  0.00     0.334 C 
ATOM     18  N   UNL d   1      20.849 -19.972   0.087  0.00  0.00    -0.341 N 
ATOM     19  O   UNL d   1      20.997 -17.990  -1.069  0.00  0.00    -0.246 OA
ATOM     20  H   UNL d   1      21.350 -20.678   0.606  0.00  0.00     0.164 HD
ATOM     21  H   UNL d   1      23.381 -19.609   0.370  0.00  0.00     0.192 HD
BRANCH  18  22
ATOM     22  C   UNL d   1      19.407 -20.146  -0.135  0.00  0.00     0.128 C 
BRANCH  22  23
ATOM     23  C   UNL d   1      18.589 -20.482   1.134  0.00  0.00    -0.005 C 
ATOM     24  C   UNL d   1      17.939 -21.872   1.030  0.00  0.00     0.011 C 
ATOM     25  C   UNL d   1      19.467 -20.448   2.385  0.00  0.00     0.011 C 
ENDBRANCH  22  23
ENDBRANCH  18  22
ENDBRANCH   1  16
TORSDOF 8
ENDMDL
MODEL 2
REMARK VINA RESULT:    -8.431      0.977      1.416
REMARK INTER + INTRA:         -12.269
REMARK INTER:                 -10.818
REMARK INTRA:                  -1.451
REMARK CONF_INDEPENDENT:        2.386
REMARK UNBOUND:                -1.451
REMARK  8 active torsions:
REMARK  status: ('A' for Active; 'I' for Inactive)
REMARK    1  A    between atoms: C_2  and  C_4 
REMARK    2  A    between atoms: C_4  and  N_5 
REMARK       I    between atoms: N_5  and  C_6 
REMARK       I    between atoms: C_6  and  N_8 
REMARK    3  A    between atoms: N_8  and  N_9 
REMARK       I    between atoms: N_9  and  C_10 
REMARK    4  A    between atoms: C_10  and  C_12 
REMARK    5  A    between atoms: C_12  and  C_13 
REMARK    6  A    between atoms: C_13  and  C_14 
REMARK    7  A    between atoms: C_14  and  O_15 
REMARK    8  A    between atoms: O_15  and  C_16 
ROOT
ATOM      1  N   UNL d   1      23.671 -17.866  -0.708  0.00  0.00    -0.266 N 
ATOM      2  C   UNL d   1      25.005 -17.795  -0.321  0.00  0.00     0.236 C 
ATOM      3  O   UNL d   1      25.474 -18.566   0.518  0.00  0.00    -0.272 OA
ATOM      4  H   UNL d   1      23.233 -17.254  -1.393  0.00  0.00     0.190 HD
ENDROOT
BRANCH   2   5
ATOM      5  C   UNL d   1      25.852 -16.698  -1.000  0.00  0.00     0.106 C 
BRANCH   5   6
ATOM      6  C   UNL d   1      25.303 -16.298  -2.389  0.00  0.00     0.036 C 
BRANCH   6   7
ATOM      7  C   UNL d   1      24.965 -14.803  -2.523  0.00  0.00     0.176 C 
BRANCH   7   8
ATOM      8  O   UNL d   1      24.779 -14.488  -3.915  0.00  0.00    -0.351 OA
BRANCH   8   9
ATOM      9  C   UNL d   1      25.923 -14.210  -4.621  0.00  0.00     0.071 A 
ATOM     10  C   UNL d   1      26.824 -15.184  -5.063  0.00  0.00     0.037 A 
ATOM     11  C   UNL d   1      27.947 -14.824  -5.821  0.00  0.00     0.006 A 
ATOM     12  C   UNL d   1      28.171 -13.489  -6.146  0.00  0.00     0.042 A 
ATOM     13  C   UNL d   1      27.260 -12.527  -5.727  0.00  0.00     0.119 A 
ATOM     14  F   UNL d   1      27.471 -11.244  -6.050  0.00  0.00    -0.206 F 
ATOM     15  C   UNL d   1      26.134 -12.876  -4.981  0.00  0.00     0.079 A 
ENDBRANCH   8   9
ENDBRANCH   7   8
ENDBRANCH   6   7
ENDBRANCH   5   6
ENDBRANCH   2   5
BRANCH   1  16
ATOM     16  N   UNL d   1      22.812 -18.856  -0.117  0.00  0.00    -0.249 N 
ATOM     17  C   UNL d   1      21.463 -18.878  -0.441  0.00  0.00     0.334 C 
ATOM     18  N   UNL d   1      20.729 -19.865   0.191  0.00  0.00    -0.341 N 
ATOM     19  O   UNL d   1      20.966 -18.073  -1.230  0.00  0.00    -0.246 OA
ATOM     20  H   UNL d   1      21.194 -20.499   0.824  0.00  0.00     0.164 HD
ATOM     21  H   UNL d   1      23.258 -19.513   0.517  0.00  0.00     0.192 HD
BRANCH  18  22
ATOM     22  C   UNL d   1      19.292 -20.042  -0.060  0.00  0.00     0.128 C 
BRANCH  22  23
ATOM     23  C   UNL d   1      18.471 -20.510   1.165  0.00  0.00    -0.005 C 
ATOM     24  C   UNL d   1      17.961 -21.949   0.980  0.00  0.00     0.011 C 
ATOM     25  C   UNL d   1      19.302 -20.449   2.446  0.00  0.00     0.011 C 
ENDBRANCH  22  23
ENDBRANCH  18  22
ENDBRANCH   1  16
TORSDOF 8
ENDMDL
MODEL 3
REMARK VINA RESULT:    -8.064      1.746      2.072
REMARK INTER + INTRA:         -11.865
REMARK INTER:                 -10.450
REMARK INTRA:                  -1.415
REMARK CONF_INDEPENDENT:        2.386
REMARK UNBOUND:                -1.415
REMARK  8 active torsions:
REMARK  status: ('A' for Active; 'I' for Inactive)
REMARK    1  A    between atoms: C_2  and  C_4 
REMARK    2  A    between atoms: C_4  and  N_5 
REMARK       I    between atoms: N_5  and  C_6 
REMARK       I    between atoms: C_6  and  N_8 
REMARK    3  A    between atoms: N_8  and  N_9 
REMARK       I    between atoms: N_9  and  C_10 
REMARK    4  A    between atoms: C_10  and  C_12 
REMARK    5  A    between atoms: C_12  and  C_13 
REMARK    6  A    between atoms: C_13  and  C_14 
REMARK    7  A    between atoms: C_14  and  O_15 
REMARK    8  A    between atoms: O_15  and  C_16 
ROOT
ATOM      1  N   UNL d   1      23.766 -17.939  -0.743  0.00  0.00    -0.266 N 
ATOM      2  C   UNL d   1      25.087 -17.832  -0.325  0.00  0.00     0.236 C 
ATOM      3  O   UNL d   1      25.551 -18.575   0.543  0.00  0.00    -0.272 OA
ATOM      4  H   UNL d   1      23.333 -17.351  -1.453  0.00  0.00     0.190 HD
ENDROOT
BRANCH   2   5
ATOM      5  C   UNL d   1      25.930 -16.735  -1.008  0.00  0.00     0.106 C 
BRANCH   5   6
ATOM      6  C   UNL d   1      25.109 -15.895  -2.014  0.00  0.00     0.036 C 
BRANCH   6   7
ATOM      7  C   UNL d   1      25.859 -15.566  -3.316  0.00  0.00     0.176 C 
BRANCH   7   8
ATOM      8  O   UNL d   1      25.126 -14.558  -4.037  0.00  0.00    -0.351 OA
BRANCH   8   9
ATOM      9  C   UNL d   1      25.583 -13.271  -3.891  0.00  0.00     0.071 A 
ATOM     10  C   UNL d   1      26.164 -12.777  -2.719  0.00  0.00     0.037 A 
ATOM     11  C   UNL d   1      26.650 -11.464  -2.663  0.00  0.00     0.006 A 
ATOM     12  C   UNL d   1      26.563 -10.640  -3.782  0.00  0.00     0.042 A 
ATOM     13  C   UNL d   1      26.008 -11.142  -4.953  0.00  0.00     0.119 A 
ATOM     14  F   UNL d   1      25.935 -10.351  -6.032  0.00  0.00    -0.206 F 
ATOM     15  C   UNL d   1      25.531 -12.451  -5.021  0.00  0.00     0.079 A 
ENDBRANCH   8   9
ENDBRANCH   7   8
ENDBRANCH   6   7
ENDBRANCH   5   6
ENDBRANCH   2   5
BRANCH   1  16
ATOM     16  N   UNL d   1      22.911 -18.932  -0.151  0.00  0.00    -0.249 N 
ATOM     17  C   UNL d   1      21.555 -18.935  -0.442  0.00  0.00     0.334 C 
ATOM     18  N   UNL d   1      20.827 -19.928   0.187  0.00  0.00    -0.341 N 
ATOM     19  O   UNL d   1      21.047 -18.110  -1.203  0.00  0.00    -0.246 OA
ATOM     20  H   UNL d   1      21.301 -20.578   0.796  0.00  0.00     0.164 HD
ATOM     21  H   UNL d   1      23.367 -19.606   0.458  0.00  0.00     0.192 HD
BRANCH  18  22
ATOM     22  C   UNL d   1      19.383 -20.086  -0.032  0.00  0.00     0.128 C 
BRANCH  22  23
ATOM     23  C   UNL d   1      18.551 -20.313   1.253  0.00  0.00    -0.005 C 
ATOM     24  C   UNL d   1      17.680 -21.575   1.141  0.00  0.00     0.011 C 
ATOM     25  C   UNL d   1      19.452 -20.450   2.480  0.00  0.00     0.011 C 
ENDBRANCH  22  23
ENDBRANCH  18  22
ENDBRANCH   1  16
TORSDOF 8
ENDMDL
MODEL 4
REMARK VINA RESULT:    -7.574      5.041      9.544
REMARK INTER + INTRA:         -11.288
REMARK INTER:                  -9.960
REMARK INTRA:                  -1.328
REMARK CONF_INDEPENDENT:        2.386
REMARK UNBOUND:                -1.328
REMARK  8 active torsions:
REMARK  status: ('A' for Active; 'I' for Inactive)
REMARK    1  A    between atoms: C_2  and  C_4 
REMARK    2  A    between atoms: C_4  and  N_5 
REMARK       I    between atoms: N_5  and  C_6 
REMARK       I    between atoms: C_6  and  N_8 
REMARK    3  A    between atoms: N_8  and  N_9 
REMARK       I    between atoms: N_9  and  C_10 
REMARK    4  A    between atoms: C_10  and  C_12 
REMARK    5  A    between atoms: C_12  and  C_13 
REMARK    6  A    between atoms: C_13  and  C_14 
REMARK    7  A    between atoms: C_14  and  O_15 
REMARK    8  A    between atoms: O_15  and  C_16 
ROOT
ATOM      1  N   UNL d   1      26.274 -16.065   0.015  0.00  0.00    -0.266 N 
ATOM      2  C   UNL d   1      25.783 -17.326  -0.303  0.00  0.00     0.236 C 
ATOM      3  O   UNL d   1      26.299 -18.350   0.148  0.00  0.00    -0.272 OA
ATOM      4  H   UNL d   1      25.887 -15.188  -0.331  0.00  0.00     0.190 HD
ENDROOT
BRANCH   2   5
ATOM      5  C   UNL d   1      24.564 -17.364  -1.249  0.00  0.00     0.106 C 
BRANCH   5   6
ATOM      6  C   UNL d   1      23.575 -18.500  -0.898  0.00  0.00     0.036 C 
BRANCH   6   7
ATOM      7  C   UNL d   1      22.321 -18.029  -0.141  0.00  0.00     0.176 C 
BRANCH   7   8
ATOM      8  O   UNL d   1      21.156 -18.603  -0.761  0.00  0.00    -0.351 OA
BRANCH   8   9
ATOM      9  C   UNL d   1      20.327 -19.313   0.072  0.00  0.00     0.071 A 
ATOM     10  C   UNL d   1      20.445 -19.325   1.465  0.00  0.00     0.037 A 
ATOM     11  C   UNL d   1      19.529 -20.038   2.252  0.00  0.00     0.006 A 
ATOM     12  C   UNL d   1      18.487 -20.736   1.649  0.00  0.00     0.042 A 
ATOM     13  C   UNL d   1      18.358 -20.701   0.265  0.00  0.00     0.119 A 
ATOM     14  F   UNL d   1      17.348 -21.365  -0.313  0.00  0.00    -0.206 F 
ATOM     15  C   UNL d   1      19.258 -19.987  -0.525  0.00  0.00     0.079 A 
ENDBRANCH   8   9
ENDBRANCH   7   8
ENDBRANCH   6   7
ENDBRANCH   5   6
ENDBRANCH   2   5
BRANCH   1  16
ATOM     16  N   UNL d   1      27.411 -15.943   0.884  0.00  0.00    -0.249 N 
ATOM     17  C   UNL d   1      27.609 -14.771   1.600  0.00  0.00     0.334 C 
ATOM     18  N   UNL d   1      28.738 -14.761   2.399  0.00  0.00    -0.341 N 
ATOM     19  O   UNL d   1      26.833 -13.818   1.522  0.00  0.00    -0.246 OA
ATOM     20  H   UNL d   1      29.333 -15.574   2.425  0.00  0.00     0.164 HD
ATOM     21  H   UNL d   1      28.021 -16.754   0.937  0.00  0.00     0.192 HD
BRANCH  18  22
ATOM     22  C   UNL d   1      29.080 -13.606   3.240  0.00  0.00     0.128 C 
BRANCH  22  23
ATOM     23  C   UNL d   1      28.742 -13.772   4.741  0.00  0.00    -0.005 C 
ATOM     24  C   UNL d   1      27.743 -12.701   5.212  0.00  0.00     0.011 C 
ATOM     25  C   UNL d   1      28.149 -15.151   5.027  0.00  0.00     0.011 C 
ENDBRANCH  22  23
ENDBRANCH  18  22
ENDBRANCH   1  16
TORSDOF 8
ENDMDL
MODEL 5
REMARK VINA RESULT:    -7.573      3.589      9.993
REMARK INTER + INTRA:         -11.412
REMARK INTER:                  -9.960
REMARK INTRA:                  -1.453
REMARK CONF_INDEPENDENT:        2.386
REMARK UNBOUND:                -1.453
REMARK  8 active torsions:
REMARK  status: ('A' for Active; 'I' for Inactive)
REMARK    1  A    between atoms: C_2  and  C_4 
REMARK    2  A    between atoms: C_4  and  N_5 
REMARK       I    between atoms: N_5  and  C_6 
REMARK       I    between atoms: C_6  and  N_8 
REMARK    3  A    between atoms: N_8  and  N_9 
REMARK       I    between atoms: N_9  and  C_10 
REMARK    4  A    between atoms: C_10  and  C_12 
REMARK    5  A    between atoms: C_12  and  C_13 
REMARK    6  A    between atoms: C_13  and  C_14 
REMARK    7  A    between atoms: C_14  and  O_15 
REMARK    8  A    between atoms: O_15  and  C_16 
ROOT
ATOM      1  N   UNL d   1      24.756 -16.296  -1.977  0.00  0.00    -0.266 N 
ATOM      2  C   UNL d   1      24.781 -17.090  -0.836  0.00  0.00     0.236 C 
ATOM      3  O   UNL d   1      25.838 -17.536  -0.385  0.00  0.00    -0.272 OA
ATOM      4  H   UNL d   1      23.912 -15.905  -2.392  0.00  0.00     0.190 HD
ENDROOT
BRANCH   2   5
ATOM      5  C   UNL d   1      23.417 -17.377  -0.175  0.00  0.00     0.106 C 
BRANCH   5   6
ATOM      6  C   UNL d   1      22.941 -18.831  -0.402  0.00  0.00     0.036 C 
BRANCH   6   7
ATOM      7  C   UNL d   1      21.689 -18.951  -1.286  0.00  0.00     0.176 C 
BRANCH   7   8
ATOM      8  O   UNL d   1      20.561 -18.402  -0.580  0.00  0.00    -0.351 OA
BRANCH   8   9
ATOM      9  C   UNL d   1      19.784 -19.308   0.098  0.00  0.00     0.071 A 
ATOM     10  C   UNL d   1      18.780 -20.076  -0.499  0.00  0.00     0.037 A 
ATOM     11  C   UNL d   1      18.060 -21.016   0.250  0.00  0.00     0.006 A 
ATOM     12  C   UNL d   1      18.345 -21.198   1.602  0.00  0.00     0.042 A 
ATOM     13  C   UNL d   1      19.361 -20.451   2.186  0.00  0.00     0.119 A 
ATOM     14  F   UNL d   1      19.642 -20.634   3.483  0.00  0.00    -0.206 F 
ATOM     15  C   UNL d   1      20.089 -19.520   1.446  0.00  0.00     0.079 A 
ENDBRANCH   8   9
ENDBRANCH   7   8
ENDBRANCH   6   7
ENDBRANCH   5   6
ENDBRANCH   2   5
BRANCH   1  16
ATOM     16  N   UNL d   1      25.985 -15.989  -2.656  0.00  0.00    -0.249 N 
ATOM     17  C   UNL d   1      25.962 -15.201  -3.798  0.00  0.00     0.334 C 
ATOM     18  N   UNL d   1      27.198 -14.975  -4.374  0.00  0.00    -0.341 N 
ATOM     19  O   UNL d   1      24.913 -14.745  -4.257  0.00  0.00    -0.246 OA
ATOM     20  H   UNL d   1      28.022 -15.372  -3.949  0.00  0.00     0.164 HD
ATOM     21  H   UNL d   1      26.831 -16.368  -2.241  0.00  0.00     0.192 HD
BRANCH  18  22
ATOM     22  C   UNL d   1      27.352 -14.142  -5.574  0.00  0.00     0.128 C 
BRANCH  22  23
ATOM     23  C   UNL d   1      28.789 -14.084  -6.146  0.00  0.00    -0.005 C 
ATOM     24  C   UNL d   1      29.465 -15.465  -6.101  0.00  0.00     0.011 C 
ATOM     25  C   UNL d   1      28.792 -13.587  -7.591  0.00  0.00     0.011 C 
ENDBRANCH  22  23
ENDBRANCH  18  22
ENDBRANCH   1  16
TORSDOF 8
ENDMDL
MODEL 6
REMARK VINA RESULT:    -7.536      1.719      2.078
REMARK INTER + INTRA:         -11.410
REMARK INTER:                  -9.922
REMARK INTRA:                  -1.488
REMARK CONF_INDEPENDENT:        2.386
REMARK UNBOUND:                -1.488
REMARK  8 active torsions:
REMARK  status: ('A' for Active; 'I' for Inactive)
REMARK    1  A    between atoms: C_2  and  C_4 
REMARK    2  A    between atoms: C_4  and  N_5 
REMARK       I    between atoms: N_5  and  C_6 
REMARK       I    between atoms: C_6  and  N_8 
REMARK    3  A    between atoms: N_8  and  N_9 
REMARK       I    between atoms: N_9  and  C_10 
REMARK    4  A    between atoms: C_10  and  C_12 
REMARK    5  A    between atoms: C_12  and  C_13 
REMARK    6  A    between atoms: C_13  and  C_14 
REMARK    7  A    between atoms: C_14  and  O_15 
REMARK    8  A    between atoms: O_15  and  C_16 
ROOT
ATOM      1  N   UNL d   1      23.658 -17.558  -0.430  0.00  0.00    -0.266 N 
ATOM      2  C   UNL d   1      24.985 -17.451  -0.029  0.00  0.00     0.236 C 
ATOM      3  O   UNL d   1      25.520 -18.318   0.664  0.00  0.00    -0.272 OA
ATOM      4  H   UNL d   1      23.168 -16.871  -1.000  0.00  0.00     0.190 HD
ENDROOT
BRANCH   2   5
ATOM      5  C   UNL d   1      25.739 -16.190  -0.500  0.00  0.00     0.106 C 
BRANCH   5   6
ATOM      6  C   UNL d   1      27.218 -16.180  -0.050  0.00  0.00     0.036 C 
BRANCH   6   7
ATOM      7  C   UNL d   1      28.221 -16.459  -1.184  0.00  0.00     0.176 C 
BRANCH   7   8
ATOM      8  O   UNL d   1      28.426 -15.249  -1.936  0.00  0.00    -0.351 OA
BRANCH   8   9
ATOM      9  C   UNL d   1      27.346 -14.807  -2.659  0.00  0.00     0.071 A 
ATOM     10  C   UNL d   1      26.668 -13.612  -2.398  0.00  0.00     0.037 A 
ATOM     11  C   UNL d   1      25.602 -13.204  -3.212  0.00  0.00     0.006 A 
ATOM     12  C   UNL d   1      25.212 -13.988  -4.295  0.00  0.00     0.042 A 
ATOM     13  C   UNL d   1      25.904 -15.162  -4.567  0.00  0.00     0.119 A 
ATOM     14  F   UNL d   1      25.535 -15.909  -5.616  0.00  0.00    -0.206 F 
ATOM     15  C   UNL d   1      26.973 -15.570  -3.769  0.00  0.00     0.079 A 
ENDBRANCH   8   9
ENDBRANCH   7   8
ENDBRANCH   6   7
ENDBRANCH   5   6
ENDBRANCH   2   5
BRANCH   1  16
ATOM     16  N   UNL d   1      22.884 -18.700  -0.028  0.00  0.00    -0.249 N 
ATOM     17  C   UNL d   1      21.531 -18.756  -0.329  0.00  0.00     0.334 C 
ATOM     18  N   UNL d   1      20.883 -19.895   0.113  0.00  0.00    -0.341 N 
ATOM     19  O   UNL d   1      20.959 -17.852  -0.941  0.00  0.00    -0.246 OA
ATOM     20  H   UNL d   1      21.406 -20.603   0.605  0.00  0.00     0.164 HD
ATOM     21  H   UNL d   1      23.391 -19.433   0.461  0.00  0.00     0.192 HD
BRANCH  18  22
ATOM     22  C   UNL d   1      19.454 -20.121  -0.145  0.00  0.00     0.128 C 
BRANCH  22  23
ATOM     23  C   UNL d   1      18.599 -20.385   1.117  0.00  0.00    -0.005 C 
ATOM     24  C   UNL d   1      17.837 -21.717   1.009  0.00  0.00     0.011 C 
ATOM     25  C   UNL d   1      19.465 -20.421   2.376  0.00  0.00     0.011 C 
ENDBRANCH  22  23
ENDBRANCH  18  22
ENDBRANCH   1  16
TORSDOF 8
ENDMDL
MODEL 7
REMARK VINA RESULT:    -7.077      1.745      2.328
REMARK INTER + INTRA:         -10.869
REMARK INTER:                  -9.464
REMARK INTRA:                  -1.405
REMARK CONF_INDEPENDENT:        2.386
REMARK UNBOUND:                -1.405
REMARK  8 active torsions:
REMARK  status: ('A' for Active; 'I' for Inactive)
REMARK    1  A    between atoms: C_2  and  C_4 
REMARK    2  A    between atoms: C_4  and  N_5 
REMARK       I    between atoms: N_5  and  C_6 
REMARK       I    between atoms: C_6  and  N_8 
REMARK    3  A    between atoms: N_8  and  N_9 
REMARK       I    between atoms: N_9  and  C_10 
REMARK    4  A    between atoms: C_10  and  C_12 
REMARK    5  A    between atoms: C_12  and  C_13 
REMARK    6  A    between atoms: C_13  and  C_14 
REMARK    7  A    between atoms: C_14  and  O_15 
REMARK    8  A    between atoms: O_15  and  C_16 
ROOT
ATOM      1  N   UNL d   1      23.395 -17.251  -1.070  0.00  0.00    -0.266 N 
ATOM      2  C   UNL d   1      24.773 -17.070  -1.036  0.00  0.00     0.236 C 
ATOM      3  O   UNL d   1      25.521 -17.910  -0.532  0.00  0.00    -0.272 OA
ATOM      4  H   UNL d   1      22.734 -16.588  -1.471  0.00  0.00     0.190 HD
ENDROOT
BRANCH   2   5
ATOM      5  C   UNL d   1      25.304 -15.762  -1.659  0.00  0.00     0.106 C 
BRANCH   5   6
ATOM      6  C   UNL d   1      25.503 -15.872  -3.189  0.00  0.00     0.036 C 
BRANCH   6   7
ATOM      7  C   UNL d   1      26.447 -14.809  -3.777  0.00  0.00     0.176 C 
BRANCH   7   8
ATOM      8  O   UNL d   1      26.863 -15.226  -5.091  0.00  0.00    -0.351 OA
BRANCH   8   9
ATOM      9  C   UNL d   1      28.215 -15.380  -5.267  0.00  0.00     0.071 A 
ATOM     10  C   UNL d   1      28.871 -15.187  -6.487  0.00  0.00     0.037 A 
ATOM     11  C   UNL d   1      30.263 -15.318  -6.577  0.00  0.00     0.006 A 
ATOM     12  C   UNL d   1      31.009 -15.635  -5.444  0.00  0.00     0.042 A 
ATOM     13  C   UNL d   1      30.357 -15.801  -4.228  0.00  0.00     0.119 A 
ATOM     14  F   UNL d   1      31.077 -16.096  -3.137  0.00  0.00    -0.206 F 
ATOM     15  C   UNL d   1      28.973 -15.664  -4.127  0.00  0.00     0.079 A 
ENDBRANCH   8   9
ENDBRANCH   7   8
ENDBRANCH   6   7
ENDBRANCH   5   6
ENDBRANCH   2   5
BRANCH   1  16
ATOM     16  N   UNL d   1      22.820 -18.439  -0.503  0.00  0.00    -0.249 N 
ATOM     17  C   UNL d   1      21.464 -18.688  -0.655  0.00  0.00     0.334 C 
ATOM     18  N   UNL d   1      21.016 -19.855  -0.064  0.00  0.00    -0.341 N 
ATOM     19  O   UNL d   1      20.722 -17.919  -1.270  0.00  0.00    -0.246 OA
ATOM     20  H   UNL d   1      21.673 -20.447   0.423  0.00  0.00     0.164 HD
ATOM     21  H   UNL d   1      23.463 -19.058  -0.017  0.00  0.00     0.192 HD
BRANCH  18  22
ATOM     22  C   UNL d   1      19.612 -20.278  -0.152  0.00  0.00     0.128 C 
BRANCH  22  23
ATOM     23  C   UNL d   1      19.116 -21.138   1.035  0.00  0.00    -0.005 C 
ATOM     24  C   UNL d   1      19.234 -20.377   2.366  0.00  0.00     0.011 C 
ATOM     25  C   UNL d   1      17.660 -21.562   0.844  0.00  0.00     0.011 C 
ENDBRANCH  22  23
ENDBRANCH  18  22
ENDBRANCH   1  16
TORSDOF 8
ENDMDL
MODEL 8
REMARK VINA RESULT:    -7.048      4.450      6.081
REMARK INTER + INTRA:         -10.834
REMARK INTER:                  -9.434
REMARK INTRA:                  -1.399
REMARK CONF_INDEPENDENT:        2.386
REMARK UNBOUND:                -1.399
REMARK  8 active torsions:
REMARK  status: ('A' for Active; 'I' for Inactive)
REMARK    1  A    between atoms: C_2  and  C_4 
REMARK    2  A    between atoms: C_4  and  N_5 
REMARK       I    between atoms: N_5  and  C_6 
REMARK       I    between atoms: C_6  and  N_8 
REMARK    3  A    between atoms: N_8  and  N_9 
REMARK       I    between atoms: N_9  and  C_10 
REMARK    4  A    between atoms: C_10  and  C_12 
REMARK    5  A    between atoms: C_12  and  C_13 
REMARK    6  A    between atoms: C_13  and  C_14 
REMARK    7  A    between atoms: C_14  and  O_15 
REMARK    8  A    between atoms: O_15  and  C_16 
ROOT
ATOM      1  N   UNL d   1      23.877 -17.642  -0.620  0.00  0.00    -0.266 N 
ATOM      2  C   UNL d   1      25.255 -17.605  -0.435  0.00  0.00     0.236 C 
ATOM      3  O   UNL d   1      25.851 -18.512   0.149  0.00  0.00    -0.272 OA
ATOM      4  H   UNL d   1      23.336 -16.920  -1.092  0.00  0.00     0.190 HD
ENDROOT
BRANCH   2   5
ATOM      5  C   UNL d   1      25.984 -16.368  -0.999  0.00  0.00     0.106 C 
BRANCH   5   6
ATOM      6  C   UNL d   1      25.912 -15.151  -0.047  0.00  0.00     0.036 C 
BRANCH   6   7
ATOM      7  C   UNL d   1      27.255 -14.786   0.608  0.00  0.00     0.176 C 
BRANCH   7   8
ATOM      8  O   UNL d   1      27.024 -13.806   1.637  0.00  0.00    -0.351 OA
BRANCH   8   9
ATOM      9  C   UNL d   1      27.790 -13.938   2.769  0.00  0.00     0.071 A 
ATOM     10  C   UNL d   1      29.110 -14.399   2.768  0.00  0.00     0.037 A 
ATOM     11  C   UNL d   1      29.844 -14.462   3.961  0.00  0.00     0.006 A 
ATOM     12  C   UNL d   1      29.262 -14.057   5.160  0.00  0.00     0.042 A 
ATOM     13  C   UNL d   1      27.958 -13.576   5.153  0.00  0.00     0.119 A 
ATOM     14  F   UNL d   1      27.404 -13.178   6.305  0.00  0.00    -0.206 F 
ATOM     15  C   UNL d   1      27.224 -13.502   3.970  0.00  0.00     0.079 A 
ENDBRANCH   8   9
ENDBRANCH   7   8
ENDBRANCH   6   7
ENDBRANCH   5   6
ENDBRANCH   2   5
BRANCH   1  16
ATOM     16  N   UNL d   1      23.122 -18.757  -0.118  0.00  0.00    -0.249 N 
ATOM     17  C   UNL d   1      21.779 -18.882  -0.442  0.00  0.00     0.334 C 
ATOM     18  N   UNL d   1      21.150 -19.987   0.102  0.00  0.00    -0.341 N 
ATOM     19  O   UNL d   1      21.201 -18.063  -1.158  0.00  0.00    -0.246 OA
ATOM     20  H   UNL d   1      21.679 -20.624   0.677  0.00  0.00     0.164 HD
ATOM     21  H   UNL d   1      23.636 -19.421   0.457  0.00  0.00     0.192 HD
BRANCH  18  22
ATOM     22  C   UNL d   1      19.734 -20.279  -0.163  0.00  0.00     0.128 C 
BRANCH  22  23
ATOM     23  C   UNL d   1      18.969 -20.914   1.022  0.00  0.00    -0.005 C 
ATOM     24  C   UNL d   1      18.642 -19.868   2.102  0.00  0.00     0.011 C 
ATOM     25  C   UNL d   1      17.663 -21.558   0.557  0.00  0.00     0.011 C 
ENDBRANCH  22  23
ENDBRANCH  18  22
ENDBRANCH   1  16
TORSDOF 8
ENDMDL
MODEL 9
REMARK VINA RESULT:    -6.941      1.536      2.014
REMARK INTER + INTRA:         -11.703
REMARK INTER:                  -9.327
REMARK INTRA:                  -2.376
REMARK CONF_INDEPENDENT:        2.386
REMARK UNBOUND:                -2.376
REMARK  8 active torsions:
REMARK  status: ('A' for Active; 'I' for Inactive)
REMARK    1  A    between atoms: C_2  and  C_4 
REMARK    2  A    between atoms: C_4  and  N_5 
REMARK       I    between atoms: N_5  and  C_6 
REMARK       I    between atoms: C_6  and  N_8 
REMARK    3  A    between atoms: N_8  and  N_9 
REMARK       I    between atoms: N_9  and  C_10 
REMARK    4  A    between atoms: C_10  and  C_12 
REMARK    5  A    between atoms: C_12  and  C_13 
REMARK    6  A    between atoms: C_13  and  C_14 
REMARK    7  A    between atoms: C_14  and  O_15 
REMARK    8  A    between atoms: O_15  and  C_16 
ROOT
ATOM      1  N   UNL d   1      25.061 -17.691  -0.230  0.00  0.00    -0.266 N 
ATOM      2  C   UNL d   1      26.350 -17.946   0.227  0.00  0.00     0.236 C 
ATOM      3  O   UNL d   1      26.602 -18.931   0.924  0.00  0.00    -0.272 OA
ATOM      4  H   UNL d   1      24.799 -16.893  -0.806  0.00  0.00     0.190 HD
ENDROOT
BRANCH   2   5
ATOM      5  C   UNL d   1      27.433 -16.930  -0.189  0.00  0.00     0.106 C 
BRANCH   5   6
ATOM      6  C   UNL d   1      27.330 -15.599   0.592  0.00  0.00     0.036 C 
BRANCH   6   7
ATOM      7  C   UNL d   1      26.443 -14.540  -0.086  0.00  0.00     0.176 C 
BRANCH   7   8
ATOM      8  O   UNL d   1      25.533 -15.198  -0.987  0.00  0.00    -0.351 OA
BRANCH   8   9
ATOM      9  C   UNL d   1      25.701 -14.911  -2.319  0.00  0.00     0.071 A 
ATOM     10  C   UNL d   1      24.883 -14.035  -3.038  0.00  0.00     0.037 A 
ATOM     11  C   UNL d   1      25.147 -13.757  -4.386  0.00  0.00     0.006 A 
ATOM     12  C   UNL d   1      26.237 -14.349  -5.020  0.00  0.00     0.042 A 
ATOM     13  C   UNL d   1      27.062 -15.200  -4.295  0.00  0.00     0.119 A 
ATOM     14  F   UNL d   1      28.116 -15.761  -4.904  0.00  0.00    -0.206 F 
ATOM     15  C   UNL d   1      26.813 -15.476  -2.951  0.00  0.00     0.079 A 
ENDBRANCH   8   9
ENDBRANCH   7   8
ENDBRANCH   6   7
ENDBRANCH   5   6
ENDBRANCH   2   5
BRANCH   1  16
ATOM     16  N   UNL d   1      23.993 -18.587   0.119  0.00  0.00    -0.249 N 
ATOM     17  C   UNL d   1      22.738 -18.416  -0.448  0.00  0.00     0.334 C 
ATOM     18  N   UNL d   1      21.785 -19.328  -0.035  0.00  0.00    -0.341 N 
ATOM     19  O   UNL d   1      22.502 -17.516  -1.254  0.00  0.00    -0.246 OA
ATOM     20  H   UNL d   1      22.040 -20.047   0.625  0.00  0.00     0.164 HD
ATOM     21  H   UNL d   1      24.228 -19.326   0.776  0.00  0.00     0.192 HD
BRANCH  18  22
ATOM     22  C   UNL d   1      20.412 -19.302  -0.558  0.00  0.00     0.128 C 
BRANCH  22  23
ATOM     23  C   UNL d   1      19.307 -19.517   0.504  0.00  0.00    -0.005 C 
ATOM     24  C   UNL d   1      18.446 -20.748   0.175  0.00  0.00     0.011 C 
ATOM     25  C   UNL d   1      19.906 -19.700   1.898  0.00  0.00     0.011 C 
ENDBRANCH  22  23
ENDBRANCH  18  22
ENDBRANCH   1  16
TORSDOF 8
ENDMDL
