MODEL 1
REMARK VINA RESULT:    -7.357      0.000      0.000
REMARK INTER + INTRA:          -9.128
REMARK INTER:                  -8.849
REMARK INTRA:                  -0.279
REMARK CONF_INDEPENDENT:        1.492
REMARK UNBOUND:                -0.279
REMARK  5 active torsions:
REMARK  status: ('A' for Active; 'I' for Inactive)
REMARK       I    between atoms: C_2  and  N_3 
REMARK    1  A    between atoms: C_2  and  C_9 
REMARK    2  A    between atoms: N_3  and  C_4 
REMARK    3  A    between atoms: C_4  and  C_5 
REMARK    4  A    between atoms: C_6  and  C_7 
REMARK    5  A    between atoms: C_7  and  O_8 
ROOT
ATOM      1  O   UNL d   1      20.873 -17.775  -1.231  0.00  0.00    -0.268 OA
ATOM      2  C   UNL d   1      21.211 -18.691  -0.482  0.00  0.00     0.251 C 
ATOM      3  N   UNL d   1      22.533 -19.055  -0.289  0.00  0.00    -0.353 N 
ATOM      4  H   UNL d   1      22.747 -19.899   0.226  0.00  0.00     0.163 HD
ENDROOT
BRANCH   2   5
ATOM      5  C   UNL d   1      20.157 -19.495   0.198  0.00  0.00     0.032 A 
ATOM      6  C   UNL d   1      19.089 -20.090  -0.485  0.00  0.00     0.017 A 
ATOM      7  C   UNL d   1      18.127 -20.822   0.230  0.00  0.00     0.001 A 
ATOM      8  C   UNL d   1      18.261 -21.015   1.606  0.00  0.00     0.000 A 
ATOM      9  C   UNL d   1      19.338 -20.449   2.283  0.00  0.00     0.001 A 
ATOM     10  C   UNL d   1      20.280 -19.691   1.582  0.00  0.00     0.017 A 
ENDBRANCH   2   5
BRANCH   3  11
ATOM     11  C   UNL d   1      23.574 -18.363  -1.031  0.00  0.00     0.150 C 
BRANCH  11  12
ATOM     12  C   UNL d   1      24.645 -17.837  -0.121  0.00  0.00    -0.009 C 
ATOM     13  C   UNL d   1      25.941 -18.195  -0.229  0.00  0.00    -0.004 C 
BRANCH  13  14
ATOM     14  C   UNL d   1      27.023 -17.665   0.661  0.00  0.00     0.191 C 
BRANCH  14  15
ATOM     15  O   UNL d   1      28.244 -17.600  -0.062  0.00  0.00    -0.397 OA
ATOM     16  H   UNL d   1      28.940 -17.964   0.509  0.00  0.00     0.209 HD
ENDBRANCH  14  15
ENDBRANCH  13  14
ENDBRANCH  11  12
ENDBRANCH   3  11
TORSDOF 5
ENDMDL
MODEL 2
REMARK VINA RESULT:    -6.818      2.041      6.857
REMARK INTER + INTRA:          -8.582
REMARK INTER:                  -8.309
REMARK INTRA:                  -0.272
REMARK CONF_INDEPENDENT:        1.492
REMARK UNBOUND:                -0.272
REMARK  5 active torsions:
REMARK  status: ('A' for Active; 'I' for Inactive)
REMARK       I    between atoms: C_2  and  N_3 
REMARK    1  A    between atoms: C_2  and  C_9 
REMARK    2  A    between atoms: N_3  and  C_4 
REMARK    3  A    between atoms: C_4  and  C_5 
REMARK    4  A    between atoms: C_6  and  C_7 
REMARK    5  A    between atoms: C_7  and  O_8 
ROOT
ATOM      1  O   UNL d   1      22.843 -19.300  -2.103  0.00  0.00    -0.268 OA
ATOM      2  C   UNL d   1      22.891 -18.633  -1.070  0.00  0.00     0.251 C 
ATOM      3  N   UNL d   1      21.786 -18.413  -0.265  0.00  0.00    -0.353 N 
ATOM      4  H   UNL d   1      21.847 -17.748   0.494  0.00  0.00     0.163 HD
ENDROOT
BRANCH   2   5
ATOM      5  C   UNL d   1      24.172 -17.971  -0.696  0.00  0.00     0.032 A 
ATOM      6  C   UNL d   1      25.091 -18.533   0.200  0.00  0.00     0.017 A 
ATOM      7  C   UNL d   1      26.272 -17.840   0.513  0.00  0.00     0.001 A 
ATOM      8  C   UNL d   1      26.568 -16.627  -0.111  0.00  0.00     0.000 A 
ATOM      9  C   UNL d   1      25.670 -16.080  -1.024  0.00  0.00     0.001 A 
ATOM     10  C   UNL d   1      24.478 -16.749  -1.313  0.00  0.00     0.017 A 
ENDBRANCH   2   5
BRANCH   3  11
ATOM     11  C   UNL d   1      20.497 -18.950  -0.669  0.00  0.00     0.150 C 
BRANCH  11  12
ATOM     12  C   UNL d   1      19.841 -19.712   0.445  0.00  0.00    -0.009 C 
ATOM     13  C   UNL d   1      18.778 -20.519   0.256  0.00  0.00    -0.004 C 
BRANCH  13  14
ATOM     14  C   UNL d   1      18.124 -21.298   1.356  0.00  0.00     0.191 C 
BRANCH  14  15
ATOM     15  O   UNL d   1      18.029 -22.664   0.978  0.00  0.00    -0.397 OA
ATOM     16  H   UNL d   1      17.318 -22.736   0.321  0.00  0.00     0.209 HD
ENDBRANCH  14  15
ENDBRANCH  13  14
ENDBRANCH  11  12
ENDBRANCH   3  11
TORSDOF 5
ENDMDL
MODEL 3
REMARK VINA RESULT:    -6.622      2.087      2.603
REMARK INTER + INTRA:          -8.423
REMARK INTER:                  -8.113
REMARK INTRA:                  -0.310
REMARK CONF_INDEPENDENT:        1.492
REMARK UNBOUND:                -0.310
REMARK  5 active torsions:
REMARK  status: ('A' for Active; 'I' for Inactive)
REMARK       I    between atoms: C_2  and  N_3 
REMARK    1  A    between atoms: C_2  and  C_9 
REMARK    2  A    between atoms: N_3  and  C_4 
REMARK    3  A    between atoms: C_4  and  C_5 
REMARK    4  A    between atoms: C_6  and  C_7 
REMARK    5  A    between atoms: C_7  and  O_8 
ROOT
ATOM      1  O   UNL d   1      21.870 -18.960  -1.749  0.00  0.00    -0.268 OA
ATOM      2  C   UNL d   1      21.895 -18.961  -0.518  0.00  0.00     0.251 C 
ATOM      3  N   UNL d   1      22.992 -18.538   0.211  0.00  0.00    -0.353 N 
ATOM      4  H   UNL d   1      23.014 -18.688   1.212  0.00  0.00     0.163 HD
ENDROOT
BRANCH   2   5
ATOM      5  C   UNL d   1      20.725 -19.504   0.227  0.00  0.00     0.032 A 
ATOM      6  C   UNL d   1      20.654 -19.531   1.625  0.00  0.00     0.017 A 
ATOM      7  C   UNL d   1      19.521 -20.072   2.255  0.00  0.00     0.001 A 
ATOM      8  C   UNL d   1      18.439 -20.525   1.499  0.00  0.00     0.000 A 
ATOM      9  C   UNL d   1      18.494 -20.473   0.109  0.00  0.00     0.001 A 
ATOM     10  C   UNL d   1      19.633 -19.966  -0.523  0.00  0.00     0.017 A 
ENDBRANCH   2   5
BRANCH   3  11
ATOM     11  C   UNL d   1      24.191 -18.113  -0.493  0.00  0.00     0.150 C 
BRANCH  11  12
ATOM     12  C   UNL d   1      24.019 -16.756  -1.109  0.00  0.00    -0.009 C 
ATOM     13  C   UNL d   1      24.937 -16.198  -1.924  0.00  0.00    -0.004 C 
BRANCH  13  14
ATOM     14  C   UNL d   1      24.770 -14.852  -2.560  0.00  0.00     0.191 C 
BRANCH  14  15
ATOM     15  O   UNL d   1      25.154 -14.922  -3.926  0.00  0.00    -0.397 OA
ATOM     16  H   UNL d   1      25.304 -14.013  -4.233  0.00  0.00     0.209 HD
ENDBRANCH  14  15
ENDBRANCH  13  14
ENDBRANCH  11  12
ENDBRANCH   3  11
TORSDOF 5
ENDMDL
MODEL 4
REMARK VINA RESULT:    -6.415      2.207      6.119
REMARK INTER + INTRA:          -8.291
REMARK INTER:                  -7.907
REMARK INTRA:                  -0.385
REMARK CONF_INDEPENDENT:        1.492
REMARK UNBOUND:                -0.385
REMARK  5 active torsions:
REMARK  status: ('A' for Active; 'I' for Inactive)
REMARK       I    between atoms: C_2  and  N_3 
REMARK    1  A    between atoms: C_2  and  C_9 
REMARK    2  A    between atoms: N_3  and  C_4 
REMARK    3  A    between atoms: C_4  and  C_5 
REMARK    4  A    between atoms: C_6  and  C_7 
REMARK    5  A    between atoms: C_7  and  O_8 
ROOT
ATOM      1  O   UNL d   1      21.033 -17.051  -1.023  0.00  0.00    -0.268 OA
ATOM      2  C   UNL d   1      21.829 -17.985  -0.925  0.00  0.00     0.251 C 
ATOM      3  N   UNL d   1      21.441 -19.313  -0.985  0.00  0.00    -0.353 N 
ATOM      4  H   UNL d   1      22.110 -20.038  -0.761  0.00  0.00     0.163 HD
ENDROOT
BRANCH   2   5
ATOM      5  C   UNL d   1      23.265 -17.687  -0.661  0.00  0.00     0.032 A 
ATOM      6  C   UNL d   1      24.122 -18.575  -0.001  0.00  0.00     0.017 A 
ATOM      7  C   UNL d   1      25.461 -18.214   0.224  0.00  0.00     0.001 A 
ATOM      8  C   UNL d   1      25.960 -17.004  -0.263  0.00  0.00     0.000 A 
ATOM      9  C   UNL d   1      25.117 -16.132  -0.946  0.00  0.00     0.001 A 
ATOM     10  C   UNL d   1      23.775 -16.472  -1.142  0.00  0.00     0.017 A 
ENDBRANCH   2   5
BRANCH   3  11
ATOM     11  C   UNL d   1      20.030 -19.633  -1.125  0.00  0.00     0.150 C 
BRANCH  11  12
ATOM     12  C   UNL d   1      19.350 -19.731   0.209  0.00  0.00    -0.009 C 
ATOM     13  C   UNL d   1      19.902 -20.351   1.271  0.00  0.00    -0.004 C 
BRANCH  13  14
ATOM     14  C   UNL d   1      19.242 -20.442   2.613  0.00  0.00     0.191 C 
BRANCH  14  15
ATOM     15  O   UNL d   1      20.234 -20.481   3.628  0.00  0.00    -0.397 OA
ATOM     16  H   UNL d   1      21.042 -20.083   3.263  0.00  0.00     0.209 HD
ENDBRANCH  14  15
ENDBRANCH  13  14
ENDBRANCH  11  12
ENDBRANCH   3  11
TORSDOF 5
ENDMDL
MODEL 5
REMARK VINA RESULT:    -5.766      3.500      7.524
REMARK INTER + INTRA:          -7.597
REMARK INTER:                  -7.258
REMARK INTRA:                  -0.339
REMARK CONF_INDEPENDENT:        1.492
REMARK UNBOUND:                -0.339
REMARK  5 active torsions:
REMARK  status: ('A' for Active; 'I' for Inactive)
REMARK       I    between atoms: C_2  and  N_3 
REMARK    1  A    between atoms: C_2  and  C_9 
REMARK    2  A    between atoms: N_3  and  C_4 
REMARK    3  A    between atoms: C_4  and  C_5 
REMARK    4  A    between atoms: C_6  and  C_7 
REMARK    5  A    between atoms: C_7  and  O_8 
ROOT
ATOM      1  O   UNL d   1      25.638 -16.063  -0.123  0.00  0.00    -0.268 OA
ATOM      2  C   UNL d   1      25.129 -16.332  -1.211  0.00  0.00     0.251 C 
ATOM      3  N   UNL d   1      24.354 -17.461  -1.419  0.00  0.00    -0.353 N 
ATOM      4  H   UNL d   1      24.075 -17.707  -2.359  0.00  0.00     0.163 HD
ENDROOT
BRANCH   2   5
ATOM      5  C   UNL d   1      25.408 -15.449  -2.377  0.00  0.00     0.032 A 
ATOM      6  C   UNL d   1      24.556 -14.412  -2.774  0.00  0.00     0.017 A 
ATOM      7  C   UNL d   1      24.882 -13.631  -3.895  0.00  0.00     0.001 A 
ATOM      8  C   UNL d   1      26.082 -13.840  -4.578  0.00  0.00     0.000 A 
ATOM      9  C   UNL d   1      26.946 -14.851  -4.168  0.00  0.00     0.001 A 
ATOM     10  C   UNL d   1      26.609 -15.653  -3.074  0.00  0.00     0.017 A 
ENDBRANCH   2   5
BRANCH   3  11
ATOM     11  C   UNL d   1      24.162 -18.400  -0.326  0.00  0.00     0.150 C 
BRANCH  11  12
ATOM     12  C   UNL d   1      22.808 -19.044  -0.382  0.00  0.00    -0.009 C 
ATOM     13  C   UNL d   1      21.698 -18.387  -0.774  0.00  0.00    -0.004 C 
BRANCH  13  14
ATOM     14  C   UNL d   1      20.343 -19.022  -0.851  0.00  0.00     0.191 C 
BRANCH  14  15
ATOM     15  O   UNL d   1      20.278 -19.865  -1.992  0.00  0.00    -0.397 OA
ATOM     16  H   UNL d   1      19.852 -19.360  -2.704  0.00  0.00     0.209 HD
ENDBRANCH  14  15
ENDBRANCH  13  14
ENDBRANCH  11  12
ENDBRANCH   3  11
TORSDOF 5
ENDMDL
MODEL 6
REMARK VINA RESULT:    -5.764      3.085      7.177
REMARK INTER + INTRA:          -7.623
REMARK INTER:                  -7.255
REMARK INTRA:                  -0.368
REMARK CONF_INDEPENDENT:        1.492
REMARK UNBOUND:                -0.368
REMARK  5 active torsions:
REMARK  status: ('A' for Active; 'I' for Inactive)
REMARK       I    between atoms: C_2  and  N_3 
REMARK    1  A    between atoms: C_2  and  C_9 
REMARK    2  A    between atoms: N_3  and  C_4 
REMARK    3  A    between atoms: C_4  and  C_5 
REMARK    4  A    between atoms: C_6  and  C_7 
REMARK    5  A    between atoms: C_7  and  O_8 
ROOT
ATOM      1  O   UNL d   1      22.970 -16.100  -0.713  0.00  0.00    -0.268 OA
ATOM      2  C   UNL d   1      24.010 -16.573  -1.172  0.00  0.00     0.251 C 
ATOM      3  N   UNL d   1      24.465 -17.840  -0.850  0.00  0.00    -0.353 N 
ATOM      4  H   UNL d   1      25.390 -18.127  -1.143  0.00  0.00     0.163 HD
ENDROOT
BRANCH   2   5
ATOM      5  C   UNL d   1      24.859 -15.728  -2.058  0.00  0.00     0.032 A 
ATOM      6  C   UNL d   1      24.364 -14.629  -2.769  0.00  0.00     0.017 A 
ATOM      7  C   UNL d   1      25.225 -13.889  -3.596  0.00  0.00     0.001 A 
ATOM      8  C   UNL d   1      26.584 -14.202  -3.664  0.00  0.00     0.000 A 
ATOM      9  C   UNL d   1      27.085 -15.277  -2.935  0.00  0.00     0.001 A 
ATOM     10  C   UNL d   1      26.225 -16.037  -2.137  0.00  0.00     0.017 A 
ENDBRANCH   2   5
BRANCH   3  11
ATOM     11  C   UNL d   1      23.716 -18.642   0.104  0.00  0.00     0.150 C 
BRANCH  11  12
ATOM     12  C   UNL d   1      22.500 -19.256  -0.523  0.00  0.00    -0.009 C 
ATOM     13  C   UNL d   1      21.243 -18.887  -0.204  0.00  0.00    -0.004 C 
BRANCH  13  14
ATOM     14  C   UNL d   1      20.020 -19.479  -0.834  0.00  0.00     0.191 C 
BRANCH  14  15
ATOM     15  O   UNL d   1      20.280 -19.759  -2.202  0.00  0.00    -0.397 OA
ATOM     16  H   UNL d   1      19.577 -19.340  -2.725  0.00  0.00     0.209 HD
ENDBRANCH  14  15
ENDBRANCH  13  14
ENDBRANCH  11  12
ENDBRANCH   3  11
TORSDOF 5
ENDMDL
MODEL 7
REMARK VINA RESULT:    -5.737      1.946      6.647
REMARK INTER + INTRA:          -7.515
REMARK INTER:                  -7.229
REMARK INTRA:                  -0.286
REMARK CONF_INDEPENDENT:        1.492
REMARK UNBOUND:                -0.286
REMARK  5 active torsions:
REMARK  status: ('A' for Active; 'I' for Inactive)
REMARK       I    between atoms: C_2  and  N_3 
REMARK    1  A    between atoms: C_2  and  C_9 
REMARK    2  A    between atoms: N_3  and  C_4 
REMARK    3  A    between atoms: C_4  and  C_5 
REMARK    4  A    between atoms: C_6  and  C_7 
REMARK    5  A    between atoms: C_7  and  O_8 
ROOT
ATOM      1  O   UNL d   1      22.851 -16.391  -1.273  0.00  0.00    -0.268 OA
ATOM      2  C   UNL d   1      23.468 -17.358  -0.826  0.00  0.00     0.251 C 
ATOM      3  N   UNL d   1      22.864 -18.574  -0.555  0.00  0.00    -0.353 N 
ATOM      4  H   UNL d   1      23.383 -19.289  -0.063  0.00  0.00     0.163 HD
ENDROOT
BRANCH   2   5
ATOM      5  C   UNL d   1      24.912 -17.204  -0.494  0.00  0.00     0.032 A 
ATOM      6  C   UNL d   1      25.622 -16.015  -0.702  0.00  0.00     0.017 A 
ATOM      7  C   UNL d   1      26.986 -15.952  -0.376  0.00  0.00     0.001 A 
ATOM      8  C   UNL d   1      27.625 -17.044   0.213  0.00  0.00     0.000 A 
ATOM      9  C   UNL d   1      26.914 -18.218   0.449  0.00  0.00     0.001 A 
ATOM     10  C   UNL d   1      25.565 -18.297   0.094  0.00  0.00     0.017 A 
ENDBRANCH   2   5
BRANCH   3  11
ATOM     11  C   UNL d   1      21.432 -18.716  -0.760  0.00  0.00     0.150 C 
BRANCH  11  12
ATOM     12  C   UNL d   1      20.833 -19.709   0.192  0.00  0.00    -0.009 C 
ATOM     13  C   UNL d   1      20.046 -19.350   1.227  0.00  0.00    -0.004 C 
BRANCH  13  14
ATOM     14  C   UNL d   1      19.427 -20.331   2.175  0.00  0.00     0.191 C 
BRANCH  14  15
ATOM     15  O   UNL d   1      20.246 -20.460   3.328  0.00  0.00    -0.397 OA
ATOM     16  H   UNL d   1      21.029 -20.976   3.074  0.00  0.00     0.209 HD
ENDBRANCH  14  15
ENDBRANCH  13  14
ENDBRANCH  11  12
ENDBRANCH   3  11
TORSDOF 5
ENDMDL
MODEL 8
REMARK VINA RESULT:    -5.695      3.763      7.821
REMARK INTER + INTRA:          -7.485
REMARK INTER:                  -7.187
REMARK INTRA:                  -0.298
REMARK CONF_INDEPENDENT:        1.492
REMARK UNBOUND:                -0.298
REMARK  5 active torsions:
REMARK  status: ('A' for Active; 'I' for Inactive)
REMARK       I    between atoms: C_2  and  N_3 
REMARK    1  A    between atoms: C_2  and  C_9 
REMARK    2  A    between atoms: N_3  and  C_4 
REMARK    3  A    between atoms: C_4  and  C_5 
REMARK    4  A    between atoms: C_6  and  C_7 
REMARK    5  A    between atoms: C_7  and  O_8 
ROOT
ATOM      1  O   UNL d   1      25.718 -15.656  -0.370  0.00  0.00    -0.268 OA
ATOM      2  C   UNL d   1      25.214 -15.973  -1.448  0.00  0.00     0.251 C 
ATOM      3  N   UNL d   1      24.318 -17.020  -1.579  0.00  0.00    -0.353 N 
ATOM      4  H   UNL d   1      24.041 -17.326  -2.502  0.00  0.00     0.163 HD
ENDROOT
BRANCH   2   5
ATOM      5  C   UNL d   1      25.632 -15.250  -2.681  0.00  0.00     0.032 A 
ATOM      6  C   UNL d   1      26.795 -15.563  -3.395  0.00  0.00     0.017 A 
ATOM      7  C   UNL d   1      27.129 -14.825  -4.542  0.00  0.00     0.001 A 
ATOM      8  C   UNL d   1      26.277 -13.824  -5.013  0.00  0.00     0.000 A 
ATOM      9  C   UNL d   1      25.104 -13.530  -4.322  0.00  0.00     0.001 A 
ATOM     10  C   UNL d   1      24.785 -14.239  -3.161  0.00  0.00     0.017 A 
ENDBRANCH   2   5
BRANCH   3  11
ATOM     11  C   UNL d   1      23.982 -17.817  -0.410  0.00  0.00     0.150 C 
BRANCH  11  12
ATOM     12  C   UNL d   1      22.498 -17.954  -0.241  0.00  0.00    -0.009 C 
ATOM     13  C   UNL d   1      21.767 -18.880  -0.894  0.00  0.00    -0.004 C 
BRANCH  13  14
ATOM     14  C   UNL d   1      20.287 -19.039  -0.721  0.00  0.00     0.191 C 
BRANCH  14  15
ATOM     15  O   UNL d   1      19.746 -19.700  -1.856  0.00  0.00    -0.397 OA
ATOM     16  H   UNL d   1      18.779 -19.616  -1.808  0.00  0.00     0.209 HD
ENDBRANCH  14  15
ENDBRANCH  13  14
ENDBRANCH  11  12
ENDBRANCH   3  11
TORSDOF 5
ENDMDL
MODEL 9
REMARK VINA RESULT:    -5.268      4.270      8.396
REMARK INTER + INTRA:          -7.056
REMARK INTER:                  -6.759
REMARK INTRA:                  -0.297
REMARK CONF_INDEPENDENT:        1.492
REMARK UNBOUND:                -0.297
REMARK  5 active torsions:
REMARK  status: ('A' for Active; 'I' for Inactive)
REMARK       I    between atoms: C_2  and  N_3 
REMARK    1  A    between atoms: C_2  and  C_9 
REMARK    2  A    between atoms: N_3  and  C_4 
REMARK    3  A    between atoms: C_4  and  C_5 
REMARK    4  A    between atoms: C_6  and  C_7 
REMARK    5  A    between atoms: C_7  and  O_8 
ROOT
ATOM      1  O   UNL d   1      24.409 -14.676  -2.899  0.00  0.00    -0.268 OA
ATOM      2  C   UNL d   1      25.373 -15.427  -2.750  0.00  0.00     0.251 C 
ATOM      3  N   UNL d   1      25.460 -16.342  -1.715  0.00  0.00    -0.353 N 
ATOM      4  H   UNL d   1      26.329 -16.835  -1.557  0.00  0.00     0.163 HD
ENDROOT
BRANCH   2   5
ATOM      5  C   UNL d   1      26.533 -15.306  -3.677  0.00  0.00     0.032 A 
ATOM      6  C   UNL d   1      26.407 -14.899  -5.011  0.00  0.00     0.017 A 
ATOM      7  C   UNL d   1      27.548 -14.823  -5.826  0.00  0.00     0.001 A 
ATOM      8  C   UNL d   1      28.814 -15.088  -5.300  0.00  0.00     0.000 A 
ATOM      9  C   UNL d   1      28.945 -15.464  -3.966  0.00  0.00     0.001 A 
ATOM     10  C   UNL d   1      27.809 -15.574  -3.160  0.00  0.00     0.017 A 
ENDBRANCH   2   5
BRANCH   3  11
ATOM     11  C   UNL d   1      24.394 -16.399  -0.728  0.00  0.00     0.150 C 
BRANCH  11  12
ATOM     12  C   UNL d   1      23.464 -17.549  -0.984  0.00  0.00    -0.009 C 
ATOM     13  C   UNL d   1      22.180 -17.561  -0.571  0.00  0.00    -0.004 C 
BRANCH  13  14
ATOM     14  C   UNL d   1      21.237 -18.694  -0.835  0.00  0.00     0.191 C 
BRANCH  14  15
ATOM     15  O   UNL d   1      19.908 -18.198  -0.908  0.00  0.00    -0.397 OA
ATOM     16  H   UNL d   1      19.896 -17.494  -1.576  0.00  0.00     0.209 HD
ENDBRANCH  14  15
ENDBRANCH  13  14
ENDBRANCH  11  12
ENDBRANCH   3  11
TORSDOF 5
ENDMDL
