MODEL 1
REMARK VINA RESULT:    -8.776      0.000      0.000
REMARK INTER + INTRA:         -16.101
REMARK INTER:                 -12.654
REMARK INTRA:                  -3.447
REMARK CONF_INDEPENDENT:        3.878
REMARK UNBOUND:                -3.447
REMARK  13 active torsions:
REMARK  status: ('A' for Active; 'I' for Inactive)
REMARK    1  A    between atoms: C_2  and  C_3 
REMARK    2  A    between atoms: C_3  and  O_4 
REMARK    3  A    between atoms: O_4  and  C_5 
REMARK    4  A    between atoms: C_6  and  C_5 
REMARK    5  A    between atoms: C_6  and  C_8 
REMARK    6  A    between atoms: C_6  and  O_7 
REMARK    7  A    between atoms: N_9  and  C_8 
REMARK    8  A    between atoms: N_9  and  C_28 
REMARK    9  A    between atoms: N_9  and  C_10 
REMARK   10  A    between atoms: C_10  and  C_11 
REMARK   11  A    between atoms: C_15  and  C_16 
REMARK   12  A    between atoms: C_16  and  O_18 
REMARK   13  A    between atoms: O_18  and  C_19 
ROOT
ATOM      1  C   UNL d   1      25.209 -14.912  -2.568  0.00  0.00     0.134 C 
ATOM      2  N   UNL d   1      25.547 -13.690  -2.254  0.00  0.00    -0.225 NA
ATOM      3  C   UNL d   1      26.053 -12.968  -3.319  0.00  0.00     0.116 C 
ATOM      4  S   UNL d   1      25.947 -11.252  -3.405  0.00  0.00    -0.063 SA
ATOM      5  C   UNL d   1      26.384 -11.205  -5.076  0.00  0.00     0.089 C 
ATOM      6  C   UNL d   1      26.870 -12.455  -5.453  0.00  0.00    -0.020 C 
ATOM      7  C   UNL d   1      27.780 -12.742  -6.590  0.00  0.00     0.051 C 
ATOM      8  C   UNL d   1      26.464 -13.483  -4.528  0.00  0.00     0.075 C 
ATOM      9  C   UNL d   1      26.471 -14.930  -4.627  0.00  0.00     0.260 C 
ATOM     10  O   UNL d   1      27.113 -15.575  -5.461  0.00  0.00    -0.267 OA
ATOM     11  N   UNL d   1      25.685 -15.568  -3.690  0.00  0.00    -0.309 N 
ATOM     12  H   UNL d   1      25.662 -16.576  -3.774  0.00  0.00     0.170 HD
ENDROOT
BRANCH   1  13
ATOM     13  C   UNL d   1      24.068 -15.637  -1.821  0.00  0.00     0.313 C 
BRANCH  13  14
ATOM     14  N   UNL d   1      24.473 -16.651  -0.690  0.00  0.00    -0.058 N 
ATOM     15  H   UNL d   1      23.865 -16.375   0.101  0.00  0.00     0.281 HD
BRANCH  14  16
ATOM     16  C   UNL d   1      25.938 -16.527  -0.226  0.00  0.00     0.188 C 
ATOM     17  C   UNL d   1      26.869 -17.047  -1.341  0.00  0.00     0.033 C 
ATOM     18  C   UNL d   1      28.333 -16.847  -1.047  0.00  0.00     0.002 C 
ATOM     19  C   UNL d   1      28.611 -15.396  -0.713  0.00  0.00     0.000 C 
ATOM     20  C   UNL d   1      27.761 -14.935   0.470  0.00  0.00     0.002 C 
ATOM     21  C   UNL d   1      26.274 -15.095   0.180  0.00  0.00     0.033 C 
ENDBRANCH  14  16
BRANCH  14  22
ATOM     22  C   UNL d   1      24.225 -18.173  -0.899  0.00  0.00     0.269 C 
BRANCH  22  23
ATOM     23  C   UNL d   1      22.966 -18.668  -0.288  0.00  0.00     0.167 C 
BRANCH  23  24
ATOM     24  O   UNL d   1      22.370 -17.650   0.531  0.00  0.00    -0.392 OA
ATOM     25  H   UNL d   1      21.475 -17.855   0.831  0.00  0.00     0.210 HD
ENDBRANCH  23  24
BRANCH  23  26
ATOM     26  C   UNL d   1      21.814 -18.950  -1.159  0.00  0.00     0.201 C 
BRANCH  26  27
ATOM     27  O   UNL d   1      20.686 -18.201  -0.838  0.00  0.00    -0.385 OA
BRANCH  27  28
ATOM     28  C   UNL d   1      19.652 -19.173  -0.893  0.00  0.00     0.194 C 
BRANCH  28  29
ATOM     29  C   UNL d   1      19.868 -20.096   0.220  0.00  0.00    -0.011 C 
ATOM     30  C   UNL d   1      18.812 -20.631   0.833  0.00  0.00     0.009 C 
ENDBRANCH  28  29
ENDBRANCH  27  28
ENDBRANCH  26  27
ENDBRANCH  23  26
ENDBRANCH  22  23
ENDBRANCH  14  22
ENDBRANCH  13  14
ENDBRANCH   1  13
BRANCH   5  31
ATOM     31  C   UNL d   1      26.369  -9.903  -5.747  0.00  0.00     0.301 C 
ATOM     32  O   UNL d   1      27.351  -9.313  -6.183  0.00  0.00    -0.259 OA
BRANCH  31  33
ATOM     33  O   UNL d   1      25.089  -9.453  -5.877  0.00  0.00    -0.312 OA
BRANCH  33  34
ATOM     34  C   UNL d   1      24.610  -8.467  -4.940  0.00  0.00     0.124 C 
ATOM     35  C   UNL d   1      25.592  -7.303  -4.850  0.00  0.00     0.040 C 
ATOM     36  C   UNL d   1      23.270  -7.941  -5.462  0.00  0.00     0.040 C 
ENDBRANCH  33  34
ENDBRANCH  31  33
ENDBRANCH   5  31
TORSDOF 13
ENDMDL
MODEL 2
REMARK VINA RESULT:    -8.279      4.167      7.515
REMARK INTER + INTRA:         -16.249
REMARK INTER:                 -12.157
REMARK INTRA:                  -4.092
REMARK CONF_INDEPENDENT:        3.878
REMARK UNBOUND:                -4.092
REMARK  13 active torsions:
REMARK  status: ('A' for Active; 'I' for Inactive)
REMARK    1  A    between atoms: C_2  and  C_3 
REMARK    2  A    between atoms: C_3  and  O_4 
REMARK    3  A    between atoms: O_4  and  C_5 
REMARK    4  A    between atoms: C_6  and  C_5 
REMARK    5  A    between atoms: C_6  and  C_8 
REMARK    6  A    between atoms: C_6  and  O_7 
REMARK    7  A    between atoms: N_9  and  C_8 
REMARK    8  A    between atoms: N_9  and  C_28 
REMARK    9  A    between atoms: N_9  and  C_10 
REMARK   10  A    between atoms: C_10  and  C_11 
REMARK   11  A    between atoms: C_15  and  C_16 
REMARK   12  A    between atoms: C_16  and  O_18 
REMARK   13  A    between atoms: O_18  and  C_19 
ROOT
ATOM      1  C   UNL d   1      29.481 -15.239   0.220  0.00  0.00     0.134 C 
ATOM      2  N   UNL d   1      29.688 -15.375  -1.062  0.00  0.00    -0.225 NA
ATOM      3  C   UNL d   1      28.540 -15.664  -1.778  0.00  0.00     0.116 C 
ATOM      4  S   UNL d   1      28.358 -15.246  -3.438  0.00  0.00    -0.063 SA
ATOM      5  C   UNL d   1      26.656 -15.543  -3.433  0.00  0.00     0.089 C 
ATOM      6  C   UNL d   1      26.316 -16.216  -2.261  0.00  0.00    -0.020 C 
ATOM      7  C   UNL d   1      25.125 -17.076  -2.051  0.00  0.00     0.051 C 
ATOM      8  C   UNL d   1      27.335 -16.070  -1.251  0.00  0.00     0.075 C 
ATOM      9  C   UNL d   1      27.325 -16.328   0.176  0.00  0.00     0.260 C 
ATOM     10  O   UNL d   1      26.481 -17.012   0.761  0.00  0.00    -0.267 OA
ATOM     11  N   UNL d   1      28.364 -15.740   0.867  0.00  0.00    -0.309 N 
ATOM     12  H   UNL d   1      28.345 -15.892   1.867  0.00  0.00     0.170 HD
ENDROOT
BRANCH   1  13
ATOM     13  C   UNL d   1      30.367 -14.304   1.073  0.00  0.00     0.313 C 
BRANCH  13  14
ATOM     14  N   UNL d   1      30.818 -14.825   2.486  0.00  0.00    -0.058 N 
ATOM     15  H   UNL d   1      30.534 -15.820   2.470  0.00  0.00     0.281 HD
BRANCH  14  16
ATOM     16  C   UNL d   1      30.098 -14.147   3.668  0.00  0.00     0.188 C 
ATOM     17  C   UNL d   1      28.697 -13.688   3.213  0.00  0.00     0.033 C 
ATOM     18  C   UNL d   1      27.853 -13.131   4.329  0.00  0.00     0.002 C 
ATOM     19  C   UNL d   1      27.776 -14.117   5.476  0.00  0.00     0.000 C 
ATOM     20  C   UNL d   1      29.172 -14.469   5.988  0.00  0.00     0.002 C 
ATOM     21  C   UNL d   1      30.033 -15.068   4.883  0.00  0.00     0.033 C 
ENDBRANCH  14  16
BRANCH  14  22
ATOM     22  C   UNL d   1      32.329 -14.826   2.857  0.00  0.00     0.269 C 
BRANCH  22  23
ATOM     23  C   UNL d   1      33.048 -16.061   2.457  0.00  0.00     0.167 C 
BRANCH  23  24
ATOM     24  O   UNL d   1      32.265 -17.223   2.774  0.00  0.00    -0.392 OA
ATOM     25  H   UNL d   1      31.489 -17.344   2.212  0.00  0.00     0.210 HD
ENDBRANCH  23  24
BRANCH  23  26
ATOM     26  C   UNL d   1      33.266 -16.328   1.026  0.00  0.00     0.201 C 
BRANCH  26  27
ATOM     27  O   UNL d   1      32.083 -16.479   0.309  0.00  0.00    -0.385 OA
BRANCH  27  28
ATOM     28  C   UNL d   1      32.516 -17.190  -0.842  0.00  0.00     0.194 C 
BRANCH  28  29
ATOM     29  C   UNL d   1      32.057 -18.571  -0.694  0.00  0.00    -0.011 C 
ATOM     30  C   UNL d   1      30.772 -18.852  -0.908  0.00  0.00     0.009 C 
ENDBRANCH  28  29
ENDBRANCH  27  28
ENDBRANCH  26  27
ENDBRANCH  23  26
ENDBRANCH  22  23
ENDBRANCH  14  22
ENDBRANCH  13  14
ENDBRANCH   1  13
BRANCH   5  31
ATOM     31  C   UNL d   1      25.910 -15.246  -4.657  0.00  0.00     0.301 C 
ATOM     32  O   UNL d   1      26.138 -15.718  -5.766  0.00  0.00    -0.259 OA
BRANCH  31  33
ATOM     33  O   UNL d   1      24.872 -14.406  -4.386  0.00  0.00    -0.312 OA
BRANCH  33  34
ATOM     34  C   UNL d   1      25.151 -13.000  -4.226  0.00  0.00     0.124 C 
ATOM     35  C   UNL d   1      25.538 -12.699  -2.782  0.00  0.00     0.040 C 
ATOM     36  C   UNL d   1      26.333 -12.654  -5.135  0.00  0.00     0.040 C 
ENDBRANCH  33  34
ENDBRANCH  31  33
ENDBRANCH   5  31
TORSDOF 13
ENDMDL
MODEL 3
REMARK VINA RESULT:    -8.231      2.402      4.470
REMARK INTER + INTRA:         -15.901
REMARK INTER:                 -12.109
REMARK INTRA:                  -3.793
REMARK CONF_INDEPENDENT:        3.878
REMARK UNBOUND:                -3.793
REMARK  13 active torsions:
REMARK  status: ('A' for Active; 'I' for Inactive)
REMARK    1  A    between atoms: C_2  and  C_3 
REMARK    2  A    between atoms: C_3  and  O_4 
REMARK    3  A    between atoms: O_4  and  C_5 
REMARK    4  A    between atoms: C_6  and  C_5 
REMARK    5  A    between atoms: C_6  and  C_8 
REMARK    6  A    between atoms: C_6  and  O_7 
REMARK    7  A    between atoms: N_9  and  C_8 
REMARK    8  A    between atoms: N_9  and  C_28 
REMARK    9  A    between atoms: N_9  and  C_10 
REMARK   10  A    between atoms: C_10  and  C_11 
REMARK   11  A    between atoms: C_15  and  C_16 
REMARK   12  A    between atoms: C_16  and  O_18 
REMARK   13  A    between atoms: O_18  and  C_19 
ROOT
ATOM      1  C   UNL d   1      24.816 -14.396  -3.626  0.00  0.00     0.134 C 
ATOM      2  N   UNL d   1      25.562 -15.256  -4.267  0.00  0.00    -0.225 NA
ATOM      3  C   UNL d   1      26.672 -14.686  -4.864  0.00  0.00     0.116 C 
ATOM      4  S   UNL d   1      28.115 -15.575  -5.167  0.00  0.00    -0.063 SA
ATOM      5  C   UNL d   1      29.043 -14.155  -5.496  0.00  0.00     0.089 C 
ATOM      6  C   UNL d   1      28.179 -13.072  -5.642  0.00  0.00    -0.020 C 
ATOM      7  C   UNL d   1      28.456 -11.816  -6.383  0.00  0.00     0.051 C 
ATOM      8  C   UNL d   1      26.887 -13.342  -5.061  0.00  0.00     0.075 C 
ATOM      9  C   UNL d   1      25.783 -12.468  -4.714  0.00  0.00     0.260 C 
ATOM     10  O   UNL d   1      25.642 -11.313  -5.127  0.00  0.00    -0.267 OA
ATOM     11  N   UNL d   1      24.859 -13.032  -3.859  0.00  0.00    -0.309 N 
ATOM     12  H   UNL d   1      24.102 -12.416  -3.589  0.00  0.00     0.170 HD
ENDROOT
BRANCH   1  13
ATOM     13  C   UNL d   1      23.989 -14.825  -2.395  0.00  0.00     0.313 C 
BRANCH  13  14
ATOM     14  N   UNL d   1      24.594 -15.942  -1.469  0.00  0.00    -0.058 N 
ATOM     15  H   UNL d   1      24.277 -15.661  -0.525  0.00  0.00     0.281 HD
BRANCH  14  16
ATOM     16  C   UNL d   1      26.135 -15.986  -1.458  0.00  0.00     0.188 C 
ATOM     17  C   UNL d   1      26.676 -14.648  -0.912  0.00  0.00     0.033 C 
ATOM     18  C   UNL d   1      28.171 -14.631  -0.730  0.00  0.00     0.002 C 
ATOM     19  C   UNL d   1      28.613 -15.804   0.120  0.00  0.00     0.000 C 
ATOM     20  C   UNL d   1      28.166 -17.126  -0.501  0.00  0.00     0.002 C 
ATOM     21  C   UNL d   1      26.652 -17.180  -0.661  0.00  0.00     0.033 C 
ENDBRANCH  14  16
BRANCH  14  22
ATOM     22  C   UNL d   1      24.132 -17.418  -1.645  0.00  0.00     0.269 C 
BRANCH  22  23
ATOM     23  C   UNL d   1      23.276 -17.917  -0.541  0.00  0.00     0.167 C 
BRANCH  23  24
ATOM     24  O   UNL d   1      22.551 -16.834   0.062  0.00  0.00    -0.392 OA
ATOM     25  H   UNL d   1      22.070 -17.076   0.865  0.00  0.00     0.210 HD
ENDBRANCH  23  24
BRANCH  23  26
ATOM     26  C   UNL d   1      22.136 -18.791  -0.862  0.00  0.00     0.201 C 
BRANCH  26  27
ATOM     27  O   UNL d   1      20.902 -18.203  -0.600  0.00  0.00    -0.385 OA
BRANCH  27  28
ATOM     28  C   UNL d   1      19.997 -19.257  -0.895  0.00  0.00     0.194 C 
BRANCH  28  29
ATOM     29  C   UNL d   1      19.287 -19.575   0.343  0.00  0.00    -0.011 C 
ATOM     30  C   UNL d   1      19.991 -19.905   1.427  0.00  0.00     0.009 C 
ENDBRANCH  28  29
ENDBRANCH  27  28
ENDBRANCH  26  27
ENDBRANCH  23  26
ENDBRANCH  22  23
ENDBRANCH  14  22
ENDBRANCH  13  14
ENDBRANCH   1  13
BRANCH   5  31
ATOM     31  C   UNL d   1      30.475 -14.323  -5.751  0.00  0.00     0.301 C 
ATOM     32  O   UNL d   1      31.379 -13.729  -5.172  0.00  0.00    -0.259 OA
BRANCH  31  33
ATOM     33  O   UNL d   1      30.677 -15.286  -6.693  0.00  0.00    -0.312 OA
BRANCH  33  34
ATOM     34  C   UNL d   1      31.454 -16.447  -6.332  0.00  0.00     0.124 C 
ATOM     35  C   UNL d   1      31.053 -16.941  -4.946  0.00  0.00     0.040 C 
ATOM     36  C   UNL d   1      31.150 -17.547  -7.353  0.00  0.00     0.040 C 
ENDBRANCH  33  34
ENDBRANCH  31  33
ENDBRANCH   5  31
TORSDOF 13
ENDMDL
MODEL 4
REMARK VINA RESULT:    -8.003      3.921      6.946
REMARK INTER + INTRA:         -15.893
REMARK INTER:                 -11.881
REMARK INTRA:                  -4.011
REMARK CONF_INDEPENDENT:        3.878
REMARK UNBOUND:                -4.011
REMARK  13 active torsions:
REMARK  status: ('A' for Active; 'I' for Inactive)
REMARK    1  A    between atoms: C_2  and  C_3 
REMARK    2  A    between atoms: C_3  and  O_4 
REMARK    3  A    between atoms: O_4  and  C_5 
REMARK    4  A    between atoms: C_6  and  C_5 
REMARK    5  A    between atoms: C_6  and  C_8 
REMARK    6  A    between atoms: C_6  and  O_7 
REMARK    7  A    between atoms: N_9  and  C_8 
REMARK    8  A    between atoms: N_9  and  C_28 
REMARK    9  A    between atoms: N_9  and  C_10 
REMARK   10  A    between atoms: C_10  and  C_11 
REMARK   11  A    between atoms: C_15  and  C_16 
REMARK   12  A    between atoms: C_16  and  O_18 
REMARK   13  A    between atoms: O_18  and  C_19 
ROOT
ATOM      1  C   UNL d   1      29.219 -17.068  -0.968  0.00  0.00     0.134 C 
ATOM      2  N   UNL d   1      28.989 -16.634  -2.178  0.00  0.00    -0.225 NA
ATOM      3  C   UNL d   1      27.678 -16.244  -2.383  0.00  0.00     0.116 C 
ATOM      4  S   UNL d   1      27.239 -15.064  -3.558  0.00  0.00    -0.063 SA
ATOM      5  C   UNL d   1      25.642 -14.876  -2.923  0.00  0.00     0.089 C 
ATOM      6  C   UNL d   1      25.389 -15.907  -2.021  0.00  0.00    -0.020 C 
ATOM      7  C   UNL d   1      24.055 -16.423  -1.622  0.00  0.00     0.051 C 
ATOM      8  C   UNL d   1      26.610 -16.522  -1.561  0.00  0.00     0.075 C 
ATOM      9  C   UNL d   1      26.884 -17.408  -0.447  0.00  0.00     0.260 C 
ATOM     10  O   UNL d   1      26.028 -18.041   0.177  0.00  0.00    -0.267 OA
ATOM     11  N   UNL d   1      28.220 -17.506  -0.115  0.00  0.00    -0.309 N 
ATOM     12  H   UNL d   1      28.414 -18.099   0.681  0.00  0.00     0.170 HD
ENDROOT
BRANCH   1  13
ATOM     13  C   UNL d   1      30.611 -16.910  -0.319  0.00  0.00     0.313 C 
BRANCH  13  14
ATOM     14  N   UNL d   1      30.742 -15.898   0.878  0.00  0.00    -0.058 N 
ATOM     15  H   UNL d   1      30.407 -16.449   1.687  0.00  0.00     0.281 HD
BRANCH  14  16
ATOM     16  C   UNL d   1      29.845 -14.651   0.750  0.00  0.00     0.188 C 
ATOM     17  C   UNL d   1      29.883 -14.146  -0.707  0.00  0.00     0.033 C 
ATOM     18  C   UNL d   1      28.934 -13.007  -0.976  0.00  0.00     0.002 C 
ATOM     19  C   UNL d   1      27.530 -13.377  -0.546  0.00  0.00     0.000 C 
ATOM     20  C   UNL d   1      27.495 -13.763   0.932  0.00  0.00     0.002 C 
ATOM     21  C   UNL d   1      28.422 -14.937   1.220  0.00  0.00     0.033 C 
ENDBRANCH  14  16
BRANCH  14  22
ATOM     22  C   UNL d   1      32.147 -15.368   1.284  0.00  0.00     0.269 C 
BRANCH  22  23
ATOM     23  C   UNL d   1      32.338 -15.227   2.748  0.00  0.00     0.167 C 
BRANCH  23  24
ATOM     24  O   UNL d   1      32.989 -13.984   3.053  0.00  0.00    -0.392 OA
ATOM     25  H   UNL d   1      32.653 -13.542   3.844  0.00  0.00     0.210 HD
ENDBRANCH  23  24
BRANCH  23  26
ATOM     26  C   UNL d   1      31.155 -15.071   3.610  0.00  0.00     0.201 C 
BRANCH  26  27
ATOM     27  O   UNL d   1      30.613 -13.790   3.571  0.00  0.00    -0.385 OA
BRANCH  27  28
ATOM     28  C   UNL d   1      30.059 -13.657   4.873  0.00  0.00     0.194 C 
BRANCH  28  29
ATOM     29  C   UNL d   1      29.215 -14.828   5.104  0.00  0.00    -0.011 C 
ATOM     30  C   UNL d   1      27.933 -14.785   4.737  0.00  0.00     0.009 C 
ENDBRANCH  28  29
ENDBRANCH  27  28
ENDBRANCH  26  27
ENDBRANCH  23  26
ENDBRANCH  22  23
ENDBRANCH  14  22
ENDBRANCH  13  14
ENDBRANCH   1  13
BRANCH   5  31
ATOM     31  C   UNL d   1      24.785 -13.857  -3.531  0.00  0.00     0.301 C 
ATOM     32  O   UNL d   1      23.829 -14.074  -4.268  0.00  0.00    -0.259 OA
BRANCH  31  33
ATOM     33  O   UNL d   1      25.159 -12.615  -3.114  0.00  0.00    -0.312 OA
BRANCH  33  34
ATOM     34  C   UNL d   1      26.290 -11.989  -3.754  0.00  0.00     0.124 C 
ATOM     35  C   UNL d   1      25.921 -11.548  -5.167  0.00  0.00     0.040 C 
ATOM     36  C   UNL d   1      26.662 -10.750  -2.934  0.00  0.00     0.040 C 
ENDBRANCH  33  34
ENDBRANCH  31  33
ENDBRANCH   5  31
TORSDOF 13
ENDMDL
MODEL 5
REMARK VINA RESULT:    -7.747      4.349      7.067
REMARK INTER + INTRA:         -15.894
REMARK INTER:                 -11.625
REMARK INTRA:                  -4.269
REMARK CONF_INDEPENDENT:        3.878
REMARK UNBOUND:                -4.269
REMARK  13 active torsions:
REMARK  status: ('A' for Active; 'I' for Inactive)
REMARK    1  A    between atoms: C_2  and  C_3 
REMARK    2  A    between atoms: C_3  and  O_4 
REMARK    3  A    between atoms: O_4  and  C_5 
REMARK    4  A    between atoms: C_6  and  C_5 
REMARK    5  A    between atoms: C_6  and  C_8 
REMARK    6  A    between atoms: C_6  and  O_7 
REMARK    7  A    between atoms: N_9  and  C_8 
REMARK    8  A    between atoms: N_9  and  C_28 
REMARK    9  A    between atoms: N_9  and  C_10 
REMARK   10  A    between atoms: C_10  and  C_11 
REMARK   11  A    between atoms: C_15  and  C_16 
REMARK   12  A    between atoms: C_16  and  O_18 
REMARK   13  A    between atoms: O_18  and  C_19 
ROOT
ATOM      1  C   UNL d   1      30.665 -15.630  -0.422  0.00  0.00     0.134 C 
ATOM      2  N   UNL d   1      30.918 -14.782  -1.383  0.00  0.00    -0.225 NA
ATOM      3  C   UNL d   1      30.641 -15.280  -2.643  0.00  0.00     0.116 C 
ATOM      4  S   UNL d   1      30.230 -14.261  -3.969  0.00  0.00    -0.063 SA
ATOM      5  C   UNL d   1      29.676 -15.577  -4.943  0.00  0.00     0.089 C 
ATOM      6  C   UNL d   1      30.073 -16.775  -4.354  0.00  0.00    -0.020 C 
ATOM      7  C   UNL d   1      30.252 -18.079  -5.041  0.00  0.00     0.051 C 
ATOM      8  C   UNL d   1      30.406 -16.598  -2.963  0.00  0.00     0.075 C 
ATOM      9  C   UNL d   1      30.591 -17.551  -1.885  0.00  0.00     0.260 C 
ATOM     10  O   UNL d   1      30.771 -18.762  -2.039  0.00  0.00    -0.267 OA
ATOM     11  N   UNL d   1      30.554 -16.995  -0.623  0.00  0.00    -0.309 N 
ATOM     12  H   UNL d   1      30.652 -17.660   0.134  0.00  0.00     0.170 HD
ENDROOT
BRANCH   1  13
ATOM     13  C   UNL d   1      30.247 -15.138   0.981  0.00  0.00     0.313 C 
BRANCH  13  14
ATOM     14  N   UNL d   1      28.722 -15.221   1.353  0.00  0.00    -0.058 N 
ATOM     15  H   UNL d   1      28.706 -15.917   2.119  0.00  0.00     0.281 HD
BRANCH  14  16
ATOM     16  C   UNL d   1      27.823 -15.748   0.216  0.00  0.00     0.188 C 
ATOM     17  C   UNL d   1      27.284 -17.141   0.600  0.00  0.00     0.033 C 
ATOM     18  C   UNL d   1      26.284 -17.693  -0.382  0.00  0.00     0.002 C 
ATOM     19  C   UNL d   1      25.163 -16.700  -0.609  0.00  0.00     0.000 C 
ATOM     20  C   UNL d   1      25.711 -15.361  -1.100  0.00  0.00     0.002 C 
ATOM     21  C   UNL d   1      26.698 -14.767  -0.104  0.00  0.00     0.033 C 
ENDBRANCH  14  16
BRANCH  14  22
ATOM     22  C   UNL d   1      27.999 -13.963   1.914  0.00  0.00     0.269 C 
BRANCH  22  23
ATOM     23  C   UNL d   1      27.929 -13.918   3.395  0.00  0.00     0.167 C 
BRANCH  23  24
ATOM     24  O   UNL d   1      27.781 -15.241   3.932  0.00  0.00    -0.392 OA
ATOM     25  H   UNL d   1      28.610 -15.729   4.023  0.00  0.00     0.210 HD
ENDBRANCH  23  24
BRANCH  23  26
ATOM     26  C   UNL d   1      29.121 -13.507   4.153  0.00  0.00     0.201 C 
BRANCH  26  27
ATOM     27  O   UNL d   1      29.757 -14.566   4.794  0.00  0.00    -0.385 OA
BRANCH  27  28
ATOM     28  C   UNL d   1      29.993 -14.037   6.091  0.00  0.00     0.194 C 
BRANCH  28  29
ATOM     29  C   UNL d   1      28.689 -13.732   6.677  0.00  0.00    -0.011 C 
ATOM     30  C   UNL d   1      28.573 -12.678   7.486  0.00  0.00     0.009 C 
ENDBRANCH  28  29
ENDBRANCH  27  28
ENDBRANCH  26  27
ENDBRANCH  23  26
ENDBRANCH  22  23
ENDBRANCH  14  22
ENDBRANCH  13  14
ENDBRANCH   1  13
BRANCH   5  31
ATOM     31  C   UNL d   1      29.090 -15.258  -6.247  0.00  0.00     0.301 C 
ATOM     32  O   UNL d   1      29.714 -15.100  -7.291  0.00  0.00    -0.259 OA
BRANCH  31  33
ATOM     33  O   UNL d   1      27.731 -15.218  -6.157  0.00  0.00    -0.312 OA
BRANCH  33  34
ATOM     34  C   UNL d   1      27.138 -14.751  -4.928  0.00  0.00     0.124 C 
ATOM     35  C   UNL d   1      26.753 -13.280  -5.053  0.00  0.00     0.040 C 
ATOM     36  C   UNL d   1      25.870 -15.572  -4.681  0.00  0.00     0.040 C 
ENDBRANCH  33  34
ENDBRANCH  31  33
ENDBRANCH   5  31
TORSDOF 13
ENDMDL
MODEL 6
REMARK VINA RESULT:    -7.456      3.815      6.526
REMARK INTER + INTRA:         -16.228
REMARK INTER:                 -11.334
REMARK INTRA:                  -4.893
REMARK CONF_INDEPENDENT:        3.878
REMARK UNBOUND:                -4.893
REMARK  13 active torsions:
REMARK  status: ('A' for Active; 'I' for Inactive)
REMARK    1  A    between atoms: C_2  and  C_3 
REMARK    2  A    between atoms: C_3  and  O_4 
REMARK    3  A    between atoms: O_4  and  C_5 
REMARK    4  A    between atoms: C_6  and  C_5 
REMARK    5  A    between atoms: C_6  and  C_8 
REMARK    6  A    between atoms: C_6  and  O_7 
REMARK    7  A    between atoms: N_9  and  C_8 
REMARK    8  A    between atoms: N_9  and  C_28 
REMARK    9  A    between atoms: N_9  and  C_10 
REMARK   10  A    between atoms: C_10  and  C_11 
REMARK   11  A    between atoms: C_15  and  C_16 
REMARK   12  A    between atoms: C_16  and  O_18 
REMARK   13  A    between atoms: O_18  and  C_19 
ROOT
ATOM      1  C   UNL d   1      26.847 -13.737   0.947  0.00  0.00     0.134 C 
ATOM      2  N   UNL d   1      26.043 -14.501   0.257  0.00  0.00    -0.225 NA
ATOM      3  C   UNL d   1      26.134 -14.304  -1.109  0.00  0.00     0.116 C 
ATOM      4  S   UNL d   1      25.754 -15.539  -2.247  0.00  0.00    -0.063 SA
ATOM      5  C   UNL d   1      26.476 -14.689  -3.567  0.00  0.00     0.089 C 
ATOM      6  C   UNL d   1      26.735 -13.378  -3.174  0.00  0.00    -0.020 C 
ATOM      7  C   UNL d   1      26.881 -12.202  -4.068  0.00  0.00     0.051 C 
ATOM      8  C   UNL d   1      26.752 -13.248  -1.738  0.00  0.00     0.075 C 
ATOM      9  C   UNL d   1      27.239 -12.194  -0.870  0.00  0.00     0.260 C 
ATOM     10  O   UNL d   1      27.494 -11.042  -1.234  0.00  0.00    -0.267 OA
ATOM     11  N   UNL d   1      27.406 -12.573   0.446  0.00  0.00    -0.309 N 
ATOM     12  H   UNL d   1      27.775 -11.850   1.051  0.00  0.00     0.170 HD
ENDROOT
BRANCH   1  13
ATOM     13  C   UNL d   1      27.413 -14.203   2.306  0.00  0.00     0.313 C 
BRANCH  13  14
ATOM     14  N   UNL d   1      28.945 -14.547   2.373  0.00  0.00    -0.058 N 
ATOM     15  H   UNL d   1      28.959 -15.575   2.255  0.00  0.00     0.281 HD
BRANCH  14  16
ATOM     16  C   UNL d   1      29.609 -14.216   3.724  0.00  0.00     0.188 C 
ATOM     17  C   UNL d   1      29.757 -12.686   3.856  0.00  0.00     0.033 C 
ATOM     18  C   UNL d   1      30.272 -12.242   5.200  0.00  0.00     0.002 C 
ATOM     19  C   UNL d   1      29.420 -12.822   6.309  0.00  0.00     0.000 C 
ATOM     20  C   UNL d   1      29.382 -14.347   6.229  0.00  0.00     0.002 C 
ATOM     21  C   UNL d   1      28.830 -14.818   4.890  0.00  0.00     0.033 C 
ENDBRANCH  14  16
BRANCH  14  22
ATOM     22  C   UNL d   1      29.905 -13.987   1.284  0.00  0.00     0.269 C 
BRANCH  22  23
ATOM     23  C   UNL d   1      30.364 -15.003   0.304  0.00  0.00     0.167 C 
BRANCH  23  24
ATOM     24  O   UNL d   1      30.960 -16.120   0.980  0.00  0.00    -0.392 OA
ATOM     25  H   UNL d   1      30.325 -16.748   1.349  0.00  0.00     0.210 HD
ENDBRANCH  23  24
BRANCH  23  26
ATOM     26  C   UNL d   1      29.360 -15.735  -0.485  0.00  0.00     0.201 C 
BRANCH  26  27
ATOM     27  O   UNL d   1      28.389 -16.352   0.298  0.00  0.00    -0.385 OA
BRANCH  27  28
ATOM     28  C   UNL d   1      27.970 -17.427  -0.531  0.00  0.00     0.194 C 
BRANCH  28  29
ATOM     29  C   UNL d   1      27.017 -18.222   0.241  0.00  0.00    -0.011 C 
ATOM     30  C   UNL d   1      25.711 -18.047   0.035  0.00  0.00     0.009 C 
ENDBRANCH  28  29
ENDBRANCH  27  28
ENDBRANCH  26  27
ENDBRANCH  23  26
ENDBRANCH  22  23
ENDBRANCH  14  22
ENDBRANCH  13  14
ENDBRANCH   1  13
BRANCH   5  31
ATOM     31  C   UNL d   1      26.521 -15.363  -4.866  0.00  0.00     0.301 C 
ATOM     32  O   UNL d   1      25.585 -15.947  -5.401  0.00  0.00    -0.259 OA
BRANCH  31  33
ATOM     33  O   UNL d   1      27.746 -15.201  -5.440  0.00  0.00    -0.312 OA
BRANCH  33  34
ATOM     34  C   UNL d   1      28.899 -15.735  -4.758  0.00  0.00     0.124 C 
ATOM     35  C   UNL d   1      29.826 -16.429  -5.751  0.00  0.00     0.040 C 
ATOM     36  C   UNL d   1      29.650 -14.560  -4.124  0.00  0.00     0.040 C 
ENDBRANCH  33  34
ENDBRANCH  31  33
ENDBRANCH   5  31
TORSDOF 13
ENDMDL
MODEL 7
REMARK VINA RESULT:    -7.090      4.876      7.945
REMARK INTER + INTRA:         -16.443
REMARK INTER:                 -10.967
REMARK INTRA:                  -5.475
REMARK CONF_INDEPENDENT:        3.878
REMARK UNBOUND:                -5.475
REMARK  13 active torsions:
REMARK  status: ('A' for Active; 'I' for Inactive)
REMARK    1  A    between atoms: C_2  and  C_3 
REMARK    2  A    between atoms: C_3  and  O_4 
REMARK    3  A    between atoms: O_4  and  C_5 
REMARK    4  A    between atoms: C_6  and  C_5 
REMARK    5  A    between atoms: C_6  and  C_8 
REMARK    6  A    between atoms: C_6  and  O_7 
REMARK    7  A    between atoms: N_9  and  C_8 
REMARK    8  A    between atoms: N_9  and  C_28 
REMARK    9  A    between atoms: N_9  and  C_10 
REMARK   10  A    between atoms: C_10  and  C_11 
REMARK   11  A    between atoms: C_15  and  C_16 
REMARK   12  A    between atoms: C_16  and  O_18 
REMARK   13  A    between atoms: O_18  and  C_19 
ROOT
ATOM      1  C   UNL d   1      28.614 -14.622   1.032  0.00  0.00     0.134 C 
ATOM      2  N   UNL d   1      28.110 -13.787   0.163  0.00  0.00    -0.225 NA
ATOM      3  C   UNL d   1      28.058 -14.293  -1.122  0.00  0.00     0.116 C 
ATOM      4  S   UNL d   1      26.900 -13.760  -2.279  0.00  0.00    -0.063 SA
ATOM      5  C   UNL d   1      27.221 -15.071  -3.359  0.00  0.00     0.089 C 
ATOM      6  C   UNL d   1      28.385 -15.718  -2.952  0.00  0.00    -0.020 C 
ATOM      7  C   UNL d   1      29.281 -16.541  -3.803  0.00  0.00     0.051 C 
ATOM      8  C   UNL d   1      28.708 -15.418  -1.579  0.00  0.00     0.075 C 
ATOM      9  C   UNL d   1      29.621 -16.043  -0.642  0.00  0.00     0.260 C 
ATOM     10  O   UNL d   1      30.530 -16.818  -0.955  0.00  0.00    -0.267 OA
ATOM     11  N   UNL d   1      29.402 -15.703   0.677  0.00  0.00    -0.309 N 
ATOM     12  H   UNL d   1      30.017 -16.161   1.338  0.00  0.00     0.170 HD
ENDROOT
BRANCH   1  13
ATOM     13  C   UNL d   1      28.175 -14.589   2.512  0.00  0.00     0.313 C 
BRANCH  13  14
ATOM     14  N   UNL d   1      29.307 -14.591   3.603  0.00  0.00    -0.058 N 
ATOM     15  H   UNL d   1      29.663 -15.562   3.569  0.00  0.00     0.281 HD
BRANCH  14  16
ATOM     16  C   UNL d   1      28.804 -14.321   5.035  0.00  0.00     0.188 C 
ATOM     17  C   UNL d   1      29.985 -14.451   6.020  0.00  0.00     0.033 C 
ATOM     18  C   UNL d   1      29.634 -14.074   7.435  0.00  0.00     0.002 C 
ATOM     19  C   UNL d   1      29.017 -12.692   7.477  0.00  0.00     0.000 C 
ATOM     20  C   UNL d   1      27.780 -12.619   6.584  0.00  0.00     0.002 C 
ATOM     21  C   UNL d   1      28.119 -12.961   5.138  0.00  0.00     0.033 C 
ENDBRANCH  14  16
BRANCH  14  22
ATOM     22  C   UNL d   1      30.554 -13.679   3.415  0.00  0.00     0.269 C 
BRANCH  22  23
ATOM     23  C   UNL d   1      31.758 -14.397   2.929  0.00  0.00     0.167 C 
BRANCH  23  24
ATOM     24  O   UNL d   1      31.530 -15.815   2.923  0.00  0.00    -0.392 OA
ATOM     25  H   UNL d   1      31.397 -16.193   2.044  0.00  0.00     0.210 HD
ENDBRANCH  23  24
BRANCH  23  26
ATOM     26  C   UNL d   1      32.166 -14.235   1.525  0.00  0.00     0.201 C 
BRANCH  26  27
ATOM     27  O   UNL d   1      32.061 -15.409   0.783  0.00  0.00    -0.385 OA
BRANCH  27  28
ATOM     28  C   UNL d   1      32.792 -15.091  -0.392  0.00  0.00     0.194 C 
BRANCH  28  29
ATOM     29  C   UNL d   1      32.503 -13.695  -0.716  0.00  0.00    -0.011 C 
ATOM     30  C   UNL d   1      31.618 -13.423  -1.676  0.00  0.00     0.009 C 
ENDBRANCH  28  29
ENDBRANCH  27  28
ENDBRANCH  26  27
ENDBRANCH  23  26
ENDBRANCH  22  23
ENDBRANCH  14  22
ENDBRANCH  13  14
ENDBRANCH   1  13
BRANCH   5  31
ATOM     31  C   UNL d   1      26.397 -15.175  -4.565  0.00  0.00     0.301 C 
ATOM     32  O   UNL d   1      25.172 -15.186  -4.595  0.00  0.00    -0.259 OA
BRANCH  31  33
ATOM     33  O   UNL d   1      27.187 -15.200  -5.675  0.00  0.00    -0.312 OA
BRANCH  33  34
ATOM     34  C   UNL d   1      28.169 -14.157  -5.843  0.00  0.00     0.124 C 
ATOM     35  C   UNL d   1      28.900 -14.328  -7.170  0.00  0.00     0.040 C 
ATOM     36  C   UNL d   1      27.427 -12.818  -5.858  0.00  0.00     0.040 C 
ENDBRANCH  33  34
ENDBRANCH  31  33
ENDBRANCH   5  31
TORSDOF 13
ENDMDL
MODEL 8
REMARK VINA RESULT:    -6.959      3.696      8.802
REMARK INTER + INTRA:         -15.903
REMARK INTER:                 -10.837
REMARK INTRA:                  -5.066
REMARK CONF_INDEPENDENT:        3.878
REMARK UNBOUND:                -5.066
REMARK  13 active torsions:
REMARK  status: ('A' for Active; 'I' for Inactive)
REMARK    1  A    between atoms: C_2  and  C_3 
REMARK    2  A    between atoms: C_3  and  O_4 
REMARK    3  A    between atoms: O_4  and  C_5 
REMARK    4  A    between atoms: C_6  and  C_5 
REMARK    5  A    between atoms: C_6  and  C_8 
REMARK    6  A    between atoms: C_6  and  O_7 
REMARK    7  A    between atoms: N_9  and  C_8 
REMARK    8  A    between atoms: N_9  and  C_28 
REMARK    9  A    between atoms: N_9  and  C_10 
REMARK   10  A    between atoms: C_10  and  C_11 
REMARK   11  A    between atoms: C_15  and  C_16 
REMARK   12  A    between atoms: C_16  and  O_18 
REMARK   13  A    between atoms: O_18  and  C_19 
ROOT
ATOM      1  C   UNL d   1      29.342 -15.757  -3.369  0.00  0.00     0.134 C 
ATOM      2  N   UNL d   1      29.202 -16.166  -2.136  0.00  0.00    -0.225 NA
ATOM      3  C   UNL d   1      27.882 -16.325  -1.755  0.00  0.00     0.116 C 
ATOM      4  S   UNL d   1      27.403 -17.431  -0.526  0.00  0.00    -0.063 SA
ATOM      5  C   UNL d   1      25.728 -17.326  -0.940  0.00  0.00     0.089 C 
ATOM      6  C   UNL d   1      25.542 -16.251  -1.806  0.00  0.00    -0.020 C 
ATOM      7  C   UNL d   1      24.278 -15.503  -2.025  0.00  0.00     0.051 C 
ATOM      8  C   UNL d   1      26.779 -15.850  -2.428  0.00  0.00     0.075 C 
ATOM      9  C   UNL d   1      27.055 -15.006  -3.574  0.00  0.00     0.260 C 
ATOM     10  O   UNL d   1      26.248 -14.222  -4.082  0.00  0.00    -0.267 OA
ATOM     11  N   UNL d   1      28.331 -15.136  -4.083  0.00  0.00    -0.309 N 
ATOM     12  H   UNL d   1      28.519 -14.572  -4.901  0.00  0.00     0.170 HD
ENDROOT
BRANCH   1  13
ATOM     13  C   UNL d   1      30.586 -16.144  -4.197  0.00  0.00     0.313 C 
BRANCH  13  14
ATOM     14  N   UNL d   1      30.362 -16.522  -5.707  0.00  0.00    -0.058 N 
ATOM     15  H   UNL d   1      29.341 -16.682  -5.758  0.00  0.00     0.281 HD
BRANCH  14  16
ATOM     16  C   UNL d   1      31.067 -17.822  -6.144  0.00  0.00     0.188 C 
ATOM     17  C   UNL d   1      30.405 -19.021  -5.435  0.00  0.00     0.033 C 
ATOM     18  C   UNL d   1      30.928 -20.357  -5.893  0.00  0.00     0.002 C 
ATOM     19  C   UNL d   1      30.834 -20.473  -7.400  0.00  0.00     0.000 C 
ATOM     20  C   UNL d   1      31.595 -19.339  -8.083  0.00  0.00     0.002 C 
ATOM     21  C   UNL d   1      31.058 -17.977  -7.662  0.00  0.00     0.033 C 
ENDBRANCH  14  16
BRANCH  14  22
ATOM     22  C   UNL d   1      30.680 -15.477  -6.815  0.00  0.00     0.269 C 
BRANCH  22  23
ATOM     23  C   UNL d   1      29.509 -14.667  -7.234  0.00  0.00     0.167 C 
BRANCH  23  24
ATOM     24  O   UNL d   1      28.301 -15.203  -6.673  0.00  0.00    -0.392 OA
ATOM     25  H   UNL d   1      27.533 -14.622  -6.754  0.00  0.00     0.210 HD
ENDBRANCH  23  24
BRANCH  23  26
ATOM     26  C   UNL d   1      29.385 -13.286  -6.742  0.00  0.00     0.201 C 
BRANCH  26  27
ATOM     27  O   UNL d   1      28.347 -13.119  -5.830  0.00  0.00    -0.385 OA
BRANCH  27  28
ATOM     28  C   UNL d   1      28.190 -11.707  -5.807  0.00  0.00     0.194 C 
BRANCH  28  29
ATOM     29  C   UNL d   1      26.878 -11.409  -6.378  0.00  0.00    -0.011 C 
ATOM     30  C   UNL d   1      25.914 -10.947  -5.581  0.00  0.00     0.009 C 
ENDBRANCH  28  29
ENDBRANCH  27  28
ENDBRANCH  26  27
ENDBRANCH  23  26
ENDBRANCH  22  23
ENDBRANCH  14  22
ENDBRANCH  13  14
ENDBRANCH   1  13
BRANCH   5  31
ATOM     31  C   UNL d   1      24.793 -18.191  -0.217  0.00  0.00     0.301 C 
ATOM     32  O   UNL d   1      24.797 -18.395   0.992  0.00  0.00    -0.259 OA
BRANCH  31  33
ATOM     33  O   UNL d   1      23.864 -18.702  -1.073  0.00  0.00    -0.312 OA
BRANCH  33  34
ATOM     34  C   UNL d   1      22.492 -18.283  -0.927  0.00  0.00     0.124 C 
ATOM     35  C   UNL d   1      21.702 -19.326  -0.144  0.00  0.00     0.040 C 
ATOM     36  C   UNL d   1      22.488 -16.969  -0.140  0.00  0.00     0.040 C 
ENDBRANCH  33  34
ENDBRANCH  31  33
ENDBRANCH   5  31
TORSDOF 13
ENDMDL
MODEL 9
REMARK VINA RESULT:    -6.834      3.154      8.516
REMARK INTER + INTRA:         -16.128
REMARK INTER:                 -10.712
REMARK INTRA:                  -5.416
REMARK CONF_INDEPENDENT:        3.878
REMARK UNBOUND:                -5.416
REMARK  13 active torsions:
REMARK  status: ('A' for Active; 'I' for Inactive)
REMARK    1  A    between atoms: C_2  and  C_3 
REMARK    2  A    between atoms: C_3  and  O_4 
REMARK    3  A    between atoms: O_4  and  C_5 
REMARK    4  A    between atoms: C_6  and  C_5 
REMARK    5  A    between atoms: C_6  and  C_8 
REMARK    6  A    between atoms: C_6  and  O_7 
REMARK    7  A    between atoms: N_9  and  C_8 
REMARK    8  A    between atoms: N_9  and  C_28 
REMARK    9  A    between atoms: N_9  and  C_10 
REMARK   10  A    between atoms: C_10  and  C_11 
REMARK   11  A    between atoms: C_15  and  C_16 
REMARK   12  A    between atoms: C_16  and  O_18 
REMARK   13  A    between atoms: O_18  and  C_19 
ROOT
ATOM      1  C   UNL d   1      27.928 -15.836  -1.928  0.00  0.00     0.134 C 
ATOM      2  N   UNL d   1      27.645 -16.521  -0.852  0.00  0.00    -0.225 NA
ATOM      3  C   UNL d   1      26.295 -16.776  -0.701  0.00  0.00     0.116 C 
ATOM      4  S   UNL d   1      25.704 -18.141   0.166  0.00  0.00    -0.063 SA
ATOM      5  C   UNL d   1      24.095 -17.959  -0.438  0.00  0.00     0.089 C 
ATOM      6  C   UNL d   1      23.980 -16.715  -1.054  0.00  0.00    -0.020 C 
ATOM      7  C   UNL d   1      22.727 -15.949  -1.268  0.00  0.00     0.051 C 
ATOM      8  C   UNL d   1      25.271 -16.169  -1.393  0.00  0.00     0.075 C 
ATOM      9  C   UNL d   1      25.659 -15.080  -2.268  0.00  0.00     0.260 C 
ATOM     10  O   UNL d   1      24.894 -14.208  -2.689  0.00  0.00    -0.267 OA
ATOM     11  N   UNL d   1      26.995 -15.077  -2.614  0.00  0.00    -0.309 N 
ATOM     12  H   UNL d   1      27.265 -14.337  -3.249  0.00  0.00     0.170 HD
ENDROOT
BRANCH   1  13
ATOM     13  C   UNL d   1      29.285 -16.009  -2.645  0.00  0.00     0.313 C 
BRANCH  13  14
ATOM     14  N   UNL d   1      29.275 -16.045  -4.217  0.00  0.00    -0.058 N 
ATOM     15  H   UNL d   1      28.388 -16.532  -4.433  0.00  0.00     0.281 HD
BRANCH  14  16
ATOM     16  C   UNL d   1      30.427 -16.860  -4.838  0.00  0.00     0.188 C 
ATOM     17  C   UNL d   1      30.026 -18.349  -4.886  0.00  0.00     0.033 C 
ATOM     18  C   UNL d   1      31.026 -19.220  -5.600  0.00  0.00     0.002 C 
ATOM     19  C   UNL d   1      31.315 -18.670  -6.981  0.00  0.00     0.000 C 
ATOM     20  C   UNL d   1      31.822 -17.232  -6.901  0.00  0.00     0.002 C 
ATOM     21  C   UNL d   1      30.808 -16.324  -6.215  0.00  0.00     0.033 C 
ENDBRANCH  14  16
BRANCH  14  22
ATOM     22  C   UNL d   1      29.225 -14.710  -5.014  0.00  0.00     0.269 C 
BRANCH  22  23
ATOM     23  C   UNL d   1      27.954 -14.494  -5.749  0.00  0.00     0.167 C 
BRANCH  23  24
ATOM     24  O   UNL d   1      26.915 -15.327  -5.214  0.00  0.00    -0.392 OA
ATOM     25  H   UNL d   1      26.256 -14.853  -4.690  0.00  0.00     0.210 HD
ENDBRANCH  23  24
BRANCH  23  26
ATOM     26  C   UNL d   1      27.275 -13.193  -5.632  0.00  0.00     0.201 C 
BRANCH  26  27
ATOM     27  O   UNL d   1      26.209 -13.210  -4.737  0.00  0.00    -0.385 OA
BRANCH  27  28
ATOM     28  C   UNL d   1      26.027 -11.829  -4.459  0.00  0.00     0.194 C 
BRANCH  28  29
ATOM     29  C   UNL d   1      26.601 -11.575  -3.139  0.00  0.00    -0.011 C 
ATOM     30  C   UNL d   1      27.870 -11.912  -2.910  0.00  0.00     0.009 C 
ENDBRANCH  28  29
ENDBRANCH  27  28
ENDBRANCH  26  27
ENDBRANCH  23  26
ENDBRANCH  22  23
ENDBRANCH  14  22
ENDBRANCH  13  14
ENDBRANCH   1  13
BRANCH   5  31
ATOM     31  C   UNL d   1      23.110 -18.977  -0.066  0.00  0.00     0.301 C 
ATOM     32  O   UNL d   1      23.269 -20.190  -0.152  0.00  0.00    -0.259 OA
BRANCH  31  33
ATOM     33  O   UNL d   1      21.997 -18.389   0.453  0.00  0.00    -0.312 OA
BRANCH  33  34
ATOM     34  C   UNL d   1      20.708 -18.945   0.121  0.00  0.00     0.124 C 
ATOM     35  C   UNL d   1      20.660 -19.319  -1.357  0.00  0.00     0.040 C 
ATOM     36  C   UNL d   1      20.519 -20.214   0.956  0.00  0.00     0.040 C 
ENDBRANCH  33  34
ENDBRANCH  31  33
ENDBRANCH   5  31
TORSDOF 13
ENDMDL
