MODEL 1
REMARK VINA RESULT:    -7.020      0.000      0.000
REMARK INTER + INTRA:          -9.713
REMARK INTER:                  -8.810
REMARK INTRA:                  -0.902
REMARK CONF_INDEPENDENT:        1.790
REMARK UNBOUND:                -0.902
REMARK  6 active torsions:
REMARK  status: ('A' for Active; 'I' for Inactive)
REMARK    1  A    between atoms: C_2  and  C_3 
REMARK       I    between atoms: C_2  and  N_14 
REMARK    2  A    between atoms: C_4  and  C_5 
REMARK    3  A    between atoms: C_9  and  N_10 
REMARK    4  A    between atoms: N_14  and  N_15 
REMARK       I    between atoms: N_15  and  C_16 
REMARK       I    between atoms: C_16  and  N_18 
REMARK    5  A    between atoms: N_18  and  C_19 
REMARK    6  A    between atoms: C_19  and  C_20 
ROOT
ATOM      1  O   UNL d   1      27.454 -15.573  -5.763  0.00  0.00    -0.267 OA
ATOM      2  C   UNL d   1      26.695 -14.863  -5.103  0.00  0.00     0.259 C 
ATOM      3  N   UNL d   1      26.559 -13.518  -5.381  0.00  0.00    -0.263 N 
ATOM      4  H   UNL d   1      27.124 -13.148  -6.149  0.00  0.00     0.190 HD
ENDROOT
BRANCH   2   5
ATOM      5  C   UNL d   1      25.896 -15.438  -3.985  0.00  0.00     0.076 C 
ATOM      6  C   UNL d   1      26.473 -15.946  -2.880  0.00  0.00     0.017 C 
BRANCH   6   7
ATOM      7  C   UNL d   1      25.714 -16.593  -1.792  0.00  0.00    -0.034 A 
ATOM      8  C   UNL d   1      26.376 -17.019  -0.631  0.00  0.00     0.011 A 
ATOM      9  C   UNL d   1      25.719 -17.808   0.323  0.00  0.00     0.003 A 
ATOM     10  C   UNL d   1      24.372 -18.130   0.162  0.00  0.00     0.036 A 
ATOM     11  C   UNL d   1      23.698 -17.685  -0.979  0.00  0.00     0.103 A 
ATOM     12  C   UNL d   1      24.361 -16.921  -1.953  0.00  0.00     0.047 A 
BRANCH  11  13
ATOM     13  N   UNL d   1      22.301 -18.076  -1.203  0.00  0.00    -0.116 N 
ATOM     14  O   UNL d   1      21.416 -17.267  -0.894  0.00  0.00    -0.532 OA
ATOM     15  O   UNL d   1      22.089 -19.199  -1.687  0.00  0.00    -0.532 OA
ENDBRANCH  11  13
ENDBRANCH   6   7
ENDBRANCH   2   5
BRANCH   3  16
ATOM     16  N   UNL d   1      25.735 -12.575  -4.715  0.00  0.00    -0.249 N 
ATOM     17  C   UNL d   1      26.188 -11.274  -4.548  0.00  0.00     0.334 C 
ATOM     18  O   UNL d   1      27.285 -10.894  -4.958  0.00  0.00    -0.246 OA
ATOM     19  N   UNL d   1      25.301 -10.454  -3.878  0.00  0.00    -0.341 N 
ATOM     20  H   UNL d   1      24.405 -10.809  -3.582  0.00  0.00     0.164 HD
ATOM     21  H   UNL d   1      24.826 -12.851  -4.385  0.00  0.00     0.192 HD
BRANCH  19  22
ATOM     22  C   UNL d   1      25.617  -9.052  -3.630  0.00  0.00     0.129 C 
BRANCH  22  23
ATOM     23  C   UNL d   1      25.165  -8.140  -4.744  0.00  0.00     0.003 A 
ATOM     24  C   UNL d   1      24.550  -8.705  -6.007  0.00  0.00     0.007 A 
ATOM     25  C   UNL d   1      23.680  -7.985  -5.020  0.00  0.00     0.007 A 
ENDBRANCH  22  23
ENDBRANCH  19  22
ENDBRANCH   3  16
TORSDOF 6
ENDMDL
MODEL 2
REMARK VINA RESULT:    -6.574      3.134      6.013
REMARK INTER + INTRA:          -9.307
REMARK INTER:                  -8.364
REMARK INTRA:                  -0.943
REMARK CONF_INDEPENDENT:        1.790
REMARK UNBOUND:                -0.943
REMARK  6 active torsions:
REMARK  status: ('A' for Active; 'I' for Inactive)
REMARK    1  A    between atoms: C_2  and  C_3 
REMARK       I    between atoms: C_2  and  N_14 
REMARK    2  A    between atoms: C_4  and  C_5 
REMARK    3  A    between atoms: C_9  and  N_10 
REMARK    4  A    between atoms: N_14  and  N_15 
REMARK       I    between atoms: N_15  and  C_16 
REMARK       I    between atoms: C_16  and  N_18 
REMARK    5  A    between atoms: N_18  and  C_19 
REMARK    6  A    between atoms: C_19  and  C_20 
ROOT
ATOM      1  O   UNL d   1      25.617 -13.050  -4.746  0.00  0.00    -0.267 OA
ATOM      2  C   UNL d   1      26.148 -14.096  -4.372  0.00  0.00     0.259 C 
ATOM      3  N   UNL d   1      27.434 -14.417  -4.756  0.00  0.00    -0.263 N 
ATOM      4  H   UNL d   1      27.910 -13.752  -5.369  0.00  0.00     0.190 HD
ENDROOT
BRANCH   2   5
ATOM      5  C   UNL d   1      25.416 -15.046  -3.487  0.00  0.00     0.076 C 
ATOM      6  C   UNL d   1      25.883 -15.398  -2.275  0.00  0.00     0.017 C 
BRANCH   6   7
ATOM      7  C   UNL d   1      25.223 -16.394  -1.410  0.00  0.00    -0.034 A 
ATOM      8  C   UNL d   1      25.974 -17.116  -0.470  0.00  0.00     0.011 A 
ATOM      9  C   UNL d   1      25.414 -18.200   0.219  0.00  0.00     0.003 A 
ATOM     10  C   UNL d   1      24.075 -18.539   0.028  0.00  0.00     0.036 A 
ATOM     11  C   UNL d   1      23.312 -17.806  -0.886  0.00  0.00     0.103 A 
ATOM     12  C   UNL d   1      23.878 -16.740  -1.603  0.00  0.00     0.047 A 
BRANCH  11  13
ATOM     13  N   UNL d   1      21.923 -18.195  -1.157  0.00  0.00    -0.116 N 
ATOM     14  O   UNL d   1      21.031 -17.377  -0.895  0.00  0.00    -0.532 OA
ATOM     15  O   UNL d   1      21.724 -19.325  -1.631  0.00  0.00    -0.532 OA
ENDBRANCH  11  13
ENDBRANCH   6   7
ENDBRANCH   2   5
BRANCH   3  16
ATOM     16  N   UNL d   1      28.176 -15.577  -4.415  0.00  0.00    -0.249 N 
ATOM     17  C   UNL d   1      29.148 -16.044  -5.287  0.00  0.00     0.334 C 
ATOM     18  O   UNL d   1      29.403 -15.491  -6.357  0.00  0.00    -0.246 OA
ATOM     19  N   UNL d   1      29.795 -17.183  -4.847  0.00  0.00    -0.341 N 
ATOM     20  H   UNL d   1      29.564 -17.585  -3.953  0.00  0.00     0.164 HD
ATOM     21  H   UNL d   1      28.003 -16.041  -3.539  0.00  0.00     0.192 HD
BRANCH  19  22
ATOM     22  C   UNL d   1      30.855 -17.796  -5.640  0.00  0.00     0.129 C 
BRANCH  22  23
ATOM     23  C   UNL d   1      30.406 -19.046  -6.356  0.00  0.00     0.003 A 
ATOM     24  C   UNL d   1      31.404 -19.925  -7.081  0.00  0.00     0.007 A 
ATOM     25  C   UNL d   1      30.796 -20.403  -5.796  0.00  0.00     0.007 A 
ENDBRANCH  22  23
ENDBRANCH  19  22
ENDBRANCH   3  16
TORSDOF 6
ENDMDL
MODEL 3
REMARK VINA RESULT:    -6.533      5.024      6.963
REMARK INTER + INTRA:          -9.027
REMARK INTER:                  -8.323
REMARK INTRA:                  -0.704
REMARK CONF_INDEPENDENT:        1.790
REMARK UNBOUND:                -0.704
REMARK  6 active torsions:
REMARK  status: ('A' for Active; 'I' for Inactive)
REMARK    1  A    between atoms: C_2  and  C_3 
REMARK       I    between atoms: C_2  and  N_14 
REMARK    2  A    between atoms: C_4  and  C_5 
REMARK    3  A    between atoms: C_9  and  N_10 
REMARK    4  A    between atoms: N_14  and  N_15 
REMARK       I    between atoms: N_15  and  C_16 
REMARK       I    between atoms: C_16  and  N_18 
REMARK    5  A    between atoms: N_18  and  C_19 
REMARK    6  A    between atoms: C_19  and  C_20 
ROOT
ATOM      1  O   UNL d   1      26.884 -13.239  -1.007  0.00  0.00    -0.267 OA
ATOM      2  C   UNL d   1      27.159 -13.994  -0.074  0.00  0.00     0.259 C 
ATOM      3  N   UNL d   1      28.160 -13.680   0.823  0.00  0.00    -0.263 N 
ATOM      4  H   UNL d   1      28.660 -12.802   0.664  0.00  0.00     0.190 HD
ENDROOT
BRANCH   2   5
ATOM      5  C   UNL d   1      26.414 -15.269   0.117  0.00  0.00     0.076 C 
ATOM      6  C   UNL d   1      25.443 -15.665  -0.728  0.00  0.00     0.017 C 
BRANCH   6   7
ATOM      7  C   UNL d   1      24.634 -16.881  -0.523  0.00  0.00    -0.034 A 
ATOM      8  C   UNL d   1      25.255 -18.083  -0.152  0.00  0.00     0.011 A 
ATOM      9  C   UNL d   1      24.541 -19.289  -0.145  0.00  0.00     0.003 A 
ATOM     10  C   UNL d   1      23.179 -19.302  -0.446  0.00  0.00     0.036 A 
ATOM     11  C   UNL d   1      22.547 -18.103  -0.789  0.00  0.00     0.103 A 
ATOM     12  C   UNL d   1      23.266 -16.898  -0.829  0.00  0.00     0.047 A 
BRANCH  11  13
ATOM     13  N   UNL d   1      21.133 -18.108  -1.182  0.00  0.00    -0.116 N 
ATOM     14  O   UNL d   1      20.553 -17.017  -1.270  0.00  0.00    -0.532 OA
ATOM     15  O   UNL d   1      20.601 -19.208  -1.401  0.00  0.00    -0.532 OA
ENDBRANCH  11  13
ENDBRANCH   6   7
ENDBRANCH   2   5
BRANCH   3  16
ATOM     16  N   UNL d   1      28.594 -14.441   1.938  0.00  0.00    -0.249 N 
ATOM     17  C   UNL d   1      28.052 -14.185   3.189  0.00  0.00     0.334 C 
ATOM     18  O   UNL d   1      27.200 -13.317   3.380  0.00  0.00    -0.246 OA
ATOM     19  N   UNL d   1      28.560 -14.986   4.194  0.00  0.00    -0.341 N 
ATOM     20  H   UNL d   1      29.242 -15.697   3.981  0.00  0.00     0.164 HD
ATOM     21  H   UNL d   1      29.276 -15.170   1.810  0.00  0.00     0.192 HD
BRANCH  19  22
ATOM     22  C   UNL d   1      28.088 -14.855   5.568  0.00  0.00     0.129 C 
BRANCH  22  23
ATOM     23  C   UNL d   1      28.721 -13.697   6.300  0.00  0.00     0.003 A 
ATOM     24  C   UNL d   1      29.696 -12.775   5.598  0.00  0.00     0.007 A 
ATOM     25  C   UNL d   1      28.321 -12.279   5.935  0.00  0.00     0.007 A 
ENDBRANCH  22  23
ENDBRANCH  19  22
ENDBRANCH   3  16
TORSDOF 6
ENDMDL
MODEL 4
REMARK VINA RESULT:    -6.365      2.960      4.025
REMARK INTER + INTRA:          -9.357
REMARK INTER:                  -8.155
REMARK INTRA:                  -1.202
REMARK CONF_INDEPENDENT:        1.790
REMARK UNBOUND:                -1.202
REMARK  6 active torsions:
REMARK  status: ('A' for Active; 'I' for Inactive)
REMARK    1  A    between atoms: C_2  and  C_3 
REMARK       I    between atoms: C_2  and  N_14 
REMARK    2  A    between atoms: C_4  and  C_5 
REMARK    3  A    between atoms: C_9  and  N_10 
REMARK    4  A    between atoms: N_14  and  N_15 
REMARK       I    between atoms: N_15  and  C_16 
REMARK       I    between atoms: C_16  and  N_18 
REMARK    5  A    between atoms: N_18  and  C_19 
REMARK    6  A    between atoms: C_19  and  C_20 
ROOT
ATOM      1  O   UNL d   1      26.721 -15.411  -5.667  0.00  0.00    -0.267 OA
ATOM      2  C   UNL d   1      26.436 -14.837  -4.616  0.00  0.00     0.259 C 
ATOM      3  N   UNL d   1      26.876 -13.554  -4.365  0.00  0.00    -0.263 N 
ATOM      4  H   UNL d   1      27.455 -13.117  -5.086  0.00  0.00     0.190 HD
ENDROOT
BRANCH   2   5
ATOM      5  C   UNL d   1      25.599 -15.512  -3.585  0.00  0.00     0.076 C 
ATOM      6  C   UNL d   1      26.123 -16.006  -2.448  0.00  0.00     0.017 C 
BRANCH   6   7
ATOM      7  C   UNL d   1      25.335 -16.748  -1.446  0.00  0.00    -0.034 A 
ATOM      8  C   UNL d   1      25.974 -17.328  -0.340  0.00  0.00     0.011 A 
ATOM      9  C   UNL d   1      25.283 -18.200   0.513  0.00  0.00     0.003 A 
ATOM     10  C   UNL d   1      23.927 -18.454   0.313  0.00  0.00     0.036 A 
ATOM     11  C   UNL d   1      23.277 -17.856  -0.771  0.00  0.00     0.103 A 
ATOM     12  C   UNL d   1      23.973 -17.008  -1.647  0.00  0.00     0.047 A 
BRANCH  11  13
ATOM     13  N   UNL d   1      21.869 -18.169  -1.043  0.00  0.00    -0.116 N 
ATOM     14  O   UNL d   1      21.035 -17.265  -0.896  0.00  0.00    -0.532 OA
ATOM     15  O   UNL d   1      21.597 -19.325  -1.403  0.00  0.00    -0.532 OA
ENDBRANCH  11  13
ENDBRANCH   6   7
ENDBRANCH   2   5
BRANCH   3  16
ATOM     16  N   UNL d   1      26.637 -12.767  -3.209  0.00  0.00    -0.249 N 
ATOM     17  C   UNL d   1      27.324 -13.050  -2.038  0.00  0.00     0.334 C 
ATOM     18  O   UNL d   1      28.145 -13.964  -1.953  0.00  0.00    -0.246 OA
ATOM     19  N   UNL d   1      26.999 -12.221  -0.983  0.00  0.00    -0.341 N 
ATOM     20  H   UNL d   1      26.336 -11.473  -1.110  0.00  0.00     0.164 HD
ATOM     21  H   UNL d   1      25.985 -12.001  -3.253  0.00  0.00     0.192 HD
BRANCH  19  22
ATOM     22  C   UNL d   1      27.641 -12.375   0.318  0.00  0.00     0.129 C 
BRANCH  22  23
ATOM     23  C   UNL d   1      27.015 -13.461   1.158  0.00  0.00     0.003 A 
ATOM     24  C   UNL d   1      27.641 -14.837   1.239  0.00  0.00     0.007 A 
ATOM     25  C   UNL d   1      27.719 -13.919   2.423  0.00  0.00     0.007 A 
ENDBRANCH  22  23
ENDBRANCH  19  22
ENDBRANCH   3  16
TORSDOF 6
ENDMDL
MODEL 5
REMARK VINA RESULT:    -6.182      3.976      8.612
REMARK INTER + INTRA:          -8.955
REMARK INTER:                  -7.972
REMARK INTRA:                  -0.984
REMARK CONF_INDEPENDENT:        1.790
REMARK UNBOUND:                -0.984
REMARK  6 active torsions:
REMARK  status: ('A' for Active; 'I' for Inactive)
REMARK    1  A    between atoms: C_2  and  C_3 
REMARK       I    between atoms: C_2  and  N_14 
REMARK    2  A    between atoms: C_4  and  C_5 
REMARK    3  A    between atoms: C_9  and  N_10 
REMARK    4  A    between atoms: N_14  and  N_15 
REMARK       I    between atoms: N_15  and  C_16 
REMARK       I    between atoms: C_16  and  N_18 
REMARK    5  A    between atoms: N_18  and  C_19 
REMARK    6  A    between atoms: C_19  and  C_20 
ROOT
ATOM      1  O   UNL d   1      25.243  -9.704  -5.081  0.00  0.00    -0.267 OA
ATOM      2  C   UNL d   1      25.530 -10.395  -4.104  0.00  0.00     0.259 C 
ATOM      3  N   UNL d   1      25.356 -11.764  -4.125  0.00  0.00    -0.263 N 
ATOM      4  H   UNL d   1      24.969 -12.164  -4.983  0.00  0.00     0.190 HD
ENDROOT
BRANCH   2   5
ATOM      5  C   UNL d   1      26.082  -9.772  -2.868  0.00  0.00     0.076 C 
ATOM      6  C   UNL d   1      25.801  -8.503  -2.519  0.00  0.00     0.017 C 
BRANCH   6   7
ATOM      7  C   UNL d   1      26.394  -7.833  -1.346  0.00  0.00    -0.034 A 
ATOM      8  C   UNL d   1      27.529  -7.023  -1.499  0.00  0.00     0.011 A 
ATOM      9  C   UNL d   1      28.224  -6.541  -0.382  0.00  0.00     0.003 A 
ATOM     10  C   UNL d   1      27.758  -6.806   0.906  0.00  0.00     0.036 A 
ATOM     11  C   UNL d   1      26.610  -7.589   1.065  0.00  0.00     0.103 A 
ATOM     12  C   UNL d   1      25.930  -8.101  -0.051  0.00  0.00     0.047 A 
BRANCH  11  13
ATOM     13  N   UNL d   1      26.147  -7.942   2.412  0.00  0.00    -0.116 N 
ATOM     14  O   UNL d   1      25.272  -8.812   2.514  0.00  0.00    -0.532 OA
ATOM     15  O   UNL d   1      26.659  -7.344   3.371  0.00  0.00    -0.532 OA
ENDBRANCH  11  13
ENDBRANCH   6   7
ENDBRANCH   2   5
BRANCH   3  16
ATOM     16  N   UNL d   1      25.635 -12.689  -3.087  0.00  0.00    -0.249 N 
ATOM     17  C   UNL d   1      25.279 -14.020  -3.248  0.00  0.00     0.334 C 
ATOM     18  O   UNL d   1      24.726 -14.443  -4.264  0.00  0.00    -0.246 OA
ATOM     19  N   UNL d   1      25.595 -14.819  -2.166  0.00  0.00    -0.341 N 
ATOM     20  H   UNL d   1      26.067 -14.428  -1.367  0.00  0.00     0.164 HD
ATOM     21  H   UNL d   1      26.102 -12.377  -2.252  0.00  0.00     0.192 HD
BRANCH  19  22
ATOM     22  C   UNL d   1      25.299 -16.247  -2.178  0.00  0.00     0.129 C 
BRANCH  22  23
ATOM     23  C   UNL d   1      24.596 -16.714  -0.927  0.00  0.00     0.003 A 
ATOM     24  C   UNL d   1      23.085 -16.710  -0.840  0.00  0.00     0.007 A 
ATOM     25  C   UNL d   1      23.814 -18.015  -0.957  0.00  0.00     0.007 A 
ENDBRANCH  22  23
ENDBRANCH  19  22
ENDBRANCH   3  16
TORSDOF 6
ENDMDL
MODEL 6
REMARK VINA RESULT:    -6.120      7.928     10.252
REMARK INTER + INTRA:          -9.243
REMARK INTER:                  -7.910
REMARK INTRA:                  -1.334
REMARK CONF_INDEPENDENT:        1.790
REMARK UNBOUND:                -1.334
REMARK  6 active torsions:
REMARK  status: ('A' for Active; 'I' for Inactive)
REMARK    1  A    between atoms: C_2  and  C_3 
REMARK       I    between atoms: C_2  and  N_14 
REMARK    2  A    between atoms: C_4  and  C_5 
REMARK    3  A    between atoms: C_9  and  N_10 
REMARK    4  A    between atoms: N_14  and  N_15 
REMARK       I    between atoms: N_15  and  C_16 
REMARK       I    between atoms: C_16  and  N_18 
REMARK    5  A    between atoms: N_18  and  C_19 
REMARK    6  A    between atoms: C_19  and  C_20 
ROOT
ATOM      1  O   UNL d   1      28.653 -13.629   7.876  0.00  0.00    -0.267 OA
ATOM      2  C   UNL d   1      28.764 -13.679   6.651  0.00  0.00     0.259 C 
ATOM      3  N   UNL d   1      28.754 -14.888   5.985  0.00  0.00    -0.263 N 
ATOM      4  H   UNL d   1      28.661 -15.729   6.561  0.00  0.00     0.190 HD
ENDROOT
BRANCH   2   5
ATOM      5  C   UNL d   1      28.907 -12.432   5.849  0.00  0.00     0.076 C 
ATOM      6  C   UNL d   1      27.958 -11.477   5.835  0.00  0.00     0.017 C 
BRANCH   6   7
ATOM      7  C   UNL d   1      28.035 -10.270   4.991  0.00  0.00    -0.034 A 
ATOM      8  C   UNL d   1      29.051  -9.326   5.206  0.00  0.00     0.011 A 
ATOM      9  C   UNL d   1      29.029  -8.085   4.557  0.00  0.00     0.003 A 
ATOM     10  C   UNL d   1      28.026  -7.792   3.632  0.00  0.00     0.036 A 
ATOM     11  C   UNL d   1      27.026  -8.739   3.392  0.00  0.00     0.103 A 
ATOM     12  C   UNL d   1      27.027  -9.971   4.065  0.00  0.00     0.047 A 
BRANCH  11  13
ATOM     13  N   UNL d   1      25.921  -8.420   2.479  0.00  0.00    -0.116 N 
ATOM     14  O   UNL d   1      25.146  -9.334   2.167  0.00  0.00    -0.532 OA
ATOM     15  O   UNL d   1      25.831  -7.251   2.072  0.00  0.00    -0.532 OA
ENDBRANCH  11  13
ENDBRANCH   6   7
ENDBRANCH   2   5
BRANCH   3  16
ATOM     16  N   UNL d   1      28.874 -15.109   4.590  0.00  0.00    -0.249 N 
ATOM     17  C   UNL d   1      27.955 -14.530   3.727  0.00  0.00     0.334 C 
ATOM     18  O   UNL d   1      27.027 -13.822   4.121  0.00  0.00    -0.246 OA
ATOM     19  N   UNL d   1      28.173 -14.825   2.395  0.00  0.00    -0.341 N 
ATOM     20  H   UNL d   1      28.961 -15.392   2.123  0.00  0.00     0.164 HD
ATOM     21  H   UNL d   1      29.632 -15.668   4.236  0.00  0.00     0.192 HD
BRANCH  19  22
ATOM     22  C   UNL d   1      27.305 -14.285   1.356  0.00  0.00     0.129 C 
BRANCH  22  23
ATOM     23  C   UNL d   1      27.102 -12.794   1.473  0.00  0.00     0.003 A 
ATOM     24  C   UNL d   1      28.286 -11.859   1.600  0.00  0.00     0.007 A 
ATOM     25  C   UNL d   1      27.509 -11.897   0.318  0.00  0.00     0.007 A 
ENDBRANCH  22  23
ENDBRANCH  19  22
ENDBRANCH   3  16
TORSDOF 6
ENDMDL
MODEL 7
REMARK VINA RESULT:    -6.114      4.164      8.143
REMARK INTER + INTRA:          -8.915
REMARK INTER:                  -7.904
REMARK INTRA:                  -1.011
REMARK CONF_INDEPENDENT:        1.790
REMARK UNBOUND:                -1.011
REMARK  6 active torsions:
REMARK  status: ('A' for Active; 'I' for Inactive)
REMARK    1  A    between atoms: C_2  and  C_3 
REMARK       I    between atoms: C_2  and  N_14 
REMARK    2  A    between atoms: C_4  and  C_5 
REMARK    3  A    between atoms: C_9  and  N_10 
REMARK    4  A    between atoms: N_14  and  N_15 
REMARK       I    between atoms: N_15  and  C_16 
REMARK       I    between atoms: C_16  and  N_18 
REMARK    5  A    between atoms: N_18  and  C_19 
REMARK    6  A    between atoms: C_19  and  C_20 
ROOT
ATOM      1  O   UNL d   1      25.717  -9.726  -5.040  0.00  0.00    -0.267 OA
ATOM      2  C   UNL d   1      25.806 -10.432  -4.035  0.00  0.00     0.259 C 
ATOM      3  N   UNL d   1      25.538 -11.784  -4.091  0.00  0.00    -0.263 N 
ATOM      4  H   UNL d   1      25.255 -12.160  -4.999  0.00  0.00     0.190 HD
ENDROOT
BRANCH   2   5
ATOM      5  C   UNL d   1      26.212  -9.845  -2.728  0.00  0.00     0.076 C 
ATOM      6  C   UNL d   1      27.302 -10.268  -2.060  0.00  0.00     0.017 C 
BRANCH   6   7
ATOM      7  C   UNL d   1      27.685  -9.763  -0.729  0.00  0.00    -0.034 A 
ATOM      8  C   UNL d   1      28.834 -10.257  -0.094  0.00  0.00     0.011 A 
ATOM      9  C   UNL d   1      29.108  -9.943   1.244  0.00  0.00     0.003 A 
ATOM     10  C   UNL d   1      28.273  -9.077   1.949  0.00  0.00     0.036 A 
ATOM     11  C   UNL d   1      27.141  -8.557   1.314  0.00  0.00     0.103 A 
ATOM     12  C   UNL d   1      26.845  -8.896  -0.016  0.00  0.00     0.047 A 
BRANCH  11  13
ATOM     13  N   UNL d   1      26.209  -7.705   2.061  0.00  0.00    -0.116 N 
ATOM     14  O   UNL d   1      26.509  -7.399   3.223  0.00  0.00    -0.532 OA
ATOM     15  O   UNL d   1      25.172  -7.343   1.484  0.00  0.00    -0.532 OA
ENDBRANCH  11  13
ENDBRANCH   6   7
ENDBRANCH   2   5
BRANCH   3  16
ATOM     16  N   UNL d   1      25.592 -12.722  -3.029  0.00  0.00    -0.249 N 
ATOM     17  C   UNL d   1      25.208 -14.035  -3.260  0.00  0.00     0.334 C 
ATOM     18  O   UNL d   1      24.818 -14.431  -4.360  0.00  0.00    -0.246 OA
ATOM     19  N   UNL d   1      25.296 -14.849  -2.148  0.00  0.00    -0.341 N 
ATOM     20  H   UNL d   1      25.642 -14.481  -1.275  0.00  0.00     0.164 HD
ATOM     21  H   UNL d   1      25.923 -12.434  -2.124  0.00  0.00     0.192 HD
BRANCH  19  22
ATOM     22  C   UNL d   1      24.942 -16.262  -2.223  0.00  0.00     0.129 C 
BRANCH  22  23
ATOM     23  C   UNL d   1      24.417 -16.808  -0.917  0.00  0.00     0.003 A 
ATOM     24  C   UNL d   1      23.710 -18.146  -0.865  0.00  0.00     0.007 A 
ATOM     25  C   UNL d   1      25.092 -18.017  -0.294  0.00  0.00     0.007 A 
ENDBRANCH  22  23
ENDBRANCH  19  22
ENDBRANCH   3  16
TORSDOF 6
ENDMDL
MODEL 8
REMARK VINA RESULT:    -6.053      8.210     10.145
REMARK INTER + INTRA:          -8.786
REMARK INTER:                  -7.843
REMARK INTRA:                  -0.943
REMARK CONF_INDEPENDENT:        1.790
REMARK UNBOUND:                -0.943
REMARK  6 active torsions:
REMARK  status: ('A' for Active; 'I' for Inactive)
REMARK    1  A    between atoms: C_2  and  C_3 
REMARK       I    between atoms: C_2  and  N_14 
REMARK    2  A    between atoms: C_4  and  C_5 
REMARK    3  A    between atoms: C_9  and  N_10 
REMARK    4  A    between atoms: N_14  and  N_15 
REMARK       I    between atoms: N_15  and  C_16 
REMARK       I    between atoms: C_16  and  N_18 
REMARK    5  A    between atoms: N_18  and  C_19 
REMARK    6  A    between atoms: C_19  and  C_20 
ROOT
ATOM      1  O   UNL d   1      34.398 -19.896  -0.551  0.00  0.00    -0.267 OA
ATOM      2  C   UNL d   1      33.373 -19.500   0.004  0.00  0.00     0.259 C 
ATOM      3  N   UNL d   1      32.362 -18.897  -0.716  0.00  0.00    -0.263 N 
ATOM      4  H   UNL d   1      32.515 -18.788  -1.722  0.00  0.00     0.190 HD
ENDROOT
BRANCH   2   5
ATOM      5  C   UNL d   1      33.191 -19.667   1.473  0.00  0.00     0.076 C 
ATOM      6  C   UNL d   1      33.725 -20.703   2.147  0.00  0.00     0.017 C 
BRANCH   6   7
ATOM      7  C   UNL d   1      33.498 -20.938   3.586  0.00  0.00    -0.034 A 
ATOM      8  C   UNL d   1      34.580 -21.235   4.428  0.00  0.00     0.011 A 
ATOM      9  C   UNL d   1      34.369 -21.656   5.748  0.00  0.00     0.003 A 
ATOM     10  C   UNL d   1      33.076 -21.724   6.267  0.00  0.00     0.036 A 
ATOM     11  C   UNL d   1      31.995 -21.402   5.442  0.00  0.00     0.103 A 
ATOM     12  C   UNL d   1      32.200 -21.011   4.109  0.00  0.00     0.047 A 
BRANCH  11  13
ATOM     13  N   UNL d   1      30.623 -21.540   5.946  0.00  0.00    -0.116 N 
ATOM     14  O   UNL d   1      29.764 -21.985   5.173  0.00  0.00    -0.532 OA
ATOM     15  O   UNL d   1      30.405 -21.198   7.119  0.00  0.00    -0.532 OA
ENDBRANCH  11  13
ENDBRANCH   6   7
ENDBRANCH   2   5
BRANCH   3  16
ATOM     16  N   UNL d   1      31.132 -18.388  -0.225  0.00  0.00    -0.249 N 
ATOM     17  C   UNL d   1      30.219 -17.840  -1.113  0.00  0.00     0.334 C 
ATOM     18  O   UNL d   1      30.426 -17.774  -2.325  0.00  0.00    -0.246 OA
ATOM     19  N   UNL d   1      29.065 -17.373  -0.514  0.00  0.00    -0.341 N 
ATOM     20  H   UNL d   1      28.935 -17.471   0.481  0.00  0.00     0.164 HD
ATOM     21  H   UNL d   1      30.926 -18.445   0.758  0.00  0.00     0.192 HD
BRANCH  19  22
ATOM     22  C   UNL d   1      27.996 -16.778  -1.307  0.00  0.00     0.129 C 
BRANCH  22  23
ATOM     23  C   UNL d   1      26.728 -16.560  -0.518  0.00  0.00     0.003 A 
ATOM     24  C   UNL d   1      25.404 -17.105  -1.011  0.00  0.00     0.007 A 
ATOM     25  C   UNL d   1      26.071 -17.741   0.172  0.00  0.00     0.007 A 
ENDBRANCH  22  23
ENDBRANCH  19  22
ENDBRANCH   3  16
TORSDOF 6
ENDMDL
MODEL 9
REMARK VINA RESULT:    -5.934      9.069     11.553
REMARK INTER + INTRA:          -8.845
REMARK INTER:                  -7.723
REMARK INTRA:                  -1.122
REMARK CONF_INDEPENDENT:        1.790
REMARK UNBOUND:                -1.122
REMARK  6 active torsions:
REMARK  status: ('A' for Active; 'I' for Inactive)
REMARK    1  A    between atoms: C_2  and  C_3 
REMARK       I    between atoms: C_2  and  N_14 
REMARK    2  A    between atoms: C_4  and  C_5 
REMARK    3  A    between atoms: C_9  and  N_10 
REMARK    4  A    between atoms: N_14  and  N_15 
REMARK       I    between atoms: N_15  and  C_16 
REMARK       I    between atoms: C_16  and  N_18 
REMARK    5  A    between atoms: N_18  and  C_19 
REMARK    6  A    between atoms: C_19  and  C_20 
ROOT
ATOM      1  O   UNL d   1      27.783 -14.836   2.549  0.00  0.00    -0.267 OA
ATOM      2  C   UNL d   1      28.521 -14.195   3.297  0.00  0.00     0.259 C 
ATOM      3  N   UNL d   1      29.354 -14.835   4.192  0.00  0.00    -0.263 N 
ATOM      4  H   UNL d   1      29.316 -15.857   4.206  0.00  0.00     0.190 HD
ENDROOT
BRANCH   2   5
ATOM      5  C   UNL d   1      28.540 -12.706   3.254  0.00  0.00     0.076 C 
ATOM      6  C   UNL d   1      28.112 -11.954   4.284  0.00  0.00     0.017 C 
BRANCH   6   7
ATOM      7  C   UNL d   1      28.045 -10.481   4.242  0.00  0.00    -0.034 A 
ATOM      8  C   UNL d   1      28.706  -9.719   5.216  0.00  0.00     0.011 A 
ATOM      9  C   UNL d   1      28.495  -8.337   5.314  0.00  0.00     0.003 A 
ATOM     10  C   UNL d   1      27.672  -7.684   4.398  0.00  0.00     0.036 A 
ATOM     11  C   UNL d   1      27.032  -8.433   3.405  0.00  0.00     0.103 A 
ATOM     12  C   UNL d   1      27.214  -9.823   3.324  0.00  0.00     0.047 A 
BRANCH  11  13
ATOM     13  N   UNL d   1      26.102  -7.776   2.479  0.00  0.00    -0.116 N 
ATOM     14  O   UNL d   1      25.388  -8.496   1.767  0.00  0.00    -0.532 OA
ATOM     15  O   UNL d   1      26.088  -6.535   2.462  0.00  0.00    -0.532 OA
ENDBRANCH  11  13
ENDBRANCH   6   7
ENDBRANCH   2   5
BRANCH   3  16
ATOM     16  N   UNL d   1      30.253 -14.242   5.115  0.00  0.00    -0.249 N 
ATOM     17  C   UNL d   1      29.866 -14.089   6.439  0.00  0.00     0.334 C 
ATOM     18  O   UNL d   1      28.766 -14.451   6.857  0.00  0.00    -0.246 OA
ATOM     19  N   UNL d   1      30.823 -13.492   7.236  0.00  0.00    -0.341 N 
ATOM     20  H   UNL d   1      31.718 -13.234   6.850  0.00  0.00     0.164 HD
ATOM     21  H   UNL d   1      31.166 -13.953   4.808  0.00  0.00     0.192 HD
BRANCH  19  22
ATOM     22  C   UNL d   1      30.582 -13.269   8.658  0.00  0.00     0.129 C 
BRANCH  22  23
ATOM     23  C   UNL d   1      29.705 -12.071   8.925  0.00  0.00     0.003 A 
ATOM     24  C   UNL d   1      28.281 -12.021   8.412  0.00  0.00     0.007 A 
ATOM     25  C   UNL d   1      28.532 -12.207   9.879  0.00  0.00     0.007 A 
ENDBRANCH  22  23
ENDBRANCH  19  22
ENDBRANCH   3  16
TORSDOF 6
ENDMDL
