MODEL 1
REMARK VINA RESULT:    -8.009      0.000      0.000
REMARK INTER + INTRA:         -12.963
REMARK INTER:                 -10.992
REMARK INTRA:                  -1.972
REMARK CONF_INDEPENDENT:        2.983
REMARK UNBOUND:                -1.972
REMARK  10 active torsions:
REMARK  status: ('A' for Active; 'I' for Inactive)
REMARK    1  A    between atoms: C_2  and  C_3 
REMARK    2  A    between atoms: C_6  and  O_7 
REMARK    3  A    between atoms: O_7  and  C_8 
REMARK    4  A    between atoms: C_8  and  C_9 
REMARK       I    between atoms: C_9  and  N_11 
REMARK    5  A    between atoms: N_11  and  N_12 
REMARK    6  A    between atoms: N_12  and  C_13 
REMARK    7  A    between atoms: C_13  and  N_15 
REMARK       I    between atoms: N_15  and  C_16 
REMARK    8  A    between atoms: C_16  and  C_18 
REMARK    9  A    between atoms: C_22  and  C_23 
REMARK   10  A    between atoms: C_23  and  O_25 
ROOT
ATOM      1  N   UNL d   1      26.333 -13.562  -4.726  0.00  0.00    -0.273 N 
ATOM      2  H   UNL d   1      25.725 -14.140  -5.304  0.00  0.00     0.189 HD
ENDROOT
BRANCH   1   3
ATOM      3  N   UNL d   1      27.618 -13.232  -5.346  0.00  0.00    -0.266 N 
ATOM      4  C   UNL d   1      28.241 -14.113  -6.227  0.00  0.00     0.260 C 
ATOM      5  O   UNL d   1      27.729 -15.200  -6.497  0.00  0.00    -0.269 OA
ATOM      6  H   UNL d   1      28.003 -12.322  -5.088  0.00  0.00     0.190 HD
BRANCH   4   7
ATOM      7  C   UNL d   1      29.601 -13.632  -6.828  0.00  0.00     0.280 C 
BRANCH   7   8
ATOM      8  O   UNL d   1      30.711 -14.333  -6.242  0.00  0.00    -0.342 OA
BRANCH   8   9
ATOM      9  C   UNL d   1      30.607 -15.688  -6.052  0.00  0.00     0.069 A 
ATOM     10  C   UNL d   1      30.919 -16.504  -7.150  0.00  0.00     0.037 A 
ATOM     11  C   UNL d   1      30.780 -17.901  -7.084  0.00  0.00     0.010 A 
ATOM     12  C   UNL d   1      30.421 -18.509  -5.878  0.00  0.00    -0.058 A 
ATOM     13  C   UNL d   1      30.099 -17.687  -4.792  0.00  0.00     0.010 A 
ATOM     14  C   UNL d   1      30.208 -16.297  -4.869  0.00  0.00     0.037 A 
BRANCH  12  15
ATOM     15  C   UNL d   1      30.443 -20.010  -5.702  0.00  0.00     0.034 C 
ATOM     16  C   UNL d   1      31.309 -20.672  -6.777  0.00  0.00     0.010 C 
ENDBRANCH  12  15
ENDBRANCH   8   9
ENDBRANCH   7   8
ENDBRANCH   4   7
ENDBRANCH   1   3
BRANCH   1  17
ATOM     17  C   UNL d   1      26.037 -13.057  -3.445  0.00  0.00     0.193 C 
ATOM     18  S   UNL d   1      26.127 -11.394  -3.173  0.00  0.00    -0.039 SA
BRANCH  17  19
ATOM     19  N   UNL d   1      25.688 -14.024  -2.469  0.00  0.00    -0.298 N 
ATOM     20  C   UNL d   1      25.426 -15.398  -2.704  0.00  0.00     0.257 C 
ATOM     21  O   UNL d   1      25.478 -15.947  -3.801  0.00  0.00    -0.267 OA
ATOM     22  H   UNL d   1      25.654 -13.721  -1.506  0.00  0.00     0.171 HD
BRANCH  20  23
ATOM     23  C   UNL d   1      25.016 -16.309  -1.589  0.00  0.00     0.033 A 
ATOM     24  C   UNL d   1      26.014 -16.783  -0.706  0.00  0.00     0.017 A 
ATOM     25  C   UNL d   1      25.761 -17.847   0.167  0.00  0.00     0.002 A 
ATOM     26  C   UNL d   1      24.488 -18.412   0.209  0.00  0.00     0.017 A 
ATOM     27  C   UNL d   1      23.481 -17.953  -0.658  0.00  0.00     0.040 A 
ATOM     28  C   UNL d   1      23.751 -16.901  -1.559  0.00  0.00     0.034 A 
BRANCH  27  29
ATOM     29  C   UNL d   1      22.168 -18.658  -0.635  0.00  0.00     0.292 C 
ATOM     30  O   UNL d   1      21.586 -19.034  -1.648  0.00  0.00    -0.259 OA
BRANCH  29  31
ATOM     31  O   UNL d   1      21.723 -18.814   0.635  0.00  0.00    -0.323 OA
ATOM     32  C   UNL d   1      20.414 -19.386   0.733  0.00  0.00     0.213 C 
ENDBRANCH  29  31
ENDBRANCH  27  29
ENDBRANCH  20  23
ENDBRANCH  17  19
ENDBRANCH   1  17
TORSDOF 10
ENDMDL
MODEL 2
REMARK VINA RESULT:    -7.887      3.272      7.907
REMARK INTER + INTRA:         -12.828
REMARK INTER:                 -10.870
REMARK INTRA:                  -1.959
REMARK CONF_INDEPENDENT:        2.983
REMARK UNBOUND:                -1.959
REMARK  10 active torsions:
REMARK  status: ('A' for Active; 'I' for Inactive)
REMARK    1  A    between atoms: C_2  and  C_3 
REMARK    2  A    between atoms: C_6  and  O_7 
REMARK    3  A    between atoms: O_7  and  C_8 
REMARK    4  A    between atoms: C_8  and  C_9 
REMARK       I    between atoms: C_9  and  N_11 
REMARK    5  A    between atoms: N_11  and  N_12 
REMARK    6  A    between atoms: N_12  and  C_13 
REMARK    7  A    between atoms: C_13  and  N_15 
REMARK       I    between atoms: N_15  and  C_16 
REMARK    8  A    between atoms: C_16  and  C_18 
REMARK    9  A    between atoms: C_22  and  C_23 
REMARK   10  A    between atoms: C_23  and  O_25 
ROOT
ATOM      1  N   UNL d   1      30.149 -17.509  -0.328  0.00  0.00    -0.273 N 
ATOM      2  H   UNL d   1      30.373 -18.368   0.174  0.00  0.00     0.189 HD
ENDROOT
BRANCH   1   3
ATOM      3  N   UNL d   1      29.017 -16.764   0.228  0.00  0.00    -0.266 N 
ATOM      4  C   UNL d   1      27.801 -16.690  -0.446  0.00  0.00     0.260 C 
ATOM      5  O   UNL d   1      27.652 -17.242  -1.537  0.00  0.00    -0.269 OA
ATOM      6  H   UNL d   1      29.192 -16.321   1.131  0.00  0.00     0.190 HD
BRANCH   4   7
ATOM      7  C   UNL d   1      26.673 -15.875   0.264  0.00  0.00     0.280 C 
BRANCH   7   8
ATOM      8  O   UNL d   1      25.512 -15.743  -0.574  0.00  0.00    -0.342 OA
BRANCH   8   9
ATOM      9  C   UNL d   1      24.546 -16.717  -0.517  0.00  0.00     0.069 A 
ATOM     10  C   UNL d   1      23.228 -16.312  -0.781  0.00  0.00     0.037 A 
ATOM     11  C   UNL d   1      22.154 -17.213  -0.682  0.00  0.00     0.010 A 
ATOM     12  C   UNL d   1      22.400 -18.563  -0.416  0.00  0.00    -0.058 A 
ATOM     13  C   UNL d   1      23.716 -18.955  -0.141  0.00  0.00     0.010 A 
ATOM     14  C   UNL d   1      24.778 -18.051  -0.209  0.00  0.00     0.037 A 
BRANCH  12  15
ATOM     15  C   UNL d   1      21.307 -19.604  -0.488  0.00  0.00     0.034 C 
ATOM     16  C   UNL d   1      19.942 -18.947  -0.706  0.00  0.00     0.010 C 
ENDBRANCH  12  15
ENDBRANCH   8   9
ENDBRANCH   7   8
ENDBRANCH   4   7
ENDBRANCH   1   3
BRANCH   1  17
ATOM     17  C   UNL d   1      30.828 -16.994  -1.449  0.00  0.00     0.193 C 
ATOM     18  S   UNL d   1      32.510 -17.118  -1.521  0.00  0.00    -0.039 SA
BRANCH  17  19
ATOM     19  N   UNL d   1      30.012 -16.394  -2.440  0.00  0.00    -0.298 N 
ATOM     20  C   UNL d   1      30.171 -16.513  -3.844  0.00  0.00     0.257 C 
ATOM     21  O   UNL d   1      31.045 -17.173  -4.400  0.00  0.00    -0.267 OA
ATOM     22  H   UNL d   1      29.218 -15.855  -2.124  0.00  0.00     0.171 HD
BRANCH  20  23
ATOM     23  C   UNL d   1      29.268 -15.784  -4.790  0.00  0.00     0.033 A 
ATOM     24  C   UNL d   1      29.758 -15.469  -6.079  0.00  0.00     0.017 A 
ATOM     25  C   UNL d   1      29.092 -14.553  -6.901  0.00  0.00     0.002 A 
ATOM     26  C   UNL d   1      27.897 -13.984  -6.467  0.00  0.00     0.017 A 
ATOM     27  C   UNL d   1      27.392 -14.286  -5.190  0.00  0.00     0.040 A 
ATOM     28  C   UNL d   1      28.084 -15.187  -4.352  0.00  0.00     0.034 A 
BRANCH  27  29
ATOM     29  C   UNL d   1      26.161 -13.575  -4.742  0.00  0.00     0.292 C 
ATOM     30  O   UNL d   1      26.094 -12.357  -4.614  0.00  0.00    -0.259 OA
BRANCH  29  31
ATOM     31  O   UNL d   1      25.156 -14.450  -4.500  0.00  0.00    -0.323 OA
ATOM     32  C   UNL d   1      25.249 -15.118  -3.236  0.00  0.00     0.213 C 
ENDBRANCH  29  31
ENDBRANCH  27  29
ENDBRANCH  20  23
ENDBRANCH  17  19
ENDBRANCH   1  17
TORSDOF 10
ENDMDL
MODEL 3
REMARK VINA RESULT:    -7.673      2.591      8.305
REMARK INTER + INTRA:         -12.666
REMARK INTER:                 -10.656
REMARK INTRA:                  -2.010
REMARK CONF_INDEPENDENT:        2.983
REMARK UNBOUND:                -2.010
REMARK  10 active torsions:
REMARK  status: ('A' for Active; 'I' for Inactive)
REMARK    1  A    between atoms: C_2  and  C_3 
REMARK    2  A    between atoms: C_6  and  O_7 
REMARK    3  A    between atoms: O_7  and  C_8 
REMARK    4  A    between atoms: C_8  and  C_9 
REMARK       I    between atoms: C_9  and  N_11 
REMARK    5  A    between atoms: N_11  and  N_12 
REMARK    6  A    between atoms: N_12  and  C_13 
REMARK    7  A    between atoms: C_13  and  N_15 
REMARK       I    between atoms: N_15  and  C_16 
REMARK    8  A    between atoms: C_16  and  C_18 
REMARK    9  A    between atoms: C_22  and  C_23 
REMARK   10  A    between atoms: C_23  and  O_25 
ROOT
ATOM      1  N   UNL d   1      27.410 -14.209  -5.765  0.00  0.00    -0.273 N 
ATOM      2  H   UNL d   1      26.500 -13.823  -6.015  0.00  0.00     0.189 HD
ENDROOT
BRANCH   1   3
ATOM      3  N   UNL d   1      27.432 -14.921  -4.486  0.00  0.00    -0.266 N 
ATOM      4  C   UNL d   1      26.258 -15.167  -3.777  0.00  0.00     0.260 C 
ATOM      5  O   UNL d   1      25.171 -14.780  -4.207  0.00  0.00    -0.269 OA
ATOM      6  H   UNL d   1      28.357 -15.217  -4.170  0.00  0.00     0.190 HD
BRANCH   4   7
ATOM      7  C   UNL d   1      26.421 -15.947  -2.434  0.00  0.00     0.280 C 
BRANCH   7   8
ATOM      8  O   UNL d   1      25.400 -15.585  -1.489  0.00  0.00    -0.342 OA
BRANCH   8   9
ATOM      9  C   UNL d   1      24.495 -16.541  -1.099  0.00  0.00     0.069 A 
ATOM     10  C   UNL d   1      23.152 -16.140  -1.016  0.00  0.00     0.037 A 
ATOM     11  C   UNL d   1      22.155 -17.021  -0.561  0.00  0.00     0.010 A 
ATOM     12  C   UNL d   1      22.476 -18.351  -0.279  0.00  0.00    -0.058 A 
ATOM     13  C   UNL d   1      23.820 -18.738  -0.351  0.00  0.00     0.010 A 
ATOM     14  C   UNL d   1      24.815 -17.853  -0.773  0.00  0.00     0.037 A 
BRANCH  12  15
ATOM     15  C   UNL d   1      21.414 -19.382   0.028  0.00  0.00     0.034 C 
ATOM     16  C   UNL d   1      20.197 -19.197  -0.881  0.00  0.00     0.010 C 
ENDBRANCH  12  15
ENDBRANCH   8   9
ENDBRANCH   7   8
ENDBRANCH   4   7
ENDBRANCH   1   3
BRANCH   1  17
ATOM     17  C   UNL d   1      28.589 -14.135  -6.533  0.00  0.00     0.193 C 
ATOM     18  S   UNL d   1      29.132 -12.629  -7.067  0.00  0.00    -0.039 SA
BRANCH  17  19
ATOM     19  N   UNL d   1      29.226 -15.372  -6.801  0.00  0.00    -0.298 N 
ATOM     20  C   UNL d   1      29.753 -16.271  -5.839  0.00  0.00     0.257 C 
ATOM     21  O   UNL d   1      29.718 -16.102  -4.623  0.00  0.00    -0.267 OA
ATOM     22  H   UNL d   1      29.284 -15.666  -7.766  0.00  0.00     0.171 HD
BRANCH  20  23
ATOM     23  C   UNL d   1      30.451 -17.529  -6.256  0.00  0.00     0.033 A 
ATOM     24  C   UNL d   1      30.850 -17.659  -7.607  0.00  0.00     0.017 A 
ATOM     25  C   UNL d   1      31.239 -18.898  -8.129  0.00  0.00     0.002 A 
ATOM     26  C   UNL d   1      31.289 -20.010  -7.291  0.00  0.00     0.017 A 
ATOM     27  C   UNL d   1      30.899 -19.901  -5.946  0.00  0.00     0.040 A 
ATOM     28  C   UNL d   1      30.478 -18.656  -5.432  0.00  0.00     0.034 A 
BRANCH  27  29
ATOM     29  C   UNL d   1      30.882 -21.144  -5.123  0.00  0.00     0.292 C 
ATOM     30  O   UNL d   1      30.031 -21.377  -4.270  0.00  0.00    -0.259 OA
BRANCH  29  31
ATOM     31  O   UNL d   1      31.920 -21.952  -5.443  0.00  0.00    -0.323 OA
ATOM     32  C   UNL d   1      32.767 -22.288  -4.339  0.00  0.00     0.213 C 
ENDBRANCH  29  31
ENDBRANCH  27  29
ENDBRANCH  20  23
ENDBRANCH  17  19
ENDBRANCH   1  17
TORSDOF 10
ENDMDL
MODEL 4
REMARK VINA RESULT:    -7.480      7.083      9.677
REMARK INTER + INTRA:         -12.671
REMARK INTER:                 -10.463
REMARK INTRA:                  -2.208
REMARK CONF_INDEPENDENT:        2.983
REMARK UNBOUND:                -2.208
REMARK  10 active torsions:
REMARK  status: ('A' for Active; 'I' for Inactive)
REMARK    1  A    between atoms: C_2  and  C_3 
REMARK    2  A    between atoms: C_6  and  O_7 
REMARK    3  A    between atoms: O_7  and  C_8 
REMARK    4  A    between atoms: C_8  and  C_9 
REMARK       I    between atoms: C_9  and  N_11 
REMARK    5  A    between atoms: N_11  and  N_12 
REMARK    6  A    between atoms: N_12  and  C_13 
REMARK    7  A    between atoms: C_13  and  N_15 
REMARK       I    between atoms: N_15  and  C_16 
REMARK    8  A    between atoms: C_16  and  C_18 
REMARK    9  A    between atoms: C_22  and  C_23 
REMARK   10  A    between atoms: C_23  and  O_25 
ROOT
ATOM      1  N   UNL d   1      27.961 -14.836   2.104  0.00  0.00    -0.273 N 
ATOM      2  H   UNL d   1      28.704 -15.365   2.561  0.00  0.00     0.189 HD
ENDROOT
BRANCH   1   3
ATOM      3  N   UNL d   1      27.328 -15.532   0.982  0.00  0.00    -0.266 N 
ATOM      4  C   UNL d   1      28.091 -16.178   0.012  0.00  0.00     0.260 C 
ATOM      5  O   UNL d   1      29.321 -16.168   0.069  0.00  0.00    -0.269 OA
ATOM      6  H   UNL d   1      26.308 -15.509   0.977  0.00  0.00     0.190 HD
BRANCH   4   7
ATOM      7  C   UNL d   1      27.291 -16.893  -1.123  0.00  0.00     0.280 C 
BRANCH   7   8
ATOM      8  O   UNL d   1      25.994 -16.299  -1.307  0.00  0.00    -0.342 OA
BRANCH   8   9
ATOM      9  C   UNL d   1      24.883 -17.023  -0.954  0.00  0.00     0.069 A 
ATOM     10  C   UNL d   1      23.648 -16.359  -1.033  0.00  0.00     0.037 A 
ATOM     11  C   UNL d   1      22.456 -16.986  -0.630  0.00  0.00     0.010 A 
ATOM     12  C   UNL d   1      22.472 -18.327  -0.237  0.00  0.00    -0.058 A 
ATOM     13  C   UNL d   1      23.709 -18.976  -0.148  0.00  0.00     0.010 A 
ATOM     14  C   UNL d   1      24.897 -18.342  -0.519  0.00  0.00     0.037 A 
BRANCH  12  15
ATOM     15  C   UNL d   1      21.199 -19.100   0.021  0.00  0.00     0.034 C 
ATOM     16  C   UNL d   1      20.414 -19.303  -1.276  0.00  0.00     0.010 C 
ENDBRANCH  12  15
ENDBRANCH   8   9
ENDBRANCH   7   8
ENDBRANCH   4   7
ENDBRANCH   1   3
BRANCH   1  17
ATOM     17  C   UNL d   1      27.500 -13.556   2.469  0.00  0.00     0.193 C 
ATOM     18  S   UNL d   1      26.694 -12.614   1.323  0.00  0.00    -0.039 SA
BRANCH  17  19
ATOM     19  N   UNL d   1      27.771 -13.162   3.803  0.00  0.00    -0.298 N 
ATOM     20  C   UNL d   1      28.241 -13.999   4.847  0.00  0.00     0.257 C 
ATOM     21  O   UNL d   1      28.492 -15.195   4.731  0.00  0.00    -0.267 OA
ATOM     22  H   UNL d   1      27.653 -12.184   4.031  0.00  0.00     0.171 HD
BRANCH  20  23
ATOM     23  C   UNL d   1      28.441 -13.468   6.233  0.00  0.00     0.033 A 
ATOM     24  C   UNL d   1      28.434 -12.066   6.423  0.00  0.00     0.017 A 
ATOM     25  C   UNL d   1      28.895 -11.497   7.616  0.00  0.00     0.002 A 
ATOM     26  C   UNL d   1      29.312 -12.325   8.655  0.00  0.00     0.017 A 
ATOM     27  C   UNL d   1      29.325 -13.721   8.486  0.00  0.00     0.040 A 
ATOM     28  C   UNL d   1      28.889 -14.289   7.270  0.00  0.00     0.034 A 
BRANCH  27  29
ATOM     29  C   UNL d   1      29.872 -14.551   9.596  0.00  0.00     0.292 C 
ATOM     30  O   UNL d   1      31.050 -14.884   9.673  0.00  0.00    -0.259 OA
BRANCH  29  31
ATOM     31  O   UNL d   1      28.900 -14.880  10.481  0.00  0.00    -0.323 OA
ATOM     32  C   UNL d   1      28.559 -13.833  11.397  0.00  0.00     0.213 C 
ENDBRANCH  29  31
ENDBRANCH  27  29
ENDBRANCH  20  23
ENDBRANCH  17  19
ENDBRANCH   1  17
TORSDOF 10
ENDMDL
MODEL 5
REMARK VINA RESULT:    -7.374      2.151      7.610
REMARK INTER + INTRA:         -12.955
REMARK INTER:                 -10.357
REMARK INTRA:                  -2.597
REMARK CONF_INDEPENDENT:        2.983
REMARK UNBOUND:                -2.597
REMARK  10 active torsions:
REMARK  status: ('A' for Active; 'I' for Inactive)
REMARK    1  A    between atoms: C_2  and  C_3 
REMARK    2  A    between atoms: C_6  and  O_7 
REMARK    3  A    between atoms: O_7  and  C_8 
REMARK    4  A    between atoms: C_8  and  C_9 
REMARK       I    between atoms: C_9  and  N_11 
REMARK    5  A    between atoms: N_11  and  N_12 
REMARK    6  A    between atoms: N_12  and  C_13 
REMARK    7  A    between atoms: C_13  and  N_15 
REMARK       I    between atoms: N_15  and  C_16 
REMARK    8  A    between atoms: C_16  and  C_18 
REMARK    9  A    between atoms: C_22  and  C_23 
REMARK   10  A    between atoms: C_23  and  O_25 
ROOT
ATOM      1  N   UNL d   1      25.497 -12.710  -4.354  0.00  0.00    -0.273 N 
ATOM      2  H   UNL d   1      24.562 -12.367  -4.134  0.00  0.00     0.189 HD
ENDROOT
BRANCH   1   3
ATOM      3  N   UNL d   1      25.967 -13.783  -3.476  0.00  0.00    -0.266 N 
ATOM      4  C   UNL d   1      26.660 -13.502  -2.300  0.00  0.00     0.260 C 
ATOM      5  O   UNL d   1      26.904 -12.339  -1.977  0.00  0.00    -0.269 OA
ATOM      6  H   UNL d   1      25.743 -14.729  -3.788  0.00  0.00     0.190 HD
BRANCH   4   7
ATOM      7  C   UNL d   1      27.092 -14.738  -1.449  0.00  0.00     0.280 C 
BRANCH   7   8
ATOM      8  O   UNL d   1      26.642 -15.968  -2.041  0.00  0.00    -0.342 OA
BRANCH   8   9
ATOM      9  C   UNL d   1      25.601 -16.640  -1.451  0.00  0.00     0.069 A 
ATOM     10  C   UNL d   1      24.327 -16.065  -1.579  0.00  0.00     0.037 A 
ATOM     11  C   UNL d   1      23.203 -16.634  -0.956  0.00  0.00     0.010 A 
ATOM     12  C   UNL d   1      23.324 -17.849  -0.276  0.00  0.00    -0.058 A 
ATOM     13  C   UNL d   1      24.600 -18.409  -0.142  0.00  0.00     0.010 A 
ATOM     14  C   UNL d   1      25.722 -17.825  -0.736  0.00  0.00     0.037 A 
BRANCH  12  15
ATOM     15  C   UNL d   1      22.119 -18.597   0.246  0.00  0.00     0.034 C 
ATOM     16  C   UNL d   1      21.159 -18.945  -0.894  0.00  0.00     0.010 C 
ENDBRANCH  12  15
ENDBRANCH   8   9
ENDBRANCH   7   8
ENDBRANCH   4   7
ENDBRANCH   1   3
BRANCH   1  17
ATOM     17  C   UNL d   1      26.323 -12.270  -5.406  0.00  0.00     0.193 C 
ATOM     18  S   UNL d   1      25.840 -10.944  -6.334  0.00  0.00    -0.039 SA
BRANCH  17  19
ATOM     19  N   UNL d   1      27.518 -13.007  -5.600  0.00  0.00    -0.298 N 
ATOM     20  C   UNL d   1      27.624 -14.416  -5.720  0.00  0.00     0.257 C 
ATOM     21  O   UNL d   1      26.679 -15.200  -5.682  0.00  0.00    -0.267 OA
ATOM     22  H   UNL d   1      28.377 -12.484  -5.697  0.00  0.00     0.171 HD
BRANCH  20  23
ATOM     23  C   UNL d   1      28.957 -15.081  -5.872  0.00  0.00     0.033 A 
ATOM     24  C   UNL d   1      29.838 -14.600  -6.869  0.00  0.00     0.017 A 
ATOM     25  C   UNL d   1      30.960 -15.340  -7.260  0.00  0.00     0.002 A 
ATOM     26  C   UNL d   1      31.248 -16.542  -6.616  0.00  0.00     0.017 A 
ATOM     27  C   UNL d   1      30.386 -17.036  -5.621  0.00  0.00     0.040 A 
ATOM     28  C   UNL d   1      29.239 -16.301  -5.253  0.00  0.00     0.034 A 
BRANCH  27  29
ATOM     29  C   UNL d   1      30.692 -18.372  -5.035  0.00  0.00     0.292 C 
ATOM     30  O   UNL d   1      30.405 -18.687  -3.886  0.00  0.00    -0.259 OA
BRANCH  29  31
ATOM     31  O   UNL d   1      31.323 -19.163  -5.936  0.00  0.00    -0.323 OA
ATOM     32  C   UNL d   1      30.445 -19.980  -6.719  0.00  0.00     0.213 C 
ENDBRANCH  29  31
ENDBRANCH  27  29
ENDBRANCH  20  23
ENDBRANCH  17  19
ENDBRANCH   1  17
TORSDOF 10
ENDMDL
MODEL 6
REMARK VINA RESULT:    -7.341      1.694      2.585
REMARK INTER + INTRA:         -13.446
REMARK INTER:                 -10.324
REMARK INTRA:                  -3.122
REMARK CONF_INDEPENDENT:        2.983
REMARK UNBOUND:                -3.122
REMARK  10 active torsions:
REMARK  status: ('A' for Active; 'I' for Inactive)
REMARK    1  A    between atoms: C_2  and  C_3 
REMARK    2  A    between atoms: C_6  and  O_7 
REMARK    3  A    between atoms: O_7  and  C_8 
REMARK    4  A    between atoms: C_8  and  C_9 
REMARK       I    between atoms: C_9  and  N_11 
REMARK    5  A    between atoms: N_11  and  N_12 
REMARK    6  A    between atoms: N_12  and  C_13 
REMARK    7  A    between atoms: C_13  and  N_15 
REMARK       I    between atoms: N_15  and  C_16 
REMARK    8  A    between atoms: C_16  and  C_18 
REMARK    9  A    between atoms: C_22  and  C_23 
REMARK   10  A    between atoms: C_23  and  O_25 
ROOT
ATOM      1  N   UNL d   1      25.565 -12.340  -4.724  0.00  0.00    -0.273 N 
ATOM      2  H   UNL d   1      24.836 -11.956  -5.325  0.00  0.00     0.189 HD
ENDROOT
BRANCH   1   3
ATOM      3  N   UNL d   1      26.466 -13.279  -5.395  0.00  0.00    -0.266 N 
ATOM      4  C   UNL d   1      27.558 -12.828  -6.134  0.00  0.00     0.260 C 
ATOM      5  O   UNL d   1      27.785 -11.623  -6.250  0.00  0.00    -0.269 OA
ATOM      6  H   UNL d   1      26.234 -14.265  -5.273  0.00  0.00     0.190 HD
BRANCH   4   7
ATOM      7  C   UNL d   1      28.446 -13.935  -6.787  0.00  0.00     0.280 C 
BRANCH   7   8
ATOM      8  O   UNL d   1      28.125 -15.239  -6.271  0.00  0.00    -0.342 OA
BRANCH   8   9
ATOM      9  C   UNL d   1      28.776 -15.679  -5.146  0.00  0.00     0.069 A 
ATOM     10  C   UNL d   1      28.384 -15.104  -3.927  0.00  0.00     0.037 A 
ATOM     11  C   UNL d   1      29.032 -15.434  -2.724  0.00  0.00     0.010 A 
ATOM     12  C   UNL d   1      30.019 -16.423  -2.712  0.00  0.00    -0.058 A 
ATOM     13  C   UNL d   1      30.412 -16.981  -3.934  0.00  0.00     0.010 A 
ATOM     14  C   UNL d   1      29.788 -16.630  -5.134  0.00  0.00     0.037 A 
BRANCH  12  15
ATOM     15  C   UNL d   1      30.610 -16.948  -1.424  0.00  0.00     0.034 C 
ATOM     16  C   UNL d   1      29.531 -17.601  -0.556  0.00  0.00     0.010 C 
ENDBRANCH  12  15
ENDBRANCH   8   9
ENDBRANCH   7   8
ENDBRANCH   4   7
ENDBRANCH   1   3
BRANCH   1  17
ATOM     17  C   UNL d   1      25.779 -12.031  -3.367  0.00  0.00     0.193 C 
ATOM     18  S   UNL d   1      26.126 -10.438  -2.929  0.00  0.00    -0.039 SA
BRANCH  17  19
ATOM     19  N   UNL d   1      25.688 -13.122  -2.466  0.00  0.00    -0.298 N 
ATOM     20  C   UNL d   1      25.216 -14.424  -2.770  0.00  0.00     0.257 C 
ATOM     21  O   UNL d   1      24.825 -14.792  -3.875  0.00  0.00    -0.267 OA
ATOM     22  H   UNL d   1      26.023 -12.976  -1.524  0.00  0.00     0.171 HD
BRANCH  20  23
ATOM     23  C   UNL d   1      25.122 -15.479  -1.712  0.00  0.00     0.033 A 
ATOM     24  C   UNL d   1      26.272 -15.755  -0.935  0.00  0.00     0.017 A 
ATOM     25  C   UNL d   1      26.347 -16.905  -0.140  0.00  0.00     0.002 A 
ATOM     26  C   UNL d   1      25.251 -17.761  -0.066  0.00  0.00     0.017 A 
ATOM     27  C   UNL d   1      24.098 -17.503  -0.828  0.00  0.00     0.040 A 
ATOM     28  C   UNL d   1      24.039 -16.359  -1.653  0.00  0.00     0.034 A 
BRANCH  27  29
ATOM     29  C   UNL d   1      22.995 -18.504  -0.783  0.00  0.00     0.292 C 
ATOM     30  O   UNL d   1      23.145 -19.687  -1.067  0.00  0.00    -0.259 OA
BRANCH  29  31
ATOM     31  O   UNL d   1      21.831 -17.926  -0.397  0.00  0.00    -0.323 OA
ATOM     32  C   UNL d   1      20.657 -18.578  -0.895  0.00  0.00     0.213 C 
ENDBRANCH  29  31
ENDBRANCH  27  29
ENDBRANCH  20  23
ENDBRANCH  17  19
ENDBRANCH   1  17
TORSDOF 10
ENDMDL
MODEL 7
REMARK VINA RESULT:    -7.287      3.908      6.292
REMARK INTER + INTRA:         -12.846
REMARK INTER:                 -10.270
REMARK INTRA:                  -2.576
REMARK CONF_INDEPENDENT:        2.983
REMARK UNBOUND:                -2.576
REMARK  10 active torsions:
REMARK  status: ('A' for Active; 'I' for Inactive)
REMARK    1  A    between atoms: C_2  and  C_3 
REMARK    2  A    between atoms: C_6  and  O_7 
REMARK    3  A    between atoms: O_7  and  C_8 
REMARK    4  A    between atoms: C_8  and  C_9 
REMARK       I    between atoms: C_9  and  N_11 
REMARK    5  A    between atoms: N_11  and  N_12 
REMARK    6  A    between atoms: N_12  and  C_13 
REMARK    7  A    between atoms: C_13  and  N_15 
REMARK       I    between atoms: N_15  and  C_16 
REMARK    8  A    between atoms: C_16  and  C_18 
REMARK    9  A    between atoms: C_22  and  C_23 
REMARK   10  A    between atoms: C_23  and  O_25 
ROOT
ATOM      1  N   UNL d   1      29.083 -14.891  -3.666  0.00  0.00    -0.273 N 
ATOM      2  H   UNL d   1      29.799 -14.640  -4.347  0.00  0.00     0.189 HD
ENDROOT
BRANCH   1   3
ATOM      3  N   UNL d   1      29.569 -14.982  -2.287  0.00  0.00    -0.266 N 
ATOM      4  C   UNL d   1      29.781 -16.216  -1.678  0.00  0.00     0.260 C 
ATOM      5  O   UNL d   1      29.553 -17.264  -2.283  0.00  0.00    -0.269 OA
ATOM      6  H   UNL d   1      29.740 -14.087  -1.828  0.00  0.00     0.190 HD
BRANCH   4   7
ATOM      7  C   UNL d   1      30.314 -16.172  -0.210  0.00  0.00     0.280 C 
BRANCH   7   8
ATOM      8  O   UNL d   1      30.295 -14.833   0.316  0.00  0.00    -0.342 OA
BRANCH   8   9
ATOM      9  C   UNL d   1      29.674 -14.607   1.519  0.00  0.00     0.069 A 
ATOM     10  C   UNL d   1      30.508 -14.450   2.637  0.00  0.00     0.037 A 
ATOM     11  C   UNL d   1      29.975 -14.283   3.927  0.00  0.00     0.010 A 
ATOM     12  C   UNL d   1      28.593 -14.169   4.100  0.00  0.00    -0.058 A 
ATOM     13  C   UNL d   1      27.768 -14.341   2.982  0.00  0.00     0.010 A 
ATOM     14  C   UNL d   1      28.299 -14.538   1.705  0.00  0.00     0.037 A 
BRANCH  12  15
ATOM     15  C   UNL d   1      27.982 -13.799   5.432  0.00  0.00     0.034 C 
ATOM     16  C   UNL d   1      28.975 -14.038   6.572  0.00  0.00     0.010 C 
ENDBRANCH  12  15
ENDBRANCH   8   9
ENDBRANCH   7   8
ENDBRANCH   4   7
ENDBRANCH   1   3
BRANCH   1  17
ATOM     17  C   UNL d   1      27.719 -15.121  -3.932  0.00  0.00     0.193 C 
ATOM     18  S   UNL d   1      27.044 -14.514  -5.355  0.00  0.00    -0.039 SA
BRANCH  17  19
ATOM     19  N   UNL d   1      27.016 -15.856  -2.945  0.00  0.00    -0.298 N 
ATOM     20  C   UNL d   1      25.641 -15.726  -2.622  0.00  0.00     0.257 C 
ATOM     21  O   UNL d   1      24.859 -14.954  -3.170  0.00  0.00    -0.267 OA
ATOM     22  H   UNL d   1      27.528 -16.569  -2.444  0.00  0.00     0.171 HD
BRANCH  20  23
ATOM     23  C   UNL d   1      25.027 -16.531  -1.519  0.00  0.00     0.033 A 
ATOM     24  C   UNL d   1      25.886 -17.213  -0.626  0.00  0.00     0.017 A 
ATOM     25  C   UNL d   1      25.395 -18.201   0.236  0.00  0.00     0.002 A 
ATOM     26  C   UNL d   1      24.030 -18.477   0.257  0.00  0.00     0.017 A 
ATOM     27  C   UNL d   1      23.159 -17.809  -0.621  0.00  0.00     0.040 A 
ATOM     28  C   UNL d   1      23.664 -16.836  -1.511  0.00  0.00     0.034 A 
BRANCH  27  29
ATOM     29  C   UNL d   1      21.725 -18.213  -0.622  0.00  0.00     0.292 C 
ATOM     30  O   UNL d   1      20.860 -17.633  -1.270  0.00  0.00    -0.259 OA
BRANCH  29  31
ATOM     31  O   UNL d   1      21.523 -19.284   0.183  0.00  0.00    -0.323 OA
ATOM     32  C   UNL d   1      20.209 -19.848   0.094  0.00  0.00     0.213 C 
ENDBRANCH  29  31
ENDBRANCH  27  29
ENDBRANCH  20  23
ENDBRANCH  17  19
ENDBRANCH   1  17
TORSDOF 10
ENDMDL
MODEL 8
REMARK VINA RESULT:    -7.225      6.992      9.276
REMARK INTER + INTRA:         -12.677
REMARK INTER:                 -10.208
REMARK INTRA:                  -2.469
REMARK CONF_INDEPENDENT:        2.983
REMARK UNBOUND:                -2.469
REMARK  10 active torsions:
REMARK  status: ('A' for Active; 'I' for Inactive)
REMARK    1  A    between atoms: C_2  and  C_3 
REMARK    2  A    between atoms: C_6  and  O_7 
REMARK    3  A    between atoms: O_7  and  C_8 
REMARK    4  A    between atoms: C_8  and  C_9 
REMARK       I    between atoms: C_9  and  N_11 
REMARK    5  A    between atoms: N_11  and  N_12 
REMARK    6  A    between atoms: N_12  and  C_13 
REMARK    7  A    between atoms: C_13  and  N_15 
REMARK       I    between atoms: N_15  and  C_16 
REMARK    8  A    between atoms: C_16  and  C_18 
REMARK    9  A    between atoms: C_22  and  C_23 
REMARK   10  A    between atoms: C_23  and  O_25 
ROOT
ATOM      1  N   UNL d   1      30.961 -14.694   1.228  0.00  0.00    -0.273 N 
ATOM      2  H   UNL d   1      31.256 -13.916   0.640  0.00  0.00     0.189 HD
ENDROOT
BRANCH   1   3
ATOM      3  N   UNL d   1      29.854 -15.480   0.678  0.00  0.00    -0.266 N 
ATOM      4  C   UNL d   1      29.619 -15.531  -0.694  0.00  0.00     0.260 C 
ATOM      5  O   UNL d   1      30.332 -14.904  -1.479  0.00  0.00    -0.269 OA
ATOM      6  H   UNL d   1      29.291 -15.978   1.368  0.00  0.00     0.190 HD
BRANCH   4   7
ATOM      7  C   UNL d   1      28.415 -16.416  -1.149  0.00  0.00     0.280 C 
BRANCH   7   8
ATOM      8  O   UNL d   1      27.685 -16.930  -0.022  0.00  0.00    -0.342 OA
BRANCH   8   9
ATOM      9  C   UNL d   1      26.356 -17.234  -0.182  0.00  0.00     0.069 A 
ATOM     10  C   UNL d   1      25.576 -16.299  -0.880  0.00  0.00     0.037 A 
ATOM     11  C   UNL d   1      24.191 -16.479  -1.041  0.00  0.00     0.010 A 
ATOM     12  C   UNL d   1      23.584 -17.654  -0.589  0.00  0.00    -0.058 A 
ATOM     13  C   UNL d   1      24.367 -18.574   0.118  0.00  0.00     0.010 A 
ATOM     14  C   UNL d   1      25.738 -18.379   0.304  0.00  0.00     0.037 A 
BRANCH  12  15
ATOM     15  C   UNL d   1      22.143 -17.982  -0.904  0.00  0.00     0.034 C 
ATOM     16  C   UNL d   1      21.580 -18.985   0.105  0.00  0.00     0.010 C 
ENDBRANCH  12  15
ENDBRANCH   8   9
ENDBRANCH   7   8
ENDBRANCH   4   7
ENDBRANCH   1   3
BRANCH   1  17
ATOM     17  C   UNL d   1      31.526 -15.072   2.462  0.00  0.00     0.193 C 
ATOM     18  S   UNL d   1      32.875 -16.087   2.474  0.00  0.00    -0.039 SA
BRANCH  17  19
ATOM     19  N   UNL d   1      30.886 -14.555   3.615  0.00  0.00    -0.298 N 
ATOM     20  C   UNL d   1      29.487 -14.437   3.817  0.00  0.00     0.257 C 
ATOM     21  O   UNL d   1      28.627 -14.782   3.011  0.00  0.00    -0.267 OA
ATOM     22  H   UNL d   1      31.475 -14.274   4.387  0.00  0.00     0.171 HD
BRANCH  20  23
ATOM     23  C   UNL d   1      28.935 -13.824   5.067  0.00  0.00     0.033 A 
ATOM     24  C   UNL d   1      28.336 -12.545   4.980  0.00  0.00     0.017 A 
ATOM     25  C   UNL d   1      28.064 -11.795   6.131  0.00  0.00     0.002 A 
ATOM     26  C   UNL d   1      28.333 -12.340   7.384  0.00  0.00     0.017 A 
ATOM     27  C   UNL d   1      28.927 -13.610   7.492  0.00  0.00     0.040 A 
ATOM     28  C   UNL d   1      29.228 -14.349   6.328  0.00  0.00     0.034 A 
BRANCH  27  29
ATOM     29  C   UNL d   1      29.281 -14.100   8.854  0.00  0.00     0.292 C 
ATOM     30  O   UNL d   1      30.250 -14.816   9.083  0.00  0.00    -0.259 OA
BRANCH  29  31
ATOM     31  O   UNL d   1      28.393 -13.654   9.776  0.00  0.00    -0.323 OA
ATOM     32  C   UNL d   1      28.772 -13.915  11.132  0.00  0.00     0.213 C 
ENDBRANCH  29  31
ENDBRANCH  27  29
ENDBRANCH  20  23
ENDBRANCH  17  19
ENDBRANCH   1  17
TORSDOF 10
ENDMDL
MODEL 9
REMARK VINA RESULT:    -6.613      3.604      4.392
REMARK INTER + INTRA:         -12.723
REMARK INTER:                  -9.596
REMARK INTRA:                  -3.127
REMARK CONF_INDEPENDENT:        2.983
REMARK UNBOUND:                -3.127
REMARK  10 active torsions:
REMARK  status: ('A' for Active; 'I' for Inactive)
REMARK    1  A    between atoms: C_2  and  C_3 
REMARK    2  A    between atoms: C_6  and  O_7 
REMARK    3  A    between atoms: O_7  and  C_8 
REMARK    4  A    between atoms: C_8  and  C_9 
REMARK       I    between atoms: C_9  and  N_11 
REMARK    5  A    between atoms: N_11  and  N_12 
REMARK    6  A    between atoms: N_12  and  C_13 
REMARK    7  A    between atoms: C_13  and  N_15 
REMARK       I    between atoms: N_15  and  C_16 
REMARK    8  A    between atoms: C_16  and  C_18 
REMARK    9  A    between atoms: C_22  and  C_23 
REMARK   10  A    between atoms: C_23  and  O_25 
ROOT
ATOM      1  N   UNL d   1      25.332 -13.480  -4.592  0.00  0.00    -0.273 N 
ATOM      2  H   UNL d   1      24.555 -13.176  -5.177  0.00  0.00     0.189 HD
ENDROOT
BRANCH   1   3
ATOM      3  N   UNL d   1      25.875 -12.435  -3.722  0.00  0.00    -0.266 N 
ATOM      4  C   UNL d   1      26.804 -11.512  -4.196  0.00  0.00     0.260 C 
ATOM      5  O   UNL d   1      27.201 -11.561  -5.361  0.00  0.00    -0.269 OA
ATOM      6  H   UNL d   1      25.518 -12.438  -2.765  0.00  0.00     0.190 HD
BRANCH   4   7
ATOM      7  C   UNL d   1      27.292 -10.442  -3.168  0.00  0.00     0.280 C 
BRANCH   7   8
ATOM      8  O   UNL d   1      26.918 -10.794  -1.825  0.00  0.00    -0.342 OA
BRANCH   8   9
ATOM      9  C   UNL d   1      27.426 -11.949  -1.282  0.00  0.00     0.069 A 
ATOM     10  C   UNL d   1      28.409 -12.616  -2.029  0.00  0.00     0.037 A 
ATOM     11  C   UNL d   1      28.946 -13.841  -1.598  0.00  0.00     0.010 A 
ATOM     12  C   UNL d   1      28.576 -14.366  -0.358  0.00  0.00    -0.058 A 
ATOM     13  C   UNL d   1      27.584 -13.701   0.374  0.00  0.00     0.010 A 
ATOM     14  C   UNL d   1      27.029 -12.499  -0.070  0.00  0.00     0.037 A 
BRANCH  12  15
ATOM     15  C   UNL d   1      29.262 -15.575   0.236  0.00  0.00     0.034 C 
ATOM     16  C   UNL d   1      29.158 -16.777  -0.706  0.00  0.00     0.010 C 
ENDBRANCH  12  15
ENDBRANCH   8   9
ENDBRANCH   7   8
ENDBRANCH   4   7
ENDBRANCH   1   3
BRANCH   1  17
ATOM     17  C   UNL d   1      25.883 -14.775  -4.539  0.00  0.00     0.193 C 
ATOM     18  S   UNL d   1      27.099 -15.198  -5.631  0.00  0.00    -0.039 SA
BRANCH  17  19
ATOM     19  N   UNL d   1      25.343 -15.633  -3.548  0.00  0.00    -0.298 N 
ATOM     20  C   UNL d   1      25.202 -15.337  -2.168  0.00  0.00     0.257 C 
ATOM     21  O   UNL d   1      25.524 -14.277  -1.638  0.00  0.00    -0.267 OA
ATOM     22  H   UNL d   1      24.991 -16.530  -3.852  0.00  0.00     0.171 HD
BRANCH  20  23
ATOM     23  C   UNL d   1      24.661 -16.353  -1.211  0.00  0.00     0.033 A 
ATOM     24  C   UNL d   1      25.577 -17.086  -0.420  0.00  0.00     0.017 A 
ATOM     25  C   UNL d   1      25.175 -18.235   0.273  0.00  0.00     0.002 A 
ATOM     26  C   UNL d   1      23.840 -18.630   0.230  0.00  0.00     0.017 A 
ATOM     27  C   UNL d   1      22.914 -17.914  -0.549  0.00  0.00     0.040 A 
ATOM     28  C   UNL d   1      23.331 -16.775  -1.270  0.00  0.00     0.034 A 
BRANCH  27  29
ATOM     29  C   UNL d   1      21.522 -18.439  -0.633  0.00  0.00     0.292 C 
ATOM     30  O   UNL d   1      20.601 -17.827  -1.164  0.00  0.00    -0.259 OA
BRANCH  29  31
ATOM     31  O   UNL d   1      21.426 -19.657  -0.047  0.00  0.00    -0.323 OA
ATOM     32  C   UNL d   1      20.323 -19.790   0.856  0.00  0.00     0.213 C 
ENDBRANCH  29  31
ENDBRANCH  27  29
ENDBRANCH  20  23
ENDBRANCH  17  19
ENDBRANCH   1  17
TORSDOF 10
ENDMDL
