MODEL 1
REMARK VINA RESULT:    -9.730      0.000      0.000
REMARK INTER + INTRA:         -15.963
REMARK INTER:                 -14.205
REMARK INTRA:                  -1.758
REMARK CONF_INDEPENDENT:        4.474
REMARK UNBOUND:                -1.758
REMARK  15 active torsions:
REMARK  status: ('A' for Active; 'I' for Inactive)
REMARK    1  A    between atoms: C_2  and  C_3 
REMARK       I    between atoms: C_2  and  N_18 
REMARK    2  A    between atoms: C_3  and  C_4 
REMARK    3  A    between atoms: C_4  and  C_5 
REMARK    4  A    between atoms: C_5  and  C_6 
REMARK    5  A    between atoms: C_6  and  O_8 
REMARK    6  A    between atoms: O_8  and  C_9 
REMARK    7  A    between atoms: C_9  and  C_10 
REMARK    8  A    between atoms: C_10  and  C_11 
REMARK    9  A    between atoms: C_11  and  C_12 
REMARK   10  A    between atoms: N_18  and  C_19 
REMARK   11  A    between atoms: C_19  and  N_21 
REMARK   12  A    between atoms: N_21  and  C_22 
REMARK   13  A    between atoms: C_25  and  O_26 
REMARK   14  A    between atoms: O_26  and  C_27 
REMARK   15  A    between atoms: C_27  and  C_28 
ROOT
ATOM      1  O   UNL d   1      29.147 -14.403   0.345  0.00  0.00    -0.273 OA
ATOM      2  C   UNL d   1      28.121 -15.024   0.073  0.00  0.00     0.223 C 
ATOM      3  N   UNL d   1      28.018 -16.398   0.368  0.00  0.00    -0.304 N 
ATOM      4  H   UNL d   1      28.886 -16.731   0.774  0.00  0.00     0.171 HD
ENDROOT
BRANCH   3   5
ATOM      5  C   UNL d   1      26.933 -17.301   0.275  0.00  0.00     0.178 C 
ATOM      6  S   UNL d   1      26.656 -18.582   1.354  0.00  0.00    -0.040 SA
BRANCH   5   7
ATOM      7  N   UNL d   1      26.086 -17.067  -0.830  0.00  0.00    -0.333 N 
ATOM      8  H   UNL d   1      26.480 -17.015  -1.763  0.00  0.00     0.168 HD
BRANCH   7   9
ATOM      9  C   UNL d   1      24.675 -17.299  -0.744  0.00  0.00     0.034 A 
ATOM     10  C   UNL d   1      23.731 -16.284  -0.895  0.00  0.00     0.032 A 
ATOM     11  C   UNL d   1      22.356 -16.611  -0.880  0.00  0.00     0.039 A 
ATOM     12  C   UNL d   1      21.925 -17.943  -0.793  0.00  0.00     0.069 A 
ATOM     13  C   UNL d   1      22.870 -18.941  -0.632  0.00  0.00     0.039 A 
ATOM     14  C   UNL d   1      24.217 -18.610  -0.556  0.00  0.00     0.032 A 
BRANCH  12  15
ATOM     15  O   UNL d   1      20.578 -18.169  -0.882  0.00  0.00    -0.349 OA
BRANCH  15  16
ATOM     16  C   UNL d   1      20.177 -19.484  -1.315  0.00  0.00     0.207 C 
BRANCH  16  17
ATOM     17  C   UNL d   1      19.897 -20.373  -0.103  0.00  0.00     0.145 C 
ATOM     18  C   UNL d   1      18.419 -20.448   0.250  0.00  0.00     0.036 C 
ATOM     19  C   UNL d   1      18.440 -20.579   1.750  0.00  0.00     0.029 C 
ATOM     20  C   UNL d   1      19.666 -19.787   2.141  0.00  0.00     0.168 C 
ATOM     21  O   UNL d   1      20.594 -19.882   1.056  0.00  0.00    -0.384 OA
ENDBRANCH  16  17
ENDBRANCH  15  16
ENDBRANCH  12  15
ENDBRANCH   7   9
ENDBRANCH   5   7
ENDBRANCH   3   5
BRANCH   2  22
ATOM     22  C   UNL d   1      26.918 -14.374  -0.589  0.00  0.00     0.103 C 
BRANCH  22  23
ATOM     23  C   UNL d   1      27.016 -13.977  -2.038  0.00  0.00     0.019 C 
BRANCH  23  24
ATOM     24  C   UNL d   1      27.312 -15.204  -2.924  0.00  0.00     0.111 C 
BRANCH  24  25
ATOM     25  C   UNL d   1      26.442 -15.139  -4.153  0.00  0.00     0.258 C 
ATOM     26  O   UNL d   1      25.222 -14.953  -4.122  0.00  0.00    -0.265 OA
BRANCH  25  27
ATOM     27  O   UNL d   1      27.156 -15.307  -5.297  0.00  0.00    -0.321 OA
BRANCH  27  28
ATOM     28  C   UNL d   1      27.489 -14.059  -5.928  0.00  0.00     0.179 C 
BRANCH  28  29
ATOM     29  C   UNL d   1      26.749 -12.920  -5.239  0.00  0.00     0.031 C 
BRANCH  29  30
ATOM     30  C   UNL d   1      26.640 -11.714  -6.164  0.00  0.00     0.041 C 
BRANCH  30  31
ATOM     31  C   UNL d   1      26.102 -10.477  -5.491  0.00  0.00    -0.058 A 
ATOM     32  C   UNL d   1      26.081 -10.359  -4.094  0.00  0.00     0.007 A 
ATOM     33  C   UNL d   1      25.391  -9.306  -3.492  0.00  0.00     0.001 A 
ATOM     34  C   UNL d   1      24.795  -8.321  -4.276  0.00  0.00     0.000 A 
ATOM     35  C   UNL d   1      24.868  -8.397  -5.664  0.00  0.00     0.001 A 
ATOM     36  C   UNL d   1      25.515  -9.472  -6.269  0.00  0.00     0.007 A 
ENDBRANCH  30  31
ENDBRANCH  29  30
ENDBRANCH  28  29
ENDBRANCH  27  28
ENDBRANCH  25  27
ENDBRANCH  24  25
ENDBRANCH  23  24
ENDBRANCH  22  23
ENDBRANCH   2  22
TORSDOF 15
ENDMDL
MODEL 2
REMARK VINA RESULT:    -9.231      1.882      2.717
REMARK INTER + INTRA:         -16.094
REMARK INTER:                 -13.706
REMARK INTRA:                  -2.389
REMARK CONF_INDEPENDENT:        4.474
REMARK UNBOUND:                -2.389
REMARK  15 active torsions:
REMARK  status: ('A' for Active; 'I' for Inactive)
REMARK    1  A    between atoms: C_2  and  C_3 
REMARK       I    between atoms: C_2  and  N_18 
REMARK    2  A    between atoms: C_3  and  C_4 
REMARK    3  A    between atoms: C_4  and  C_5 
REMARK    4  A    between atoms: C_5  and  C_6 
REMARK    5  A    between atoms: C_6  and  O_8 
REMARK    6  A    between atoms: O_8  and  C_9 
REMARK    7  A    between atoms: C_9  and  C_10 
REMARK    8  A    between atoms: C_10  and  C_11 
REMARK    9  A    between atoms: C_11  and  C_12 
REMARK   10  A    between atoms: N_18  and  C_19 
REMARK   11  A    between atoms: C_19  and  N_21 
REMARK   12  A    between atoms: N_21  and  C_22 
REMARK   13  A    between atoms: C_25  and  O_26 
REMARK   14  A    between atoms: O_26  and  C_27 
REMARK   15  A    between atoms: C_27  and  C_28 
ROOT
ATOM      1  O   UNL d   1      31.222 -17.241  -0.618  0.00  0.00    -0.273 OA
ATOM      2  C   UNL d   1      30.054 -17.024  -0.932  0.00  0.00     0.223 C 
ATOM      3  N   UNL d   1      29.064 -16.871   0.058  0.00  0.00    -0.304 N 
ATOM      4  H   UNL d   1      29.471 -16.998   0.978  0.00  0.00     0.171 HD
ENDROOT
BRANCH   3   5
ATOM      5  C   UNL d   1      27.700 -16.502  -0.023  0.00  0.00     0.178 C 
ATOM      6  S   UNL d   1      27.026 -15.146   0.743  0.00  0.00    -0.040 SA
BRANCH   5   7
ATOM      7  N   UNL d   1      26.913 -17.385  -0.793  0.00  0.00    -0.333 N 
ATOM      8  H   UNL d   1      27.344 -18.193  -1.228  0.00  0.00     0.168 HD
BRANCH   7   9
ATOM      9  C   UNL d   1      25.487 -17.418  -0.658  0.00  0.00     0.034 A 
ATOM     10  C   UNL d   1      24.664 -16.370  -1.067  0.00  0.00     0.032 A 
ATOM     11  C   UNL d   1      23.261 -16.517  -0.975  0.00  0.00     0.039 A 
ATOM     12  C   UNL d   1      22.680 -17.722  -0.553  0.00  0.00     0.069 A 
ATOM     13  C   UNL d   1      23.507 -18.751  -0.139  0.00  0.00     0.039 A 
ATOM     14  C   UNL d   1      24.885 -18.574  -0.144  0.00  0.00     0.032 A 
BRANCH  12  15
ATOM     15  O   UNL d   1      21.315 -17.801  -0.588  0.00  0.00    -0.349 OA
BRANCH  15  16
ATOM     16  C   UNL d   1      20.755 -19.109  -0.820  0.00  0.00     0.207 C 
BRANCH  16  17
ATOM     17  C   UNL d   1      19.531 -19.323   0.069  0.00  0.00     0.145 C 
ATOM     18  C   UNL d   1      19.892 -19.691   1.500  0.00  0.00     0.036 C 
ATOM     19  C   UNL d   1      18.771 -20.611   1.903  0.00  0.00     0.029 C 
ATOM     20  C   UNL d   1      18.415 -21.298   0.604  0.00  0.00     0.168 C 
ATOM     21  O   UNL d   1      18.704 -20.378  -0.453  0.00  0.00    -0.384 OA
ENDBRANCH  16  17
ENDBRANCH  15  16
ENDBRANCH  12  15
ENDBRANCH   7   9
ENDBRANCH   5   7
ENDBRANCH   3   5
BRANCH   2  22
ATOM     22  C   UNL d   1      29.599 -16.911  -2.378  0.00  0.00     0.103 C 
BRANCH  22  23
ATOM     23  C   UNL d   1      30.632 -17.000  -3.469  0.00  0.00     0.019 C 
BRANCH  23  24
ATOM     24  C   UNL d   1      29.982 -16.823  -4.857  0.00  0.00     0.111 C 
BRANCH  24  25
ATOM     25  C   UNL d   1      29.171 -15.554  -4.858  0.00  0.00     0.258 C 
ATOM     26  O   UNL d   1      29.382 -14.602  -4.100  0.00  0.00    -0.265 OA
BRANCH  25  27
ATOM     27  O   UNL d   1      28.183 -15.576  -5.791  0.00  0.00    -0.321 OA
BRANCH  27  28
ATOM     28  C   UNL d   1      27.155 -14.605  -5.531  0.00  0.00     0.179 C 
BRANCH  28  29
ATOM     29  C   UNL d   1      25.903 -15.307  -5.021  0.00  0.00     0.031 C 
BRANCH  29  30
ATOM     30  C   UNL d   1      25.612 -14.904  -3.580  0.00  0.00     0.041 C 
BRANCH  30  31
ATOM     31  C   UNL d   1      26.098 -13.521  -3.226  0.00  0.00    -0.058 A 
ATOM     32  C   UNL d   1      26.961 -13.308  -2.142  0.00  0.00     0.007 A 
ATOM     33  C   UNL d   1      27.227 -12.010  -1.704  0.00  0.00     0.001 A 
ATOM     34  C   UNL d   1      26.709 -10.918  -2.398  0.00  0.00     0.000 A 
ATOM     35  C   UNL d   1      25.904 -11.121  -3.516  0.00  0.00     0.001 A 
ATOM     36  C   UNL d   1      25.598 -12.417  -3.926  0.00  0.00     0.007 A 
ENDBRANCH  30  31
ENDBRANCH  29  30
ENDBRANCH  28  29
ENDBRANCH  27  28
ENDBRANCH  25  27
ENDBRANCH  24  25
ENDBRANCH  23  24
ENDBRANCH  22  23
ENDBRANCH   2  22
TORSDOF 15
ENDMDL
MODEL 3
REMARK VINA RESULT:    -9.126      2.775      5.054
REMARK INTER + INTRA:         -15.796
REMARK INTER:                 -13.600
REMARK INTRA:                  -2.196
REMARK CONF_INDEPENDENT:        4.474
REMARK UNBOUND:                -2.196
REMARK  15 active torsions:
REMARK  status: ('A' for Active; 'I' for Inactive)
REMARK    1  A    between atoms: C_2  and  C_3 
REMARK       I    between atoms: C_2  and  N_18 
REMARK    2  A    between atoms: C_3  and  C_4 
REMARK    3  A    between atoms: C_4  and  C_5 
REMARK    4  A    between atoms: C_5  and  C_6 
REMARK    5  A    between atoms: C_6  and  O_8 
REMARK    6  A    between atoms: O_8  and  C_9 
REMARK    7  A    between atoms: C_9  and  C_10 
REMARK    8  A    between atoms: C_10  and  C_11 
REMARK    9  A    between atoms: C_11  and  C_12 
REMARK   10  A    between atoms: N_18  and  C_19 
REMARK   11  A    between atoms: C_19  and  N_21 
REMARK   12  A    between atoms: N_21  and  C_22 
REMARK   13  A    between atoms: C_25  and  O_26 
REMARK   14  A    between atoms: O_26  and  C_27 
REMARK   15  A    between atoms: C_27  and  C_28 
ROOT
ATOM      1  O   UNL d   1      26.462 -13.422   0.845  0.00  0.00    -0.273 OA
ATOM      2  C   UNL d   1      26.937 -14.144  -0.029  0.00  0.00     0.223 C 
ATOM      3  N   UNL d   1      27.863 -15.153   0.302  0.00  0.00    -0.304 N 
ATOM      4  H   UNL d   1      28.057 -15.133   1.298  0.00  0.00     0.171 HD
ENDROOT
BRANCH   3   5
ATOM      5  C   UNL d   1      28.454 -16.179  -0.473  0.00  0.00     0.178 C 
ATOM      6  S   UNL d   1      29.714 -15.937  -1.584  0.00  0.00    -0.040 SA
BRANCH   5   7
ATOM      7  N   UNL d   1      27.886 -17.454  -0.264  0.00  0.00    -0.333 N 
ATOM      8  H   UNL d   1      28.387 -18.144   0.284  0.00  0.00     0.168 HD
BRANCH   7   9
ATOM      9  C   UNL d   1      26.482 -17.680  -0.444  0.00  0.00     0.034 A 
ATOM     10  C   UNL d   1      25.717 -18.436   0.442  0.00  0.00     0.032 A 
ATOM     11  C   UNL d   1      24.323 -18.539   0.236  0.00  0.00     0.039 A 
ATOM     12  C   UNL d   1      23.684 -17.835  -0.795  0.00  0.00     0.069 A 
ATOM     13  C   UNL d   1      24.455 -17.097  -1.676  0.00  0.00     0.039 A 
ATOM     14  C   UNL d   1      25.836 -17.068  -1.527  0.00  0.00     0.032 A 
BRANCH  12  15
ATOM     15  O   UNL d   1      22.320 -17.922  -0.856  0.00  0.00    -0.349 OA
BRANCH  15  16
ATOM     16  C   UNL d   1      21.752 -19.231  -0.650  0.00  0.00     0.207 C 
BRANCH  16  17
ATOM     17  C   UNL d   1      20.352 -19.108  -0.050  0.00  0.00     0.145 C 
ATOM     18  C   UNL d   1      20.301 -19.480   1.424  0.00  0.00     0.036 C 
ATOM     19  C   UNL d   1      18.933 -20.090   1.569  0.00  0.00     0.029 C 
ATOM     20  C   UNL d   1      18.707 -20.738   0.222  0.00  0.00     0.168 C 
ATOM     21  O   UNL d   1      19.427 -19.964  -0.743  0.00  0.00    -0.384 OA
ENDBRANCH  16  17
ENDBRANCH  15  16
ENDBRANCH  12  15
ENDBRANCH   7   9
ENDBRANCH   5   7
ENDBRANCH   3   5
BRANCH   2  22
ATOM     22  C   UNL d   1      26.571 -14.006  -1.497  0.00  0.00     0.103 C 
BRANCH  22  23
ATOM     23  C   UNL d   1      26.307 -12.631  -2.050  0.00  0.00     0.019 C 
BRANCH  23  24
ATOM     24  C   UNL d   1      26.174 -12.672  -3.586  0.00  0.00     0.111 C 
BRANCH  24  25
ATOM     25  C   UNL d   1      25.464 -13.941  -3.980  0.00  0.00     0.258 C 
ATOM     26  O   UNL d   1      24.347 -14.262  -3.563  0.00  0.00    -0.265 OA
BRANCH  25  27
ATOM     27  O   UNL d   1      26.193 -14.689  -4.850  0.00  0.00    -0.321 OA
BRANCH  27  28
ATOM     28  C   UNL d   1      27.559 -14.847  -4.433  0.00  0.00     0.179 C 
BRANCH  28  29
ATOM     29  C   UNL d   1      28.350 -15.558  -5.523  0.00  0.00     0.031 C 
BRANCH  29  30
ATOM     30  C   UNL d   1      29.771 -15.847  -5.051  0.00  0.00     0.041 C 
BRANCH  30  31
ATOM     31  C   UNL d   1      30.370 -17.092  -5.654  0.00  0.00    -0.058 A 
ATOM     32  C   UNL d   1      30.840 -17.109  -6.974  0.00  0.00     0.007 A 
ATOM     33  C   UNL d   1      31.193 -18.318  -7.576  0.00  0.00     0.001 A 
ATOM     34  C   UNL d   1      31.163 -19.501  -6.840  0.00  0.00     0.000 A 
ATOM     35  C   UNL d   1      30.759 -19.482  -5.508  0.00  0.00     0.001 A 
ATOM     36  C   UNL d   1      30.361 -18.284  -4.918  0.00  0.00     0.007 A 
ENDBRANCH  30  31
ENDBRANCH  29  30
ENDBRANCH  28  29
ENDBRANCH  27  28
ENDBRANCH  25  27
ENDBRANCH  24  25
ENDBRANCH  23  24
ENDBRANCH  22  23
ENDBRANCH   2  22
TORSDOF 15
ENDMDL
MODEL 4
REMARK VINA RESULT:    -9.081      1.947      2.653
REMARK INTER + INTRA:         -15.976
REMARK INTER:                 -13.555
REMARK INTRA:                  -2.421
REMARK CONF_INDEPENDENT:        4.474
REMARK UNBOUND:                -2.421
REMARK  15 active torsions:
REMARK  status: ('A' for Active; 'I' for Inactive)
REMARK    1  A    between atoms: C_2  and  C_3 
REMARK       I    between atoms: C_2  and  N_18 
REMARK    2  A    between atoms: C_3  and  C_4 
REMARK    3  A    between atoms: C_4  and  C_5 
REMARK    4  A    between atoms: C_5  and  C_6 
REMARK    5  A    between atoms: C_6  and  O_8 
REMARK    6  A    between atoms: O_8  and  C_9 
REMARK    7  A    between atoms: C_9  and  C_10 
REMARK    8  A    between atoms: C_10  and  C_11 
REMARK    9  A    between atoms: C_11  and  C_12 
REMARK   10  A    between atoms: N_18  and  C_19 
REMARK   11  A    between atoms: C_19  and  N_21 
REMARK   12  A    between atoms: N_21  and  C_22 
REMARK   13  A    between atoms: C_25  and  O_26 
REMARK   14  A    between atoms: O_26  and  C_27 
REMARK   15  A    between atoms: C_27  and  C_28 
ROOT
ATOM      1  O   UNL d   1      30.920 -16.770  -1.192  0.00  0.00    -0.273 OA
ATOM      2  C   UNL d   1      29.732 -16.453  -1.180  0.00  0.00     0.223 C 
ATOM      3  N   UNL d   1      28.835 -17.081  -0.294  0.00  0.00    -0.304 N 
ATOM      4  H   UNL d   1      29.318 -17.793   0.244  0.00  0.00     0.171 HD
ENDROOT
BRANCH   3   5
ATOM      5  C   UNL d   1      27.475 -16.827   0.005  0.00  0.00     0.178 C 
ATOM      6  S   UNL d   1      26.863 -15.316   0.480  0.00  0.00    -0.040 SA
BRANCH   5   7
ATOM      7  N   UNL d   1      26.643 -17.963  -0.100  0.00  0.00    -0.333 N 
ATOM      8  H   UNL d   1      26.982 -18.865   0.217  0.00  0.00     0.168 HD
BRANCH   7   9
ATOM      9  C   UNL d   1      25.225 -17.832  -0.256  0.00  0.00     0.034 A 
ATOM     10  C   UNL d   1      24.617 -16.655  -0.688  0.00  0.00     0.032 A 
ATOM     11  C   UNL d   1      23.219 -16.635  -0.896  0.00  0.00     0.039 A 
ATOM     12  C   UNL d   1      22.444 -17.796  -0.750  0.00  0.00     0.069 A 
ATOM     13  C   UNL d   1      23.057 -18.955  -0.309  0.00  0.00     0.039 A 
ATOM     14  C   UNL d   1      24.416 -18.951  -0.019  0.00  0.00     0.032 A 
BRANCH  12  15
ATOM     15  O   UNL d   1      21.116 -17.702  -1.065  0.00  0.00    -0.349 OA
BRANCH  15  16
ATOM     16  C   UNL d   1      20.417 -18.945  -1.270  0.00  0.00     0.207 C 
BRANCH  16  17
ATOM     17  C   UNL d   1      19.444 -19.197  -0.119  0.00  0.00     0.145 C 
ATOM     18  C   UNL d   1      20.140 -19.607   1.170  0.00  0.00     0.036 C 
ATOM     19  C   UNL d   1      19.149 -20.548   1.801  0.00  0.00     0.029 C 
ATOM     20  C   UNL d   1      18.490 -21.197   0.605  0.00  0.00     0.168 C 
ATOM     21  O   UNL d   1      18.516 -20.242  -0.460  0.00  0.00    -0.384 OA
ENDBRANCH  16  17
ENDBRANCH  15  16
ENDBRANCH  12  15
ENDBRANCH   7   9
ENDBRANCH   5   7
ENDBRANCH   3   5
BRANCH   2  22
ATOM     22  C   UNL d   1      29.156 -15.389  -2.098  0.00  0.00     0.103 C 
BRANCH  22  23
ATOM     23  C   UNL d   1      28.239 -15.816  -3.212  0.00  0.00     0.019 C 
BRANCH  23  24
ATOM     24  C   UNL d   1      29.015 -15.962  -4.538  0.00  0.00     0.111 C 
BRANCH  24  25
ATOM     25  C   UNL d   1      28.288 -15.201  -5.616  0.00  0.00     0.258 C 
ATOM     26  O   UNL d   1      27.096 -15.368  -5.890  0.00  0.00    -0.265 OA
BRANCH  25  27
ATOM     27  O   UNL d   1      29.095 -14.310  -6.249  0.00  0.00    -0.321 OA
BRANCH  27  28
ATOM     28  C   UNL d   1      28.414 -13.089  -6.584  0.00  0.00     0.179 C 
BRANCH  28  29
ATOM     29  C   UNL d   1      28.743 -12.017  -5.553  0.00  0.00     0.031 C 
BRANCH  29  30
ATOM     30  C   UNL d   1      27.466 -11.444  -4.950  0.00  0.00     0.041 C 
BRANCH  30  31
ATOM     31  C   UNL d   1      26.619 -12.465  -4.235  0.00  0.00    -0.058 A 
ATOM     32  C   UNL d   1      25.532 -13.083  -4.868  0.00  0.00     0.007 A 
ATOM     33  C   UNL d   1      24.640 -13.860  -4.128  0.00  0.00     0.001 A 
ATOM     34  C   UNL d   1      24.876 -14.098  -2.775  0.00  0.00     0.000 A 
ATOM     35  C   UNL d   1      25.990 -13.540  -2.154  0.00  0.00     0.001 A 
ATOM     36  C   UNL d   1      26.856 -12.725  -2.879  0.00  0.00     0.007 A 
ENDBRANCH  30  31
ENDBRANCH  29  30
ENDBRANCH  28  29
ENDBRANCH  27  28
ENDBRANCH  25  27
ENDBRANCH  24  25
ENDBRANCH  23  24
ENDBRANCH  22  23
ENDBRANCH   2  22
TORSDOF 15
ENDMDL
MODEL 5
REMARK VINA RESULT:    -8.901      3.295      6.505
REMARK INTER + INTRA:         -16.279
REMARK INTER:                 -13.375
REMARK INTRA:                  -2.903
REMARK CONF_INDEPENDENT:        4.474
REMARK UNBOUND:                -2.903
REMARK  15 active torsions:
REMARK  status: ('A' for Active; 'I' for Inactive)
REMARK    1  A    between atoms: C_2  and  C_3 
REMARK       I    between atoms: C_2  and  N_18 
REMARK    2  A    between atoms: C_3  and  C_4 
REMARK    3  A    between atoms: C_4  and  C_5 
REMARK    4  A    between atoms: C_5  and  C_6 
REMARK    5  A    between atoms: C_6  and  O_8 
REMARK    6  A    between atoms: O_8  and  C_9 
REMARK    7  A    between atoms: C_9  and  C_10 
REMARK    8  A    between atoms: C_10  and  C_11 
REMARK    9  A    between atoms: C_11  and  C_12 
REMARK   10  A    between atoms: N_18  and  C_19 
REMARK   11  A    between atoms: C_19  and  N_21 
REMARK   12  A    between atoms: N_21  and  C_22 
REMARK   13  A    between atoms: C_25  and  O_26 
REMARK   14  A    between atoms: O_26  and  C_27 
REMARK   15  A    between atoms: C_27  and  C_28 
ROOT
ATOM      1  O   UNL d   1      25.528 -14.892  -3.870  0.00  0.00    -0.273 OA
ATOM      2  C   UNL d   1      25.959 -15.061  -2.732  0.00  0.00     0.223 C 
ATOM      3  N   UNL d   1      26.304 -16.351  -2.282  0.00  0.00    -0.304 N 
ATOM      4  H   UNL d   1      26.109 -17.034  -3.006  0.00  0.00     0.171 HD
ENDROOT
BRANCH   3   5
ATOM      5  C   UNL d   1      26.924 -16.798  -1.091  0.00  0.00     0.178 C 
ATOM      6  S   UNL d   1      28.596 -17.027  -0.908  0.00  0.00    -0.040 SA
BRANCH   5   7
ATOM      7  N   UNL d   1      26.019 -17.072  -0.043  0.00  0.00    -0.333 N 
ATOM      8  H   UNL d   1      26.237 -16.768   0.900  0.00  0.00     0.168 HD
BRANCH   7   9
ATOM      9  C   UNL d   1      24.650 -17.395  -0.310  0.00  0.00     0.034 A 
ATOM     10  C   UNL d   1      24.179 -18.706  -0.366  0.00  0.00     0.032 A 
ATOM     11  C   UNL d   1      22.796 -18.937  -0.552  0.00  0.00     0.039 A 
ATOM     12  C   UNL d   1      21.881 -17.874  -0.604  0.00  0.00     0.069 A 
ATOM     13  C   UNL d   1      22.361 -16.578  -0.558  0.00  0.00     0.039 A 
ATOM     14  C   UNL d   1      23.729 -16.351  -0.466  0.00  0.00     0.032 A 
BRANCH  12  15
ATOM     15  O   UNL d   1      20.555 -18.199  -0.690  0.00  0.00    -0.349 OA
BRANCH  15  16
ATOM     16  C   UNL d   1      20.248 -19.498  -1.235  0.00  0.00     0.207 C 
BRANCH  16  17
ATOM     17  C   UNL d   1      19.862 -20.461  -0.114  0.00  0.00     0.145 C 
ATOM     18  C   UNL d   1      18.358 -20.627   0.038  0.00  0.00     0.036 C 
ATOM     19  C   UNL d   1      18.191 -20.835   1.519  0.00  0.00     0.029 C 
ATOM     20  C   UNL d   1      19.310 -20.006   2.105  0.00  0.00     0.168 C 
ATOM     21  O   UNL d   1      20.375 -19.999   1.149  0.00  0.00    -0.384 OA
ENDBRANCH  16  17
ENDBRANCH  15  16
ENDBRANCH  12  15
ENDBRANCH   7   9
ENDBRANCH   5   7
ENDBRANCH   3   5
BRANCH   2  22
ATOM     22  C   UNL d   1      26.146 -13.920  -1.746  0.00  0.00     0.103 C 
BRANCH  22  23
ATOM     23  C   UNL d   1      27.540 -13.580  -1.290  0.00  0.00     0.019 C 
BRANCH  23  24
ATOM     24  C   UNL d   1      27.505 -12.733  -0.001  0.00  0.00     0.111 C 
BRANCH  24  25
ATOM     25  C   UNL d   1      26.648 -13.434   1.020  0.00  0.00     0.258 C 
ATOM     26  O   UNL d   1      25.713 -12.895   1.620  0.00  0.00    -0.265 OA
BRANCH  25  27
ATOM     27  O   UNL d   1      27.021 -14.728   1.203  0.00  0.00    -0.321 OA
BRANCH  27  28
ATOM     28  C   UNL d   1      28.362 -14.851   1.706  0.00  0.00     0.179 C 
BRANCH  28  29
ATOM     29  C   UNL d   1      28.532 -13.969   2.936  0.00  0.00     0.031 C 
BRANCH  29  30
ATOM     30  C   UNL d   1      28.755 -14.822   4.180  0.00  0.00     0.041 C 
BRANCH  30  31
ATOM     31  C   UNL d   1      28.665 -14.050   5.471  0.00  0.00    -0.058 A 
ATOM     32  C   UNL d   1      27.715 -13.034   5.648  0.00  0.00     0.007 A 
ATOM     33  C   UNL d   1      27.786 -12.196   6.761  0.00  0.00     0.001 A 
ATOM     34  C   UNL d   1      28.747 -12.420   7.746  0.00  0.00     0.000 A 
ATOM     35  C   UNL d   1      29.653 -13.469   7.609  0.00  0.00     0.001 A 
ATOM     36  C   UNL d   1      29.614 -14.278   6.475  0.00  0.00     0.007 A 
ENDBRANCH  30  31
ENDBRANCH  29  30
ENDBRANCH  28  29
ENDBRANCH  27  28
ENDBRANCH  25  27
ENDBRANCH  24  25
ENDBRANCH  23  24
ENDBRANCH  22  23
ENDBRANCH   2  22
TORSDOF 15
ENDMDL
MODEL 6
REMARK VINA RESULT:    -8.774      2.853      5.056
REMARK INTER + INTRA:         -16.392
REMARK INTER:                 -13.248
REMARK INTRA:                  -3.144
REMARK CONF_INDEPENDENT:        4.474
REMARK UNBOUND:                -3.144
REMARK  15 active torsions:
REMARK  status: ('A' for Active; 'I' for Inactive)
REMARK    1  A    between atoms: C_2  and  C_3 
REMARK       I    between atoms: C_2  and  N_18 
REMARK    2  A    between atoms: C_3  and  C_4 
REMARK    3  A    between atoms: C_4  and  C_5 
REMARK    4  A    between atoms: C_5  and  C_6 
REMARK    5  A    between atoms: C_6  and  O_8 
REMARK    6  A    between atoms: O_8  and  C_9 
REMARK    7  A    between atoms: C_9  and  C_10 
REMARK    8  A    between atoms: C_10  and  C_11 
REMARK    9  A    between atoms: C_11  and  C_12 
REMARK   10  A    between atoms: N_18  and  C_19 
REMARK   11  A    between atoms: C_19  and  N_21 
REMARK   12  A    between atoms: N_21  and  C_22 
REMARK   13  A    between atoms: C_25  and  O_26 
REMARK   14  A    between atoms: O_26  and  C_27 
REMARK   15  A    between atoms: C_27  and  C_28 
ROOT
ATOM      1  O   UNL d   1      28.003 -12.021  -2.649  0.00  0.00    -0.273 OA
ATOM      2  C   UNL d   1      27.433 -13.059  -2.318  0.00  0.00     0.223 C 
ATOM      3  N   UNL d   1      28.176 -14.175  -1.885  0.00  0.00    -0.304 N 
ATOM      4  H   UNL d   1      29.169 -13.971  -1.933  0.00  0.00     0.171 HD
ENDROOT
BRANCH   3   5
ATOM      5  C   UNL d   1      27.775 -15.419  -1.342  0.00  0.00     0.178 C 
ATOM      6  S   UNL d   1      28.459 -16.128   0.040  0.00  0.00    -0.040 SA
BRANCH   5   7
ATOM      7  N   UNL d   1      26.750 -16.058  -2.073  0.00  0.00    -0.333 N 
ATOM      8  H   UNL d   1      26.927 -16.365  -3.023  0.00  0.00     0.168 HD
BRANCH   7   9
ATOM      9  C   UNL d   1      25.624 -16.646  -1.411  0.00  0.00     0.034 A 
ATOM     10  C   UNL d   1      24.334 -16.128  -1.508  0.00  0.00     0.032 A 
ATOM     11  C   UNL d   1      23.264 -16.816  -0.892  0.00  0.00     0.039 A 
ATOM     12  C   UNL d   1      23.463 -18.049  -0.252  0.00  0.00     0.069 A 
ATOM     13  C   UNL d   1      24.749 -18.548  -0.152  0.00  0.00     0.039 A 
ATOM     14  C   UNL d   1      25.813 -17.826  -0.679  0.00  0.00     0.032 A 
BRANCH  12  15
ATOM     15  O   UNL d   1      22.352 -18.686   0.231  0.00  0.00    -0.349 OA
BRANCH  15  16
ATOM     16  C   UNL d   1      21.360 -19.069  -0.743  0.00  0.00     0.207 C 
BRANCH  16  17
ATOM     17  C   UNL d   1      19.976 -19.102  -0.097  0.00  0.00     0.145 C 
ATOM     18  C   UNL d   1      19.986 -19.701   1.301  0.00  0.00     0.036 C 
ATOM     19  C   UNL d   1      18.648 -20.386   1.382  0.00  0.00     0.029 C 
ATOM     20  C   UNL d   1      18.406 -20.825  -0.044  0.00  0.00     0.168 C 
ATOM     21  O   UNL d   1      19.064 -19.880  -0.894  0.00  0.00    -0.384 OA
ENDBRANCH  16  17
ENDBRANCH  15  16
ENDBRANCH  12  15
ENDBRANCH   7   9
ENDBRANCH   5   7
ENDBRANCH   3   5
BRANCH   2  22
ATOM     22  C   UNL d   1      25.923 -13.214  -2.353  0.00  0.00     0.103 C 
BRANCH  22  23
ATOM     23  C   UNL d   1      25.213 -13.090  -3.675  0.00  0.00     0.019 C 
BRANCH  23  24
ATOM     24  C   UNL d   1      26.178 -13.374  -4.845  0.00  0.00     0.111 C 
BRANCH  24  25
ATOM     25  C   UNL d   1      26.314 -14.864  -5.014  0.00  0.00     0.258 C 
ATOM     26  O   UNL d   1      25.533 -15.686  -4.527  0.00  0.00    -0.265 OA
BRANCH  25  27
ATOM     27  O   UNL d   1      27.395 -15.199  -5.768  0.00  0.00    -0.321 OA
BRANCH  27  28
ATOM     28  C   UNL d   1      28.388 -15.921  -5.021  0.00  0.00     0.179 C 
BRANCH  28  29
ATOM     29  C   UNL d   1      29.540 -14.991  -4.665  0.00  0.00     0.031 C 
BRANCH  29  30
ATOM     30  C   UNL d   1      30.875 -15.712  -4.812  0.00  0.00     0.041 C 
BRANCH  30  31
ATOM     31  C   UNL d   1      30.742 -17.184  -5.108  0.00  0.00    -0.058 A 
ATOM     32  C   UNL d   1      30.732 -18.136  -4.080  0.00  0.00     0.007 A 
ATOM     33  C   UNL d   1      30.822 -19.495  -4.384  0.00  0.00     0.001 A 
ATOM     34  C   UNL d   1      30.831 -19.916  -5.713  0.00  0.00     0.000 A 
ATOM     35  C   UNL d   1      30.775 -18.978  -6.740  0.00  0.00     0.001 A 
ATOM     36  C   UNL d   1      30.734 -17.618  -6.439  0.00  0.00     0.007 A 
ENDBRANCH  30  31
ENDBRANCH  29  30
ENDBRANCH  28  29
ENDBRANCH  27  28
ENDBRANCH  25  27
ENDBRANCH  24  25
ENDBRANCH  23  24
ENDBRANCH  22  23
ENDBRANCH   2  22
TORSDOF 15
ENDMDL
MODEL 7
REMARK VINA RESULT:    -8.516      2.347      3.942
REMARK INTER + INTRA:         -16.321
REMARK INTER:                 -12.991
REMARK INTRA:                  -3.330
REMARK CONF_INDEPENDENT:        4.474
REMARK UNBOUND:                -3.330
REMARK  15 active torsions:
REMARK  status: ('A' for Active; 'I' for Inactive)
REMARK    1  A    between atoms: C_2  and  C_3 
REMARK       I    between atoms: C_2  and  N_18 
REMARK    2  A    between atoms: C_3  and  C_4 
REMARK    3  A    between atoms: C_4  and  C_5 
REMARK    4  A    between atoms: C_5  and  C_6 
REMARK    5  A    between atoms: C_6  and  O_8 
REMARK    6  A    between atoms: O_8  and  C_9 
REMARK    7  A    between atoms: C_9  and  C_10 
REMARK    8  A    between atoms: C_10  and  C_11 
REMARK    9  A    between atoms: C_11  and  C_12 
REMARK   10  A    between atoms: N_18  and  C_19 
REMARK   11  A    between atoms: C_19  and  N_21 
REMARK   12  A    between atoms: N_21  and  C_22 
REMARK   13  A    between atoms: C_25  and  O_26 
REMARK   14  A    between atoms: O_26  and  C_27 
REMARK   15  A    between atoms: C_27  and  C_28 
ROOT
ATOM      1  O   UNL d   1      28.598 -14.208   1.155  0.00  0.00    -0.273 OA
ATOM      2  C   UNL d   1      27.768 -14.906   0.576  0.00  0.00     0.223 C 
ATOM      3  N   UNL d   1      27.877 -16.311   0.596  0.00  0.00    -0.304 N 
ATOM      4  H   UNL d   1      28.710 -16.587   1.104  0.00  0.00     0.171 HD
ENDROOT
BRANCH   3   5
ATOM      5  C   UNL d   1      27.013 -17.329   0.128  0.00  0.00     0.178 C 
ATOM      6  S   UNL d   1      27.029 -18.933   0.684  0.00  0.00    -0.040 SA
BRANCH   5   7
ATOM      7  N   UNL d   1      26.125 -16.905  -0.885  0.00  0.00    -0.333 N 
ATOM      8  H   UNL d   1      26.483 -16.691  -1.809  0.00  0.00     0.168 HD
BRANCH   7   9
ATOM      9  C   UNL d   1      24.716 -17.148  -0.786  0.00  0.00     0.034 A 
ATOM     10  C   UNL d   1      23.766 -16.131  -0.865  0.00  0.00     0.032 A 
ATOM     11  C   UNL d   1      22.393 -16.465  -0.841  0.00  0.00     0.039 A 
ATOM     12  C   UNL d   1      21.968 -17.802  -0.817  0.00  0.00     0.069 A 
ATOM     13  C   UNL d   1      22.920 -18.802  -0.727  0.00  0.00     0.039 A 
ATOM     14  C   UNL d   1      24.267 -18.469  -0.660  0.00  0.00     0.032 A 
BRANCH  12  15
ATOM     15  O   UNL d   1      20.621 -18.029  -0.894  0.00  0.00    -0.349 OA
BRANCH  15  16
ATOM     16  C   UNL d   1      20.217 -19.351  -1.302  0.00  0.00     0.207 C 
BRANCH  16  17
ATOM     17  C   UNL d   1      20.082 -20.260  -0.081  0.00  0.00     0.145 C 
ATOM     18  C   UNL d   1      18.640 -20.637   0.224  0.00  0.00     0.036 C 
ATOM     19  C   UNL d   1      18.630 -20.738   1.725  0.00  0.00     0.029 C 
ATOM     20  C   UNL d   1      19.649 -19.701   2.141  0.00  0.00     0.168 C 
ATOM     21  O   UNL d   1      20.617 -19.617   1.090  0.00  0.00    -0.384 OA
ENDBRANCH  16  17
ENDBRANCH  15  16
ENDBRANCH  12  15
ENDBRANCH   7   9
ENDBRANCH   5   7
ENDBRANCH   3   5
BRANCH   2  22
ATOM     22  C   UNL d   1      26.593 -14.322  -0.190  0.00  0.00     0.103 C 
BRANCH  22  23
ATOM     23  C   UNL d   1      26.853 -13.654  -1.514  0.00  0.00     0.019 C 
BRANCH  23  24
ATOM     24  C   UNL d   1      25.575 -13.631  -2.378  0.00  0.00     0.111 C 
BRANCH  24  25
ATOM     25  C   UNL d   1      25.712 -14.652  -3.478  0.00  0.00     0.258 C 
ATOM     26  O   UNL d   1      25.295 -15.811  -3.396  0.00  0.00    -0.265 OA
BRANCH  25  27
ATOM     27  O   UNL d   1      26.343 -14.147  -4.571  0.00  0.00    -0.321 OA
BRANCH  27  28
ATOM     28  C   UNL d   1      26.678 -15.162  -5.533  0.00  0.00     0.179 C 
BRANCH  28  29
ATOM     29  C   UNL d   1      28.071 -14.901  -6.091  0.00  0.00     0.031 C 
BRANCH  29  30
ATOM     30  C   UNL d   1      29.046 -14.576  -4.965  0.00  0.00     0.041 C 
BRANCH  30  31
ATOM     31  C   UNL d   1      29.452 -15.776  -4.148  0.00  0.00    -0.058 A 
ATOM     32  C   UNL d   1      28.927 -15.997  -2.867  0.00  0.00     0.007 A 
ATOM     33  C   UNL d   1      29.470 -16.988  -2.049  0.00  0.00     0.001 A 
ATOM     34  C   UNL d   1      30.478 -17.821  -2.534  0.00  0.00     0.000 A 
ATOM     35  C   UNL d   1      30.960 -17.649  -3.829  0.00  0.00     0.001 A 
ATOM     36  C   UNL d   1      30.452 -16.629  -4.631  0.00  0.00     0.007 A 
ENDBRANCH  30  31
ENDBRANCH  29  30
ENDBRANCH  28  29
ENDBRANCH  27  28
ENDBRANCH  25  27
ENDBRANCH  24  25
ENDBRANCH  23  24
ENDBRANCH  22  23
ENDBRANCH   2  22
TORSDOF 15
ENDMDL
MODEL 8
REMARK VINA RESULT:    -8.435      1.872      2.592
REMARK INTER + INTRA:         -15.773
REMARK INTER:                 -12.909
REMARK INTRA:                  -2.864
REMARK CONF_INDEPENDENT:        4.474
REMARK UNBOUND:                -2.864
REMARK  15 active torsions:
REMARK  status: ('A' for Active; 'I' for Inactive)
REMARK    1  A    between atoms: C_2  and  C_3 
REMARK       I    between atoms: C_2  and  N_18 
REMARK    2  A    between atoms: C_3  and  C_4 
REMARK    3  A    between atoms: C_4  and  C_5 
REMARK    4  A    between atoms: C_5  and  C_6 
REMARK    5  A    between atoms: C_6  and  O_8 
REMARK    6  A    between atoms: O_8  and  C_9 
REMARK    7  A    between atoms: C_9  and  C_10 
REMARK    8  A    between atoms: C_10  and  C_11 
REMARK    9  A    between atoms: C_11  and  C_12 
REMARK   10  A    between atoms: N_18  and  C_19 
REMARK   11  A    between atoms: C_19  and  N_21 
REMARK   12  A    between atoms: N_21  and  C_22 
REMARK   13  A    between atoms: C_25  and  O_26 
REMARK   14  A    between atoms: O_26  and  C_27 
REMARK   15  A    between atoms: C_27  and  C_28 
ROOT
ATOM      1  O   UNL d   1      28.216 -12.841  -2.223  0.00  0.00    -0.273 OA
ATOM      2  C   UNL d   1      27.394 -13.729  -2.005  0.00  0.00     0.223 C 
ATOM      3  N   UNL d   1      27.793 -14.943  -1.411  0.00  0.00    -0.304 N 
ATOM      4  H   UNL d   1      28.794 -14.939  -1.253  0.00  0.00     0.171 HD
ENDROOT
BRANCH   3   5
ATOM      5  C   UNL d   1      27.048 -16.054  -0.949  0.00  0.00     0.178 C 
ATOM      6  S   UNL d   1      27.345 -16.869   0.510  0.00  0.00    -0.040 SA
BRANCH   5   7
ATOM      7  N   UNL d   1      26.023 -16.463  -1.830  0.00  0.00    -0.333 N 
ATOM      8  H   UNL d   1      26.258 -16.756  -2.772  0.00  0.00     0.168 HD
BRANCH   7   9
ATOM      9  C   UNL d   1      24.737 -16.861  -1.339  0.00  0.00     0.034 A 
ATOM     10  C   UNL d   1      23.647 -15.995  -1.285  0.00  0.00     0.032 A 
ATOM     11  C   UNL d   1      22.391 -16.490  -0.865  0.00  0.00     0.039 A 
ATOM     12  C   UNL d   1      22.204 -17.850  -0.575  0.00  0.00     0.069 A 
ATOM     13  C   UNL d   1      23.296 -18.697  -0.620  0.00  0.00     0.039 A 
ATOM     14  C   UNL d   1      24.549 -18.192  -0.946  0.00  0.00     0.032 A 
BRANCH  12  15
ATOM     15  O   UNL d   1      20.932 -18.252  -0.269  0.00  0.00    -0.349 OA
BRANCH  15  16
ATOM     16  C   UNL d   1      20.400 -19.339  -1.052  0.00  0.00     0.207 C 
BRANCH  16  17
ATOM     17  C   UNL d   1      19.904 -20.455  -0.132  0.00  0.00     0.145 C 
ATOM     18  C   UNL d   1      18.391 -20.607  -0.143  0.00  0.00     0.036 C 
ATOM     19  C   UNL d   1      18.087 -21.036   1.267  0.00  0.00     0.029 C 
ATOM     20  C   UNL d   1      19.156 -20.334   2.073  0.00  0.00     0.168 C 
ATOM     21  O   UNL d   1      20.303 -20.204   1.227  0.00  0.00    -0.384 OA
ENDBRANCH  16  17
ENDBRANCH  15  16
ENDBRANCH  12  15
ENDBRANCH   7   9
ENDBRANCH   5   7
ENDBRANCH   3   5
BRANCH   2  22
ATOM     22  C   UNL d   1      25.922 -13.589  -2.354  0.00  0.00     0.103 C 
BRANCH  22  23
ATOM     23  C   UNL d   1      25.540 -12.783  -3.567  0.00  0.00     0.019 C 
BRANCH  23  24
ATOM     24  C   UNL d   1      26.227 -13.337  -4.833  0.00  0.00     0.111 C 
BRANCH  24  25
ATOM     25  C   UNL d   1      26.158 -14.841  -4.807  0.00  0.00     0.258 C 
ATOM     26  O   UNL d   1      25.244 -15.479  -4.277  0.00  0.00    -0.265 OA
BRANCH  25  27
ATOM     27  O   UNL d   1      27.217 -15.415  -5.438  0.00  0.00    -0.321 OA
BRANCH  27  28
ATOM     28  C   UNL d   1      28.323 -14.510  -5.595  0.00  0.00     0.179 C 
BRANCH  28  29
ATOM     29  C   UNL d   1      29.051 -14.810  -6.899  0.00  0.00     0.031 C 
BRANCH  29  30
ATOM     30  C   UNL d   1      29.894 -13.615  -7.329  0.00  0.00     0.041 C 
BRANCH  30  31
ATOM     31  C   UNL d   1      29.083 -12.450  -7.836  0.00  0.00    -0.058 A 
ATOM     32  C   UNL d   1      29.097 -11.212  -7.178  0.00  0.00     0.007 A 
ATOM     33  C   UNL d   1      28.184 -10.219  -7.536  0.00  0.00     0.001 A 
ATOM     34  C   UNL d   1      27.315 -10.421  -8.607  0.00  0.00     0.000 A 
ATOM     35  C   UNL d   1      27.340 -11.625  -9.307  0.00  0.00     0.001 A 
ATOM     36  C   UNL d   1      28.217 -12.636  -8.921  0.00  0.00     0.007 A 
ENDBRANCH  30  31
ENDBRANCH  29  30
ENDBRANCH  28  29
ENDBRANCH  27  28
ENDBRANCH  25  27
ENDBRANCH  24  25
ENDBRANCH  23  24
ENDBRANCH  22  23
ENDBRANCH   2  22
TORSDOF 15
ENDMDL
MODEL 9
REMARK VINA RESULT:    -8.224      2.219      4.163
REMARK INTER + INTRA:         -16.343
REMARK INTER:                 -12.699
REMARK INTRA:                  -3.644
REMARK CONF_INDEPENDENT:        4.474
REMARK UNBOUND:                -3.644
REMARK  15 active torsions:
REMARK  status: ('A' for Active; 'I' for Inactive)
REMARK    1  A    between atoms: C_2  and  C_3 
REMARK       I    between atoms: C_2  and  N_18 
REMARK    2  A    between atoms: C_3  and  C_4 
REMARK    3  A    between atoms: C_4  and  C_5 
REMARK    4  A    between atoms: C_5  and  C_6 
REMARK    5  A    between atoms: C_6  and  O_8 
REMARK    6  A    between atoms: O_8  and  C_9 
REMARK    7  A    between atoms: C_9  and  C_10 
REMARK    8  A    between atoms: C_10  and  C_11 
REMARK    9  A    between atoms: C_11  and  C_12 
REMARK   10  A    between atoms: N_18  and  C_19 
REMARK   11  A    between atoms: C_19  and  N_21 
REMARK   12  A    between atoms: N_21  and  C_22 
REMARK   13  A    between atoms: C_25  and  O_26 
REMARK   14  A    between atoms: O_26  and  C_27 
REMARK   15  A    between atoms: C_27  and  C_28 
ROOT
ATOM      1  O   UNL d   1      27.523 -11.734  -2.068  0.00  0.00    -0.273 OA
ATOM      2  C   UNL d   1      26.958 -12.812  -1.893  0.00  0.00     0.223 C 
ATOM      3  N   UNL d   1      27.601 -13.849  -1.189  0.00  0.00    -0.304 N 
ATOM      4  H   UNL d   1      28.535 -13.559  -0.920  0.00  0.00     0.171 HD
ENDROOT
BRANCH   3   5
ATOM      5  C   UNL d   1      27.143 -15.114  -0.749  0.00  0.00     0.178 C 
ATOM      6  S   UNL d   1      27.551 -15.819   0.740  0.00  0.00    -0.040 SA
BRANCH   5   7
ATOM      7  N   UNL d   1      26.314 -15.778  -1.680  0.00  0.00    -0.333 N 
ATOM      8  H   UNL d   1      26.652 -15.949  -2.621  0.00  0.00     0.168 HD
BRANCH   7   9
ATOM      9  C   UNL d   1      25.197 -16.565  -1.249  0.00  0.00     0.034 A 
ATOM     10  C   UNL d   1      25.336 -17.834  -0.692  0.00  0.00     0.032 A 
ATOM     11  C   UNL d   1      24.189 -18.510  -0.216  0.00  0.00     0.039 A 
ATOM     12  C   UNL d   1      22.927 -17.897  -0.223  0.00  0.00     0.069 A 
ATOM     13  C   UNL d   1      22.799 -16.641  -0.789  0.00  0.00     0.039 A 
ATOM     14  C   UNL d   1      23.911 -16.015  -1.339  0.00  0.00     0.032 A 
BRANCH  12  15
ATOM     15  O   UNL d   1      21.895 -18.592   0.346  0.00  0.00    -0.349 OA
BRANCH  15  16
ATOM     16  C   UNL d   1      20.941 -19.179  -0.562  0.00  0.00     0.207 C 
BRANCH  16  17
ATOM     17  C   UNL d   1      19.584 -19.327   0.125  0.00  0.00     0.145 C 
ATOM     18  C   UNL d   1      19.699 -19.595   1.618  0.00  0.00     0.036 C 
ATOM     19  C   UNL d   1      18.515 -20.483   1.892  0.00  0.00     0.029 C 
ATOM     20  C   UNL d   1      18.369 -21.259   0.603  0.00  0.00     0.168 C 
ATOM     21  O   UNL d   1      18.841 -20.416  -0.453  0.00  0.00    -0.384 OA
ENDBRANCH  16  17
ENDBRANCH  15  16
ENDBRANCH  12  15
ENDBRANCH   7   9
ENDBRANCH   5   7
ENDBRANCH   3   5
BRANCH   2  22
ATOM     22  C   UNL d   1      25.560 -13.102  -2.411  0.00  0.00     0.103 C 
BRANCH  22  23
ATOM     23  C   UNL d   1      25.309 -13.024  -3.894  0.00  0.00     0.019 C 
BRANCH  23  24
ATOM     24  C   UNL d   1      26.511 -13.581  -4.684  0.00  0.00     0.111 C 
BRANCH  24  25
ATOM     25  C   UNL d   1      26.300 -15.054  -4.920  0.00  0.00     0.258 C 
ATOM     26  O   UNL d   1      25.395 -15.711  -4.398  0.00  0.00    -0.265 OA
BRANCH  25  27
ATOM     27  O   UNL d   1      27.219 -15.574  -5.776  0.00  0.00    -0.321 OA
BRANCH  27  28
ATOM     28  C   UNL d   1      28.232 -14.623  -6.145  0.00  0.00     0.179 C 
BRANCH  28  29
ATOM     29  C   UNL d   1      29.589 -15.312  -6.198  0.00  0.00     0.031 C 
BRANCH  29  30
ATOM     30  C   UNL d   1      29.654 -16.445  -5.181  0.00  0.00     0.041 C 
BRANCH  30  31
ATOM     31  C   UNL d   1      30.132 -16.013  -3.818  0.00  0.00    -0.058 A 
ATOM     32  C   UNL d   1      29.871 -16.783  -2.676  0.00  0.00     0.007 A 
ATOM     33  C   UNL d   1      30.135 -16.265  -1.408  0.00  0.00     0.001 A 
ATOM     34  C   UNL d   1      30.741 -15.017  -1.273  0.00  0.00     0.000 A 
ATOM     35  C   UNL d   1      31.063 -14.275  -2.406  0.00  0.00     0.001 A 
ATOM     36  C   UNL d   1      30.757 -14.769  -3.673  0.00  0.00     0.007 A 
ENDBRANCH  30  31
ENDBRANCH  29  30
ENDBRANCH  28  29
ENDBRANCH  27  28
ENDBRANCH  25  27
ENDBRANCH  24  25
ENDBRANCH  23  24
ENDBRANCH  22  23
ENDBRANCH   2  22
TORSDOF 15
ENDMDL
