MODEL 1
REMARK VINA RESULT:   -30.057      0.000      0.000
REMARK INTER + INTRA:         -31.685
REMARK INTER:                 -31.250
REMARK INTRA:                  -0.435
REMARK CONF_INDEPENDENT:        1.193
REMARK UNBOUND:                -0.435
REMARK  4 active torsions:
REMARK  status: ('A' for Active; 'I' for Inactive)
REMARK    1  A    between atoms: C_12  and  N_13 
REMARK       I    between atoms: N_13  and  C_14 
REMARK    2  A    between atoms: C_14  and  C_16 
REMARK    3  A    between atoms: C_16  and  S_17 
REMARK    4  A    between atoms: S_17  and  C_18 
ROOT
ATOM      1  N   UNL d   1      25.438 -15.966  -1.654  0.00  0.00    -0.330 N 
ATOM      2  C   UNL d   1      24.398 -16.893  -1.462  0.00  0.00     0.229 C 
ATOM      3  O   UNL d   1      24.050 -17.674  -2.343  0.00  0.00    -0.273 OA
ATOM      4  H   UNL d   1      25.502 -15.168  -1.039  0.00  0.00     0.165 HD
ENDROOT
BRANCH   1   5
ATOM      5  C   UNL d   1      26.105 -15.881  -2.949  0.00  0.00     0.264 A 
ATOM      6  O   UNL d   1      27.504 -16.195  -2.712  0.00  0.00    -0.353 OA
ATOM      7  C   UNL d   1      28.347 -15.128  -3.201  0.00  0.00     0.156 A 
ATOM      8  C   UNL d   1      27.422 -14.137  -3.751  0.00  0.00     0.012 A 
ATOM      9  C   UNL d   1      29.133 -14.533  -2.046  0.00  0.00     0.045 C 
ATOM     10  C   UNL d   1      26.161 -14.529  -3.576  0.00  0.00     0.070 A 
ATOM     11  C   UNL d   1      27.755 -12.862  -4.401  0.00  0.00     0.060 A 
ATOM     12  C   UNL d   1      25.108 -13.684  -4.127  0.00  0.00     0.272 A 
ATOM     13  N   UNL d   1      25.527 -12.497  -4.700  0.00  0.00    -0.243 N 
ATOM     14  O   UNL d   1      23.920 -14.008  -4.058  0.00  0.00    -0.266 OA
ATOM     15  N   UNL d   1      26.828 -12.069  -4.845  0.00  0.00    -0.176 NA
ATOM     16  H   UNL d   1      24.826 -11.868  -5.079  0.00  0.00     0.192 HD
ATOM     17  C   UNL d   1      29.207 -12.442  -4.560  0.00  0.00     0.073 C 
ENDBRANCH   1   5
BRANCH   2  18
ATOM     18  C   UNL d   1      23.676 -16.800  -0.105  0.00  0.00     0.185 C 
BRANCH  18  19
ATOM     19  S   UNL d   1      23.094 -18.406   0.541  0.00  0.00    -0.081 SA
BRANCH  19  20
ATOM     20  C   UNL d   1      21.486 -18.772  -0.036  0.00  0.00     0.192 A 
ATOM     21  N   UNL d   1      20.950 -18.181  -1.087  0.00  0.00    -0.123 NA
ATOM     22  N   UNL d   1      19.670 -18.666  -1.269  0.00  0.00    -0.134 NA
ATOM     23  C   UNL d   1      19.435 -19.548  -0.322  0.00  0.00     0.130 A 
ATOM     24  N   UNL d   1      20.551 -19.620   0.494  0.00  0.00    -0.311 N 
ATOM     25  C   UNL d   1      18.161 -20.325  -0.134  0.00  0.00     0.081 C 
ATOM     26  C   UNL d   1      20.647 -20.433   1.677  0.00  0.00     0.133 C 
ATOM     27  C   UNL d   1      19.413 -20.398   2.553  0.00  0.00     0.020 C 
ATOM     28  C   UNL d   1      18.405 -21.447   2.113  0.00  0.00     0.002 C 
ATOM     29  C   UNL d   1      18.372 -21.654   0.594  0.00  0.00     0.008 C 
ENDBRANCH  19  20
ENDBRANCH  18  19
ENDBRANCH   2  18
TORSDOF 4
ENDMDL
MODEL 2
REMARK VINA RESULT:   -29.587      1.742      2.570
REMARK INTER + INTRA:         -31.254
REMARK INTER:                 -30.780
REMARK INTRA:                  -0.474
REMARK CONF_INDEPENDENT:        1.193
REMARK UNBOUND:                -0.474
REMARK  4 active torsions:
REMARK  status: ('A' for Active; 'I' for Inactive)
REMARK    1  A    between atoms: C_12  and  N_13 
REMARK       I    between atoms: N_13  and  C_14 
REMARK    2  A    between atoms: C_14  and  C_16 
REMARK    3  A    between atoms: C_16  and  S_17 
REMARK    4  A    between atoms: S_17  and  C_18 
ROOT
ATOM      1  N   UNL d   1      26.266 -16.942  -0.352  0.00  0.00    -0.330 N 
ATOM      2  C   UNL d   1      25.199 -17.506  -1.074  0.00  0.00     0.229 C 
ATOM      3  O   UNL d   1      24.815 -17.039  -2.142  0.00  0.00    -0.273 OA
ATOM      4  H   UNL d   1      26.363 -17.161   0.629  0.00  0.00     0.165 HD
ENDROOT
BRANCH   1   5
ATOM      5  C   UNL d   1      26.918 -15.733  -0.846  0.00  0.00     0.264 A 
ATOM      6  O   UNL d   1      25.878 -14.724  -0.961  0.00  0.00    -0.353 OA
ATOM      7  C   UNL d   1      25.845 -14.191  -2.304  0.00  0.00     0.156 A 
ATOM      8  C   UNL d   1      26.902 -14.904  -3.021  0.00  0.00     0.012 A 
ATOM      9  C   UNL d   1      24.492 -14.479  -2.931  0.00  0.00     0.045 C 
ATOM     10  C   UNL d   1      27.480 -15.802  -2.225  0.00  0.00     0.070 A 
ATOM     11  C   UNL d   1      27.313 -14.727  -4.421  0.00  0.00     0.060 A 
ATOM     12  C   UNL d   1      28.603 -16.559  -2.765  0.00  0.00     0.272 A 
ATOM     13  N   UNL d   1      28.896 -16.333  -4.098  0.00  0.00    -0.243 N 
ATOM     14  O   UNL d   1      29.229 -17.366  -2.073  0.00  0.00    -0.266 OA
ATOM     15  N   UNL d   1      28.272 -15.435  -4.935  0.00  0.00    -0.176 NA
ATOM     16  H   UNL d   1      29.659 -16.853  -4.521  0.00  0.00     0.192 HD
ATOM     17  C   UNL d   1      26.611 -13.708  -5.301  0.00  0.00     0.073 C 
ENDBRANCH   1   5
BRANCH   2  18
ATOM     18  C   UNL d   1      24.498 -18.695  -0.391  0.00  0.00     0.185 C 
BRANCH  18  19
ATOM     19  S   UNL d   1      23.154 -18.213   0.748  0.00  0.00    -0.081 SA
BRANCH  19  20
ATOM     20  C   UNL d   1      21.588 -18.617   0.082  0.00  0.00     0.192 A 
ATOM     21  N   UNL d   1      21.118 -18.072  -1.023  0.00  0.00    -0.123 NA
ATOM     22  N   UNL d   1      19.857 -18.575  -1.269  0.00  0.00    -0.134 NA
ATOM     23  C   UNL d   1      19.566 -19.422  -0.305  0.00  0.00     0.130 A 
ATOM     24  N   UNL d   1      20.626 -19.452   0.584  0.00  0.00    -0.311 N 
ATOM     25  C   UNL d   1      18.288 -20.203  -0.170  0.00  0.00     0.081 C 
ATOM     26  C   UNL d   1      20.651 -20.217   1.801  0.00  0.00     0.133 C 
ATOM     27  C   UNL d   1      19.363 -20.160   2.593  0.00  0.00     0.020 C 
ATOM     28  C   UNL d   1      18.392 -21.235   2.131  0.00  0.00     0.002 C 
ATOM     29  C   UNL d   1      18.460 -21.501   0.622  0.00  0.00     0.008 C 
ENDBRANCH  19  20
ENDBRANCH  18  19
ENDBRANCH   2  18
TORSDOF 4
ENDMDL
MODEL 3
REMARK VINA RESULT:   -29.348      1.473      2.136
REMARK INTER + INTRA:         -30.977
REMARK INTER:                 -30.541
REMARK INTRA:                  -0.436
REMARK CONF_INDEPENDENT:        1.193
REMARK UNBOUND:                -0.436
REMARK  4 active torsions:
REMARK  status: ('A' for Active; 'I' for Inactive)
REMARK    1  A    between atoms: C_12  and  N_13 
REMARK       I    between atoms: N_13  and  C_14 
REMARK    2  A    between atoms: C_14  and  C_16 
REMARK    3  A    between atoms: C_16  and  S_17 
REMARK    4  A    between atoms: S_17  and  C_18 
ROOT
ATOM      1  N   UNL d   1      25.324 -16.077  -1.610  0.00  0.00    -0.330 N 
ATOM      2  C   UNL d   1      24.117 -16.717  -1.274  0.00  0.00     0.229 C 
ATOM      3  O   UNL d   1      23.028 -16.171  -1.420  0.00  0.00    -0.273 OA
ATOM      4  H   UNL d   1      26.187 -16.424  -1.218  0.00  0.00     0.165 HD
ENDROOT
BRANCH   1   5
ATOM      5  C   UNL d   1      25.305 -14.704  -2.102  0.00  0.00     0.264 A 
ATOM      6  O   UNL d   1      24.814 -14.764  -3.469  0.00  0.00    -0.353 OA
ATOM      7  C   UNL d   1      25.757 -14.137  -4.367  0.00  0.00     0.156 A 
ATOM      8  C   UNL d   1      26.852 -13.683  -3.510  0.00  0.00     0.012 A 
ATOM      9  C   UNL d   1      26.260 -15.160  -5.370  0.00  0.00     0.045 C 
ATOM     10  C   UNL d   1      26.630 -14.034  -2.244  0.00  0.00     0.070 A 
ATOM     11  C   UNL d   1      28.065 -12.956  -3.912  0.00  0.00     0.060 A 
ATOM     12  C   UNL d   1      27.597 -13.601  -1.242  0.00  0.00     0.272 A 
ATOM     13  N   UNL d   1      28.713 -12.943  -1.728  0.00  0.00    -0.243 N 
ATOM     14  O   UNL d   1      27.431 -13.836  -0.043  0.00  0.00    -0.266 OA
ATOM     15  N   UNL d   1      28.965 -12.615  -3.042  0.00  0.00    -0.176 NA
ATOM     16  H   UNL d   1      29.422 -12.640  -1.068  0.00  0.00     0.192 HD
ATOM     17  C   UNL d   1      28.291 -12.595  -5.370  0.00  0.00     0.073 C 
ENDBRANCH   1   5
BRANCH   2  18
ATOM     18  C   UNL d   1      24.267 -18.110  -0.636  0.00  0.00     0.185 C 
BRANCH  18  19
ATOM     19  S   UNL d   1      23.070 -18.450   0.700  0.00  0.00    -0.081 SA
BRANCH  19  20
ATOM     20  C   UNL d   1      21.487 -18.812   0.053  0.00  0.00     0.192 A 
ATOM     21  N   UNL d   1      21.010 -18.238  -1.035  0.00  0.00    -0.123 NA
ATOM     22  N   UNL d   1      19.736 -18.713  -1.270  0.00  0.00    -0.134 NA
ATOM     23  C   UNL d   1      19.443 -19.571  -0.316  0.00  0.00     0.130 A 
ATOM     24  N   UNL d   1      20.517 -19.638   0.555  0.00  0.00    -0.311 N 
ATOM     25  C   UNL d   1      18.153 -20.330  -0.175  0.00  0.00     0.081 C 
ATOM     26  C   UNL d   1      20.545 -20.425   1.758  0.00  0.00     0.133 C 
ATOM     27  C   UNL d   1      19.271 -20.357   2.571  0.00  0.00     0.020 C 
ATOM     28  C   UNL d   1      18.273 -21.405   2.105  0.00  0.00     0.002 C 
ATOM     29  C   UNL d   1      18.312 -21.645   0.591  0.00  0.00     0.008 C 
ENDBRANCH  19  20
ENDBRANCH  18  19
ENDBRANCH   2  18
TORSDOF 4
ENDMDL
MODEL 4
REMARK VINA RESULT:   -27.585      1.863      2.490
REMARK INTER + INTRA:         -29.128
REMARK INTER:                 -28.778
REMARK INTRA:                  -0.350
REMARK CONF_INDEPENDENT:        1.193
REMARK UNBOUND:                -0.350
REMARK  4 active torsions:
REMARK  status: ('A' for Active; 'I' for Inactive)
REMARK    1  A    between atoms: C_12  and  N_13 
REMARK       I    between atoms: N_13  and  C_14 
REMARK    2  A    between atoms: C_14  and  C_16 
REMARK    3  A    between atoms: C_16  and  S_17 
REMARK    4  A    between atoms: S_17  and  C_18 
ROOT
ATOM      1  N   UNL d   1      26.014 -16.419   0.040  0.00  0.00    -0.330 N 
ATOM      2  C   UNL d   1      25.099 -16.923  -0.902  0.00  0.00     0.229 C 
ATOM      3  O   UNL d   1      25.464 -17.421  -1.963  0.00  0.00    -0.273 OA
ATOM      4  H   UNL d   1      25.686 -15.773   0.743  0.00  0.00     0.165 HD
ENDROOT
BRANCH   1   5
ATOM      5  C   UNL d   1      27.443 -16.432  -0.257  0.00  0.00     0.264 A 
ATOM      6  O   UNL d   1      28.125 -16.155   0.997  0.00  0.00    -0.353 OA
ATOM      7  C   UNL d   1      29.004 -15.018   0.847  0.00  0.00     0.156 A 
ATOM      8  C   UNL d   1      28.846 -14.598  -0.545  0.00  0.00     0.012 A 
ATOM      9  C   UNL d   1      28.565 -13.910   1.787  0.00  0.00     0.045 C 
ATOM     10  C   UNL d   1      27.941 -15.356  -1.161  0.00  0.00     0.070 A 
ATOM     11  C   UNL d   1      29.535 -13.497  -1.234  0.00  0.00     0.060 A 
ATOM     12  C   UNL d   1      27.707 -15.113  -2.580  0.00  0.00     0.272 A 
ATOM     13  N   UNL d   1      28.389 -14.041  -3.126  0.00  0.00    -0.243 N 
ATOM     14  O   UNL d   1      26.929 -15.811  -3.234  0.00  0.00    -0.266 OA
ATOM     15  N   UNL d   1      29.295 -13.228  -2.481  0.00  0.00    -0.176 NA
ATOM     16  H   UNL d   1      28.243 -13.822  -4.107  0.00  0.00     0.192 HD
ATOM     17  C   UNL d   1      30.544 -12.641  -0.488  0.00  0.00     0.073 C 
ENDBRANCH   1   5
BRANCH   2  18
ATOM     18  C   UNL d   1      23.614 -16.732  -0.544  0.00  0.00     0.185 C 
BRANCH  18  19
ATOM     19  S   UNL d   1      22.941 -18.024   0.558  0.00  0.00    -0.081 SA
BRANCH  19  20
ATOM     20  C   UNL d   1      21.384 -18.585  -0.006  0.00  0.00     0.192 A 
ATOM     21  N   UNL d   1      20.822 -18.142  -1.115  0.00  0.00    -0.123 NA
ATOM     22  N   UNL d   1      19.595 -18.755  -1.270  0.00  0.00    -0.134 NA
ATOM     23  C   UNL d   1      19.417 -19.565  -0.249  0.00  0.00     0.130 A 
ATOM     24  N   UNL d   1      20.516 -19.462   0.587  0.00  0.00    -0.311 N 
ATOM     25  C   UNL d   1      18.213 -20.434  -0.009  0.00  0.00     0.081 C 
ATOM     26  C   UNL d   1      20.657 -20.152   1.840  0.00  0.00     0.133 C 
ATOM     27  C   UNL d   1      19.406 -20.149   2.692  0.00  0.00     0.020 C 
ATOM     28  C   UNL d   1      18.504 -21.321   2.336  0.00  0.00     0.002 C 
ATOM     29  C   UNL d   1      18.525 -21.667   0.842  0.00  0.00     0.008 C 
ENDBRANCH  19  20
ENDBRANCH  18  19
ENDBRANCH   2  18
TORSDOF 4
ENDMDL
