MODEL 1
REMARK VINA RESULT:    -7.027      0.000      0.000
REMARK INTER + INTRA:         -10.862
REMARK INTER:                  -9.115
REMARK INTRA:                  -1.747
REMARK CONF_INDEPENDENT:        2.088
REMARK UNBOUND:                -1.747
REMARK  7 active torsions:
REMARK  status: ('A' for Active; 'I' for Inactive)
REMARK    1  A    between atoms: C_6  and  C_7 
REMARK    2  A    between atoms: C_12  and  C_13 
REMARK    3  A    between atoms: N_20  and  C_21 
REMARK    4  A    between atoms: C_21  and  C_22 
REMARK    5  A    between atoms: C_22  and  C_23 
REMARK    6  A    between atoms: C_23  and  O_24 
REMARK    7  A    between atoms: C_27  and  O_28 
ROOT
ATOM      1  C   UNL d   1      27.504 -16.336  -0.772  0.00  0.00     0.074 A 
ATOM      2  N   UNL d   1      28.479 -16.305   0.205  0.00  0.00    -0.276 N 
ATOM      3  N   UNL d   1      29.688 -15.848  -0.234  0.00  0.00    -0.168 NA
ATOM      4  C   UNL d   1      29.468 -15.651  -1.536  0.00  0.00     0.155 A 
ATOM      5  C   UNL d   1      28.150 -15.908  -1.899  0.00  0.00     0.035 A 
ATOM      6  C   UNL d   1      27.954 -15.708  -3.343  0.00  0.00     0.162 C 
ATOM      7  N   UNL d   1      29.354 -15.610  -3.797  0.00  0.00    -0.333 N 
ATOM      8  C   UNL d   1      30.235 -15.315  -2.731  0.00  0.00     0.275 C 
ATOM      9  O   UNL d   1      31.370 -14.861  -2.802  0.00  0.00    -0.266 OA
ATOM     10  H   UNL d   1      28.382 -16.592   1.176  0.00  0.00     0.189 HD
ENDROOT
BRANCH   1  11
ATOM     11  C   UNL d   1      26.143 -16.814  -0.594  0.00  0.00     0.032 A 
ATOM     12  C   UNL d   1      25.917 -18.075   0.008  0.00  0.00    -0.046 A 
ATOM     13  C   UNL d   1      24.610 -18.575   0.085  0.00  0.00     0.014 A 
ATOM     14  C   UNL d   1      27.030 -18.895   0.605  0.00  0.00     0.049 C 
ATOM     15  C   UNL d   1      23.526 -17.837  -0.399  0.00  0.00    -0.059 A 
ATOM     16  C   UNL d   1      22.130 -18.367  -0.289  0.00  0.00     0.048 C 
ATOM     17  C   UNL d   1      23.753 -16.583  -0.974  0.00  0.00     0.044 A 
ATOM     18  C   UNL d   1      25.046 -16.075  -1.066  0.00  0.00     0.079 A 
BRANCH  18  19
ATOM     19  O   UNL d   1      25.155 -14.836  -1.643  0.00  0.00    -0.360 OA
ATOM     20  H   UNL d   1      25.512 -14.202  -0.999  0.00  0.00     0.217 HD
ENDBRANCH  18  19
ENDBRANCH   1  11
BRANCH   6  21
ATOM     21  C   UNL d   1      27.201 -14.422  -3.521  0.00  0.00     0.008 A 
ATOM     22  C   UNL d   1      27.640 -13.210  -2.960  0.00  0.00     0.012 A 
ATOM     23  C   UNL d   1      26.995 -12.016  -3.255  0.00  0.00     0.001 A 
ATOM     24  C   UNL d   1      25.894 -12.014  -4.108  0.00  0.00     0.003 A 
ATOM     25  C   UNL d   1      25.422 -13.212  -4.645  0.00  0.00     0.043 A 
ATOM     26  C   UNL d   1      26.071 -14.402  -4.342  0.00  0.00     0.125 A 
ATOM     27  F   UNL d   1      25.624 -15.540  -4.895  0.00  0.00    -0.205 F 
ENDBRANCH   6  21
BRANCH   7  28
ATOM     28  C   UNL d   1      29.749 -15.851  -5.192  0.00  0.00     0.129 C 
BRANCH  28  29
ATOM     29  C   UNL d   1      28.826 -15.207  -6.242  0.00  0.00     0.046 C 
BRANCH  29  30
ATOM     30  C   UNL d   1      29.163 -13.760  -6.564  0.00  0.00     0.165 C 
BRANCH  30  31
ATOM     31  O   UNL d   1      28.617 -13.412  -7.833  0.00  0.00    -0.401 OA
ATOM     32  H   UNL d   1      28.905 -14.075  -8.485  0.00  0.00     0.209 HD
ENDBRANCH  30  31
ENDBRANCH  29  30
ENDBRANCH  28  29
ENDBRANCH   7  28
TORSDOF 7
ENDMDL
MODEL 2
REMARK VINA RESULT:    -7.019      2.944      5.962
REMARK INTER + INTRA:         -10.639
REMARK INTER:                  -9.107
REMARK INTRA:                  -1.532
REMARK CONF_INDEPENDENT:        2.088
REMARK UNBOUND:                -1.532
REMARK  7 active torsions:
REMARK  status: ('A' for Active; 'I' for Inactive)
REMARK    1  A    between atoms: C_6  and  C_7 
REMARK    2  A    between atoms: C_12  and  C_13 
REMARK    3  A    between atoms: N_20  and  C_21 
REMARK    4  A    between atoms: C_21  and  C_22 
REMARK    5  A    between atoms: C_22  and  C_23 
REMARK    6  A    between atoms: C_23  and  O_24 
REMARK    7  A    between atoms: C_27  and  O_28 
ROOT
ATOM      1  C   UNL d   1      27.414 -14.747   0.532  0.00  0.00     0.074 A 
ATOM      2  N   UNL d   1      28.099 -15.681   1.283  0.00  0.00    -0.276 N 
ATOM      3  N   UNL d   1      27.684 -16.966   1.081  0.00  0.00    -0.168 NA
ATOM      4  C   UNL d   1      26.669 -16.812   0.227  0.00  0.00     0.155 A 
ATOM      5  C   UNL d   1      26.490 -15.486  -0.153  0.00  0.00     0.035 A 
ATOM      6  C   UNL d   1      25.348 -15.353  -1.071  0.00  0.00     0.162 C 
ATOM      7  N   UNL d   1      24.724 -16.681  -0.925  0.00  0.00    -0.333 N 
ATOM      8  C   UNL d   1      25.621 -17.628  -0.378  0.00  0.00     0.275 C 
ATOM      9  O   UNL d   1      25.542 -18.849  -0.424  0.00  0.00    -0.266 OA
ATOM     10  H   UNL d   1      28.844 -15.503   1.952  0.00  0.00     0.189 HD
ENDROOT
BRANCH   1  11
ATOM     11  C   UNL d   1      27.621 -13.309   0.577  0.00  0.00     0.032 A 
ATOM     12  C   UNL d   1      27.371 -12.605   1.779  0.00  0.00    -0.046 A 
ATOM     13  C   UNL d   1      27.475 -11.206   1.789  0.00  0.00     0.014 A 
ATOM     14  C   UNL d   1      27.029 -13.303   3.068  0.00  0.00     0.049 C 
ATOM     15  C   UNL d   1      27.844 -10.503   0.639  0.00  0.00    -0.059 A 
ATOM     16  C   UNL d   1      27.977  -9.011   0.666  0.00  0.00     0.048 C 
ATOM     17  C   UNL d   1      28.109 -11.206  -0.539  0.00  0.00     0.044 A 
ATOM     18  C   UNL d   1      28.004 -12.594  -0.569  0.00  0.00     0.079 A 
BRANCH  18  19
ATOM     19  O   UNL d   1      28.290 -13.183  -1.773  0.00  0.00    -0.360 OA
ATOM     20  H   UNL d   1      28.269 -12.518  -2.480  0.00  0.00     0.217 HD
ENDBRANCH  18  19
ENDBRANCH   1  11
BRANCH   6  21
ATOM     21  C   UNL d   1      25.901 -15.125  -2.448  0.00  0.00     0.008 A 
ATOM     22  C   UNL d   1      27.174 -15.581  -2.831  0.00  0.00     0.012 A 
ATOM     23  C   UNL d   1      27.600 -15.472  -4.149  0.00  0.00     0.001 A 
ATOM     24  C   UNL d   1      26.764 -14.899  -5.103  0.00  0.00     0.003 A 
ATOM     25  C   UNL d   1      25.512 -14.408  -4.734  0.00  0.00     0.043 A 
ATOM     26  C   UNL d   1      25.095 -14.518  -3.414  0.00  0.00     0.125 A 
ATOM     27  F   UNL d   1      23.873 -14.072  -3.084  0.00  0.00    -0.205 F 
ENDBRANCH   6  21
BRANCH   7  28
ATOM     28  C   UNL d   1      23.319 -16.936  -1.271  0.00  0.00     0.129 C 
BRANCH  28  29
ATOM     29  C   UNL d   1      22.566 -17.838  -0.277  0.00  0.00     0.046 C 
BRANCH  29  30
ATOM     30  C   UNL d   1      21.419 -18.622  -0.893  0.00  0.00     0.165 C 
BRANCH  30  31
ATOM     31  O   UNL d   1      20.239 -17.824  -0.895  0.00  0.00    -0.401 OA
ATOM     32  H   UNL d   1      20.079 -17.510  -1.802  0.00  0.00     0.209 HD
ENDBRANCH  30  31
ENDBRANCH  29  30
ENDBRANCH  28  29
ENDBRANCH   7  28
TORSDOF 7
ENDMDL
MODEL 3
REMARK VINA RESULT:    -6.818      2.678      6.815
REMARK INTER + INTRA:         -11.070
REMARK INTER:                  -8.906
REMARK INTRA:                  -2.164
REMARK CONF_INDEPENDENT:        2.088
REMARK UNBOUND:                -2.164
REMARK  7 active torsions:
REMARK  status: ('A' for Active; 'I' for Inactive)
REMARK    1  A    between atoms: C_6  and  C_7 
REMARK    2  A    between atoms: C_12  and  C_13 
REMARK    3  A    between atoms: N_20  and  C_21 
REMARK    4  A    between atoms: C_21  and  C_22 
REMARK    5  A    between atoms: C_22  and  C_23 
REMARK    6  A    between atoms: C_23  and  O_24 
REMARK    7  A    between atoms: C_27  and  O_28 
ROOT
ATOM      1  C   UNL d   1      26.063 -14.381  -3.571  0.00  0.00     0.074 A 
ATOM      2  N   UNL d   1      24.901 -13.756  -3.976  0.00  0.00    -0.276 N 
ATOM      3  N   UNL d   1      23.804 -14.098  -3.238  0.00  0.00    -0.168 NA
ATOM      4  C   UNL d   1      24.293 -15.010  -2.395  0.00  0.00     0.155 A 
ATOM      5  C   UNL d   1      25.664 -15.192  -2.545  0.00  0.00     0.035 A 
ATOM      6  C   UNL d   1      26.162 -16.222  -1.620  0.00  0.00     0.162 C 
ATOM      7  N   UNL d   1      24.890 -16.809  -1.157  0.00  0.00    -0.333 N 
ATOM      8  C   UNL d   1      23.794 -15.949  -1.396  0.00  0.00     0.275 C 
ATOM      9  O   UNL d   1      22.690 -15.978  -0.867  0.00  0.00    -0.266 OA
ATOM     10  H   UNL d   1      24.793 -13.102  -4.747  0.00  0.00     0.189 HD
ENDROOT
BRANCH   1  11
ATOM     11  C   UNL d   1      27.366 -14.234  -4.200  0.00  0.00     0.032 A 
ATOM     12  C   UNL d   1      28.366 -13.461  -3.563  0.00  0.00    -0.046 A 
ATOM     13  C   UNL d   1      29.584 -13.239  -4.220  0.00  0.00     0.014 A 
ATOM     14  C   UNL d   1      28.188 -12.890  -2.182  0.00  0.00     0.049 C 
ATOM     15  C   UNL d   1      29.834 -13.790  -5.481  0.00  0.00    -0.059 A 
ATOM     16  C   UNL d   1      31.148 -13.569  -6.165  0.00  0.00     0.048 C 
ATOM     17  C   UNL d   1      28.850 -14.569  -6.095  0.00  0.00     0.044 A 
ATOM     18  C   UNL d   1      27.631 -14.793  -5.461  0.00  0.00     0.079 A 
BRANCH  18  19
ATOM     19  O   UNL d   1      26.740 -15.575  -6.149  0.00  0.00    -0.360 OA
ATOM     20  H   UNL d   1      25.840 -15.422  -5.817  0.00  0.00     0.217 HD
ENDBRANCH  18  19
ENDBRANCH   1  11
BRANCH   6  21
ATOM     21  C   UNL d   1      26.904 -15.519  -0.520  0.00  0.00     0.008 A 
ATOM     22  C   UNL d   1      26.312 -14.514   0.263  0.00  0.00     0.012 A 
ATOM     23  C   UNL d   1      26.981 -13.980   1.357  0.00  0.00     0.001 A 
ATOM     24  C   UNL d   1      28.256 -14.435   1.681  0.00  0.00     0.003 A 
ATOM     25  C   UNL d   1      28.874 -15.406   0.894  0.00  0.00     0.043 A 
ATOM     26  C   UNL d   1      28.200 -15.933  -0.200  0.00  0.00     0.125 A 
ATOM     27  F   UNL d   1      28.796 -16.892  -0.926  0.00  0.00    -0.205 F 
ENDBRANCH   6  21
BRANCH   7  28
ATOM     28  C   UNL d   1      24.810 -18.154  -0.570  0.00  0.00     0.129 C 
BRANCH  28  29
ATOM     29  C   UNL d   1      23.410 -18.555  -0.072  0.00  0.00     0.046 C 
BRANCH  29  30
ATOM     30  C   UNL d   1      22.421 -18.869  -1.183  0.00  0.00     0.165 C 
BRANCH  30  31
ATOM     31  O   UNL d   1      21.185 -18.206  -0.926  0.00  0.00    -0.401 OA
ATOM     32  H   UNL d   1      21.295 -17.260  -1.126  0.00  0.00     0.209 HD
ENDBRANCH  30  31
ENDBRANCH  29  30
ENDBRANCH  28  29
ENDBRANCH   7  28
TORSDOF 7
ENDMDL
MODEL 4
REMARK VINA RESULT:    -6.469      2.603      6.831
REMARK INTER + INTRA:         -10.847
REMARK INTER:                  -8.557
REMARK INTRA:                  -2.290
REMARK CONF_INDEPENDENT:        2.088
REMARK UNBOUND:                -2.290
REMARK  7 active torsions:
REMARK  status: ('A' for Active; 'I' for Inactive)
REMARK    1  A    between atoms: C_6  and  C_7 
REMARK    2  A    between atoms: C_12  and  C_13 
REMARK    3  A    between atoms: N_20  and  C_21 
REMARK    4  A    between atoms: C_21  and  C_22 
REMARK    5  A    between atoms: C_22  and  C_23 
REMARK    6  A    between atoms: C_23  and  O_24 
REMARK    7  A    between atoms: C_27  and  O_28 
ROOT
ATOM      1  C   UNL d   1      25.852 -13.954  -4.210  0.00  0.00     0.074 A 
ATOM      2  N   UNL d   1      24.548 -13.588  -4.476  0.00  0.00    -0.276 N 
ATOM      3  N   UNL d   1      23.643 -14.075  -3.577  0.00  0.00    -0.168 NA
ATOM      4  C   UNL d   1      24.405 -14.817  -2.770  0.00  0.00     0.155 A 
ATOM      5  C   UNL d   1      25.754 -14.749  -3.102  0.00  0.00     0.035 A 
ATOM      6  C   UNL d   1      26.558 -15.600  -2.210  0.00  0.00     0.162 C 
ATOM      7  N   UNL d   1      25.495 -16.380  -1.547  0.00  0.00    -0.333 N 
ATOM      8  C   UNL d   1      24.231 -15.759  -1.669  0.00  0.00     0.275 C 
ATOM      9  O   UNL d   1      23.231 -15.956  -0.990  0.00  0.00    -0.266 OA
ATOM     10  H   UNL d   1      24.216 -13.022  -5.253  0.00  0.00     0.189 HD
ENDROOT
BRANCH   1  11
ATOM     11  C   UNL d   1      27.009 -13.612  -5.021  0.00  0.00     0.032 A 
ATOM     12  C   UNL d   1      27.291 -12.252  -5.296  0.00  0.00    -0.046 A 
ATOM     13  C   UNL d   1      28.348 -11.932  -6.161  0.00  0.00     0.014 A 
ATOM     14  C   UNL d   1      26.519 -11.124  -4.668  0.00  0.00     0.049 C 
ATOM     15  C   UNL d   1      29.139 -12.933  -6.733  0.00  0.00    -0.059 A 
ATOM     16  C   UNL d   1      30.282 -12.582  -7.635  0.00  0.00     0.048 C 
ATOM     17  C   UNL d   1      28.868 -14.272  -6.441  0.00  0.00     0.044 A 
ATOM     18  C   UNL d   1      27.818 -14.609  -5.590  0.00  0.00     0.079 A 
BRANCH  18  19
ATOM     19  O   UNL d   1      27.642 -15.950  -5.368  0.00  0.00    -0.360 OA
ATOM     20  H   UNL d   1      28.503 -16.400  -5.363  0.00  0.00     0.217 HD
ENDBRANCH  18  19
ENDBRANCH   1  11
BRANCH   6  21
ATOM     21  C   UNL d   1      27.284 -14.694  -1.258  0.00  0.00     0.008 A 
ATOM     22  C   UNL d   1      26.791 -14.402   0.025  0.00  0.00     0.012 A 
ATOM     23  C   UNL d   1      27.552 -13.670   0.928  0.00  0.00     0.001 A 
ATOM     24  C   UNL d   1      28.814 -13.212   0.561  0.00  0.00     0.003 A 
ATOM     25  C   UNL d   1      29.305 -13.462  -0.721  0.00  0.00     0.043 A 
ATOM     26  C   UNL d   1      28.537 -14.191  -1.619  0.00  0.00     0.125 A 
ATOM     27  F   UNL d   1      29.039 -14.452  -2.835  0.00  0.00    -0.205 F 
ENDBRANCH   6  21
BRANCH   7  28
ATOM     28  C   UNL d   1      25.755 -17.670  -0.895  0.00  0.00     0.129 C 
BRANCH  28  29
ATOM     29  C   UNL d   1      24.758 -18.039   0.220  0.00  0.00     0.046 C 
BRANCH  29  30
ATOM     30  C   UNL d   1      23.629 -18.951  -0.231  0.00  0.00     0.165 C 
BRANCH  30  31
ATOM     31  O   UNL d   1      23.305 -18.675  -1.592  0.00  0.00    -0.401 OA
ATOM     32  H   UNL d   1      22.785 -17.854  -1.625  0.00  0.00     0.209 HD
ENDBRANCH  30  31
ENDBRANCH  29  30
ENDBRANCH  28  29
ENDBRANCH   7  28
TORSDOF 7
ENDMDL
MODEL 5
REMARK VINA RESULT:    -5.866      1.715      2.049
REMARK INTER + INTRA:         -10.591
REMARK INTER:                  -7.954
REMARK INTRA:                  -2.637
REMARK CONF_INDEPENDENT:        2.088
REMARK UNBOUND:                -2.637
REMARK  7 active torsions:
REMARK  status: ('A' for Active; 'I' for Inactive)
REMARK    1  A    between atoms: C_6  and  C_7 
REMARK    2  A    between atoms: C_12  and  C_13 
REMARK    3  A    between atoms: N_20  and  C_21 
REMARK    4  A    between atoms: C_21  and  C_22 
REMARK    5  A    between atoms: C_22  and  C_23 
REMARK    6  A    between atoms: C_23  and  O_24 
REMARK    7  A    between atoms: C_27  and  O_28 
ROOT
ATOM      1  C   UNL d   1      27.637 -17.058  -1.016  0.00  0.00     0.074 A 
ATOM      2  N   UNL d   1      28.631 -17.878  -0.520  0.00  0.00    -0.276 N 
ATOM      3  N   UNL d   1      29.893 -17.483  -0.860  0.00  0.00    -0.168 NA
ATOM      4  C   UNL d   1      29.667 -16.425  -1.642  0.00  0.00     0.155 A 
ATOM      5  C   UNL d   1      28.314 -16.116  -1.740  0.00  0.00     0.035 A 
ATOM      6  C   UNL d   1      28.102 -14.964  -2.630  0.00  0.00     0.162 C 
ATOM      7  N   UNL d   1      29.434 -14.854  -3.255  0.00  0.00    -0.333 N 
ATOM      8  C   UNL d   1      30.426 -15.525  -2.504  0.00  0.00     0.275 C 
ATOM      9  O   UNL d   1      31.639 -15.368  -2.556  0.00  0.00    -0.266 OA
ATOM     10  H   UNL d   1      28.510 -18.717   0.041  0.00  0.00     0.189 HD
ENDROOT
BRANCH   1  11
ATOM     11  C   UNL d   1      26.208 -17.262  -0.843  0.00  0.00     0.032 A 
ATOM     12  C   UNL d   1      25.739 -18.045   0.239  0.00  0.00    -0.046 A 
ATOM     13  C   UNL d   1      24.369 -18.322   0.343  0.00  0.00     0.014 A 
ATOM     14  C   UNL d   1      26.655 -18.569   1.312  0.00  0.00     0.049 C 
ATOM     15  C   UNL d   1      23.459 -17.816  -0.591  0.00  0.00    -0.059 A 
ATOM     16  C   UNL d   1      21.994 -18.095  -0.458  0.00  0.00     0.048 C 
ATOM     17  C   UNL d   1      23.926 -17.027  -1.645  0.00  0.00     0.044 A 
ATOM     18  C   UNL d   1      25.284 -16.748  -1.768  0.00  0.00     0.079 A 
BRANCH  18  19
ATOM     19  O   UNL d   1      25.633 -15.961  -2.835  0.00  0.00    -0.360 OA
ATOM     20  H   UNL d   1      25.862 -16.519  -3.596  0.00  0.00     0.217 HD
ENDBRANCH  18  19
ENDBRANCH   1  11
BRANCH   6  21
ATOM     21  C   UNL d   1      27.772 -13.782  -1.766  0.00  0.00     0.008 A 
ATOM     22  C   UNL d   1      27.783 -13.851  -0.363  0.00  0.00     0.012 A 
ATOM     23  C   UNL d   1      27.605 -12.707   0.405  0.00  0.00     0.001 A 
ATOM     24  C   UNL d   1      27.405 -11.478  -0.216  0.00  0.00     0.003 A 
ATOM     25  C   UNL d   1      27.355 -11.396  -1.607  0.00  0.00     0.043 A 
ATOM     26  C   UNL d   1      27.531 -12.544  -2.368  0.00  0.00     0.125 A 
ATOM     27  F   UNL d   1      27.515 -12.441  -3.706  0.00  0.00    -0.205 F 
ENDBRANCH   6  21
BRANCH   7  28
ATOM     28  C   UNL d   1      29.651 -14.162  -4.533  0.00  0.00     0.129 C 
BRANCH  28  29
ATOM     29  C   UNL d   1      28.897 -14.772  -5.729  0.00  0.00     0.046 C 
BRANCH  29  30
ATOM     30  C   UNL d   1      27.415 -14.438  -5.767  0.00  0.00     0.165 C 
BRANCH  30  31
ATOM     31  O   UNL d   1      26.657 -15.575  -5.363  0.00  0.00    -0.401 OA
ATOM     32  H   UNL d   1      25.877 -15.267  -4.869  0.00  0.00     0.209 HD
ENDBRANCH  30  31
ENDBRANCH  29  30
ENDBRANCH  28  29
ENDBRANCH   7  28
TORSDOF 7
ENDMDL
MODEL 6
REMARK VINA RESULT:    -5.522      2.450      5.272
REMARK INTER + INTRA:         -10.595
REMARK INTER:                  -7.610
REMARK INTRA:                  -2.984
REMARK CONF_INDEPENDENT:        2.088
REMARK UNBOUND:                -2.984
REMARK  7 active torsions:
REMARK  status: ('A' for Active; 'I' for Inactive)
REMARK    1  A    between atoms: C_6  and  C_7 
REMARK    2  A    between atoms: C_12  and  C_13 
REMARK    3  A    between atoms: N_20  and  C_21 
REMARK    4  A    between atoms: C_21  and  C_22 
REMARK    5  A    between atoms: C_22  and  C_23 
REMARK    6  A    between atoms: C_23  and  O_24 
REMARK    7  A    between atoms: C_27  and  O_28 
ROOT
ATOM      1  C   UNL d   1      29.782 -15.887  -2.448  0.00  0.00     0.074 A 
ATOM      2  N   UNL d   1      30.659 -14.935  -1.968  0.00  0.00    -0.276 N 
ATOM      3  N   UNL d   1      30.046 -13.839  -1.432  0.00  0.00    -0.168 NA
ATOM      4  C   UNL d   1      28.753 -14.095  -1.647  0.00  0.00     0.155 A 
ATOM      5  C   UNL d   1      28.548 -15.339  -2.235  0.00  0.00     0.035 A 
ATOM      6  C   UNL d   1      27.117 -15.573  -2.481  0.00  0.00     0.162 C 
ATOM      7  N   UNL d   1      26.576 -14.220  -2.253  0.00  0.00    -0.333 N 
ATOM      8  C   UNL d   1      27.471 -13.411  -1.516  0.00  0.00     0.275 C 
ATOM      9  O   UNL d   1      27.217 -12.386  -0.897  0.00  0.00    -0.266 OA
ATOM     10  H   UNL d   1      31.675 -14.971  -1.988  0.00  0.00     0.189 HD
ENDROOT
BRANCH   1  11
ATOM     11  C   UNL d   1      30.158 -17.129  -3.103  0.00  0.00     0.032 A 
ATOM     12  C   UNL d   1      30.787 -18.152  -2.353  0.00  0.00    -0.046 A 
ATOM     13  C   UNL d   1      31.238 -19.306  -3.010  0.00  0.00     0.014 A 
ATOM     14  C   UNL d   1      30.962 -18.068  -0.861  0.00  0.00     0.049 C 
ATOM     15  C   UNL d   1      31.053 -19.471  -4.386  0.00  0.00    -0.059 A 
ATOM     16  C   UNL d   1      31.515 -20.717  -5.075  0.00  0.00     0.048 C 
ATOM     17  C   UNL d   1      30.414 -18.466  -5.117  0.00  0.00     0.044 A 
ATOM     18  C   UNL d   1      29.967 -17.310  -4.482  0.00  0.00     0.079 A 
BRANCH  18  19
ATOM     19  O   UNL d   1      29.349 -16.392  -5.291  0.00  0.00    -0.360 OA
ATOM     20  H   UNL d   1      28.803 -15.793  -4.756  0.00  0.00     0.217 HD
ENDBRANCH  18  19
ENDBRANCH   1  11
BRANCH   6  21
ATOM     21  C   UNL d   1      26.640 -16.563  -1.457  0.00  0.00     0.008 A 
ATOM     22  C   UNL d   1      27.480 -17.063  -0.448  0.00  0.00     0.012 A 
ATOM     23  C   UNL d   1      26.973 -17.871   0.562  0.00  0.00     0.001 A 
ATOM     24  C   UNL d   1      25.621 -18.200   0.574  0.00  0.00     0.003 A 
ATOM     25  C   UNL d   1      24.779 -17.743  -0.439  0.00  0.00     0.043 A 
ATOM     26  C   UNL d   1      25.294 -16.938  -1.447  0.00  0.00     0.125 A 
ATOM     27  F   UNL d   1      24.463 -16.477  -2.395  0.00  0.00    -0.205 F 
ENDBRANCH   6  21
BRANCH   7  28
ATOM     28  C   UNL d   1      25.278 -13.789  -2.791  0.00  0.00     0.129 C 
BRANCH  28  29
ATOM     29  C   UNL d   1      25.150 -13.893  -4.322  0.00  0.00     0.046 C 
BRANCH  29  30
ATOM     30  C   UNL d   1      26.478 -13.872  -5.060  0.00  0.00     0.165 C 
BRANCH  30  31
ATOM     31  O   UNL d   1      26.847 -15.201  -5.421  0.00  0.00    -0.401 OA
ATOM     32  H   UNL d   1      27.691 -15.167  -5.903  0.00  0.00     0.209 HD
ENDBRANCH  30  31
ENDBRANCH  29  30
ENDBRANCH  28  29
ENDBRANCH   7  28
TORSDOF 7
ENDMDL
MODEL 7
REMARK VINA RESULT:    -5.480      3.602      5.526
REMARK INTER + INTRA:         -10.427
REMARK INTER:                  -7.568
REMARK INTRA:                  -2.859
REMARK CONF_INDEPENDENT:        2.088
REMARK UNBOUND:                -2.859
REMARK  7 active torsions:
REMARK  status: ('A' for Active; 'I' for Inactive)
REMARK    1  A    between atoms: C_6  and  C_7 
REMARK    2  A    between atoms: C_12  and  C_13 
REMARK    3  A    between atoms: N_20  and  C_21 
REMARK    4  A    between atoms: C_21  and  C_22 
REMARK    5  A    between atoms: C_22  and  C_23 
REMARK    6  A    between atoms: C_23  and  O_24 
REMARK    7  A    between atoms: C_27  and  O_28 
ROOT
ATOM      1  C   UNL d   1      28.313 -13.412   0.163  0.00  0.00     0.074 A 
ATOM      2  N   UNL d   1      28.407 -12.214  -0.515  0.00  0.00    -0.276 N 
ATOM      3  N   UNL d   1      28.437 -12.349  -1.874  0.00  0.00    -0.168 NA
ATOM      4  C   UNL d   1      28.426 -13.674  -2.035  0.00  0.00     0.155 A 
ATOM      5  C   UNL d   1      28.323 -14.356  -0.827  0.00  0.00     0.035 A 
ATOM      6  C   UNL d   1      28.341 -15.811  -1.042  0.00  0.00     0.162 C 
ATOM      7  N   UNL d   1      28.769 -15.872  -2.452  0.00  0.00    -0.333 N 
ATOM      8  C   UNL d   1      28.571 -14.641  -3.118  0.00  0.00     0.275 C 
ATOM      9  O   UNL d   1      28.514 -14.442  -4.325  0.00  0.00    -0.266 OA
ATOM     10  H   UNL d   1      28.465 -11.283  -0.110  0.00  0.00     0.189 HD
ENDROOT
BRANCH   1  11
ATOM     11  C   UNL d   1      28.302 -13.567   1.608  0.00  0.00     0.032 A 
ATOM     12  C   UNL d   1      27.368 -12.838   2.383  0.00  0.00    -0.046 A 
ATOM     13  C   UNL d   1      27.428 -12.914   3.782  0.00  0.00     0.014 A 
ATOM     14  C   UNL d   1      26.280 -12.003   1.761  0.00  0.00     0.049 C 
ATOM     15  C   UNL d   1      28.378 -13.717   4.419  0.00  0.00    -0.059 A 
ATOM     16  C   UNL d   1      28.418 -13.812   5.913  0.00  0.00     0.048 C 
ATOM     17  C   UNL d   1      29.284 -14.450   3.649  0.00  0.00     0.044 A 
ATOM     18  C   UNL d   1      29.244 -14.381   2.259  0.00  0.00     0.079 A 
BRANCH  18  19
ATOM     19  O   UNL d   1      30.174 -15.143   1.601  0.00  0.00    -0.360 OA
ATOM     20  H   UNL d   1      29.980 -16.086   1.729  0.00  0.00     0.217 HD
ENDBRANCH  18  19
ENDBRANCH   1  11
BRANCH   6  21
ATOM     21  C   UNL d   1      26.940 -16.313  -0.844  0.00  0.00     0.008 A 
ATOM     22  C   UNL d   1      25.830 -15.700  -1.449  0.00  0.00     0.012 A 
ATOM     23  C   UNL d   1      24.566 -16.269  -1.354  0.00  0.00     0.001 A 
ATOM     24  C   UNL d   1      24.389 -17.454  -0.646  0.00  0.00     0.003 A 
ATOM     25  C   UNL d   1      25.473 -18.058  -0.009  0.00  0.00     0.043 A 
ATOM     26  C   UNL d   1      26.733 -17.481  -0.105  0.00  0.00     0.125 A 
ATOM     27  F   UNL d   1      27.771 -18.094   0.485  0.00  0.00    -0.205 F 
ENDBRANCH   6  21
BRANCH   7  28
ATOM     28  C   UNL d   1      29.373 -17.075  -3.041  0.00  0.00     0.129 C 
BRANCH  28  29
ATOM     29  C   UNL d   1      30.697 -17.515  -2.389  0.00  0.00     0.046 C 
BRANCH  29  30
ATOM     30  C   UNL d   1      30.549 -18.035  -0.969  0.00  0.00     0.165 C 
BRANCH  30  31
ATOM     31  O   UNL d   1      30.821 -16.987  -0.043  0.00  0.00    -0.401 OA
ATOM     32  H   UNL d   1      30.386 -17.199   0.801  0.00  0.00     0.209 HD
ENDBRANCH  30  31
ENDBRANCH  29  30
ENDBRANCH  28  29
ENDBRANCH   7  28
TORSDOF 7
ENDMDL
MODEL 8
REMARK VINA RESULT:    -5.469      2.824      4.254
REMARK INTER + INTRA:         -10.603
REMARK INTER:                  -7.557
REMARK INTRA:                  -3.046
REMARK CONF_INDEPENDENT:        2.088
REMARK UNBOUND:                -3.046
REMARK  7 active torsions:
REMARK  status: ('A' for Active; 'I' for Inactive)
REMARK    1  A    between atoms: C_6  and  C_7 
REMARK    2  A    between atoms: C_12  and  C_13 
REMARK    3  A    between atoms: N_20  and  C_21 
REMARK    4  A    between atoms: C_21  and  C_22 
REMARK    5  A    between atoms: C_22  and  C_23 
REMARK    6  A    between atoms: C_23  and  O_24 
REMARK    7  A    between atoms: C_27  and  O_28 
ROOT
ATOM      1  C   UNL d   1      27.057 -16.086  -1.274  0.00  0.00     0.074 A 
ATOM      2  N   UNL d   1      28.059 -16.687  -2.010  0.00  0.00    -0.276 N 
ATOM      3  N   UNL d   1      29.150 -15.891  -2.213  0.00  0.00    -0.168 NA
ATOM      4  C   UNL d   1      28.783 -14.743  -1.639  0.00  0.00     0.155 A 
ATOM      5  C   UNL d   1      27.533 -14.827  -1.033  0.00  0.00     0.035 A 
ATOM      6  C   UNL d   1      27.151 -13.537  -0.437  0.00  0.00     0.162 C 
ATOM      7  N   UNL d   1      28.170 -12.651  -1.030  0.00  0.00    -0.333 N 
ATOM      8  C   UNL d   1      29.279 -13.376  -1.522  0.00  0.00     0.275 C 
ATOM      9  O   UNL d   1      30.401 -12.953  -1.771  0.00  0.00    -0.266 OA
ATOM     10  H   UNL d   1      28.050 -17.624  -2.406  0.00  0.00     0.189 HD
ENDROOT
BRANCH   1  11
ATOM     11  C   UNL d   1      25.775 -16.685  -0.944  0.00  0.00     0.032 A 
ATOM     12  C   UNL d   1      25.727 -17.802  -0.076  0.00  0.00    -0.046 A 
ATOM     13  C   UNL d   1      24.499 -18.437   0.159  0.00  0.00     0.014 A 
ATOM     14  C   UNL d   1      26.946 -18.320   0.640  0.00  0.00     0.049 C 
ATOM     15  C   UNL d   1      23.321 -17.968  -0.430  0.00  0.00    -0.059 A 
ATOM     16  C   UNL d   1      22.010 -18.637  -0.154  0.00  0.00     0.048 C 
ATOM     17  C   UNL d   1      23.372 -16.853  -1.271  0.00  0.00     0.044 A 
ATOM     18  C   UNL d   1      24.584 -16.215  -1.521  0.00  0.00     0.079 A 
BRANCH  18  19
ATOM     19  O   UNL d   1      24.519 -15.128  -2.355  0.00  0.00    -0.360 OA
ATOM     20  H   UNL d   1      24.965 -14.369  -1.945  0.00  0.00     0.217 HD
ENDBRANCH  18  19
ENDBRANCH   1  11
BRANCH   6  21
ATOM     21  C   UNL d   1      27.300 -13.668   1.051  0.00  0.00     0.008 A 
ATOM     22  C   UNL d   1      27.888 -14.794   1.651  0.00  0.00     0.012 A 
ATOM     23  C   UNL d   1      28.132 -14.824   3.019  0.00  0.00     0.001 A 
ATOM     24  C   UNL d   1      27.782 -13.733   3.810  0.00  0.00     0.003 A 
ATOM     25  C   UNL d   1      27.164 -12.622   3.237  0.00  0.00     0.043 A 
ATOM     26  C   UNL d   1      26.921 -12.601   1.870  0.00  0.00     0.125 A 
ATOM     27  F   UNL d   1      26.358 -11.509   1.331  0.00  0.00    -0.205 F 
ENDBRANCH   6  21
BRANCH   7  28
ATOM     28  C   UNL d   1      27.990 -11.195  -1.125  0.00  0.00     0.129 C 
BRANCH  28  29
ATOM     29  C   UNL d   1      26.968 -10.742  -2.185  0.00  0.00     0.046 C 
BRANCH  29  30
ATOM     30  C   UNL d   1      26.635 -11.802  -3.222  0.00  0.00     0.165 C 
BRANCH  30  31
ATOM     31  O   UNL d   1      25.525 -12.577  -2.776  0.00  0.00    -0.401 OA
ATOM     32  H   UNL d   1      25.550 -13.439  -3.225  0.00  0.00     0.209 HD
ENDBRANCH  30  31
ENDBRANCH  29  30
ENDBRANCH  28  29
ENDBRANCH   7  28
TORSDOF 7
ENDMDL
MODEL 9
REMARK VINA RESULT:    -5.423      9.698     11.347
REMARK INTER + INTRA:         -10.516
REMARK INTER:                  -7.511
REMARK INTRA:                  -3.006
REMARK CONF_INDEPENDENT:        2.088
REMARK UNBOUND:                -3.006
REMARK  7 active torsions:
REMARK  status: ('A' for Active; 'I' for Inactive)
REMARK    1  A    between atoms: C_6  and  C_7 
REMARK    2  A    between atoms: C_12  and  C_13 
REMARK    3  A    between atoms: N_20  and  C_21 
REMARK    4  A    between atoms: C_21  and  C_22 
REMARK    5  A    between atoms: C_22  and  C_23 
REMARK    6  A    between atoms: C_23  and  O_24 
REMARK    7  A    between atoms: C_27  and  O_28 
ROOT
ATOM      1  C   UNL d   1      29.867 -11.794   8.664  0.00  0.00     0.074 A 
ATOM      2  N   UNL d   1      29.458 -10.644   9.310  0.00  0.00    -0.276 N 
ATOM      3  N   UNL d   1      29.279  -9.576   8.477  0.00  0.00    -0.168 NA
ATOM      4  C   UNL d   1      29.649 -10.067   7.292  0.00  0.00     0.155 A 
ATOM      5  C   UNL d   1      29.986 -11.415   7.355  0.00  0.00     0.035 A 
ATOM      6  C   UNL d   1      30.415 -11.911   6.039  0.00  0.00     0.162 C 
ATOM      7  N   UNL d   1      30.574 -10.641   5.307  0.00  0.00    -0.333 N 
ATOM      8  C   UNL d   1      29.885  -9.579   5.937  0.00  0.00     0.275 C 
ATOM      9  O   UNL d   1      29.548  -8.508   5.447  0.00  0.00    -0.266 OA
ATOM     10  H   UNL d   1      29.299 -10.525  10.307  0.00  0.00     0.189 HD
ENDROOT
BRANCH   1  11
ATOM     11  C   UNL d   1      30.171 -13.062   9.306  0.00  0.00     0.032 A 
ATOM     12  C   UNL d   1      29.219 -13.653  10.171  0.00  0.00    -0.046 A 
ATOM     13  C   UNL d   1      29.556 -14.824  10.865  0.00  0.00     0.014 A 
ATOM     14  C   UNL d   1      27.834 -13.092  10.352  0.00  0.00     0.049 C 
ATOM     15  C   UNL d   1      30.806 -15.426  10.697  0.00  0.00    -0.059 A 
ATOM     16  C   UNL d   1      31.149 -16.691  11.423  0.00  0.00     0.048 C 
ATOM     17  C   UNL d   1      31.734 -14.849   9.826  0.00  0.00     0.044 A 
ATOM     18  C   UNL d   1      31.419 -13.682   9.134  0.00  0.00     0.079 A 
BRANCH  18  19
ATOM     19  O   UNL d   1      32.399 -13.204   8.304  0.00  0.00    -0.360 OA
ATOM     20  H   UNL d   1      32.179 -13.409   7.380  0.00  0.00     0.217 HD
ENDBRANCH  18  19
ENDBRANCH   1  11
BRANCH   6  21
ATOM     21  C   UNL d   1      29.300 -12.755   5.491  0.00  0.00     0.008 A 
ATOM     22  C   UNL d   1      28.366 -12.256   4.567  0.00  0.00     0.012 A 
ATOM     23  C   UNL d   1      27.431 -13.099   3.979  0.00  0.00     0.001 A 
ATOM     24  C   UNL d   1      27.408 -14.451   4.311  0.00  0.00     0.003 A 
ATOM     25  C   UNL d   1      28.304 -14.956   5.254  0.00  0.00     0.043 A 
ATOM     26  C   UNL d   1      29.234 -14.106   5.839  0.00  0.00     0.125 A 
ATOM     27  F   UNL d   1      30.111 -14.616   6.717  0.00  0.00    -0.205 F 
ENDBRANCH   6  21
BRANCH   7  28
ATOM     28  C   UNL d   1      31.402 -10.525   4.099  0.00  0.00     0.129 C 
BRANCH  28  29
ATOM     29  C   UNL d   1      32.572 -11.522   4.023  0.00  0.00     0.046 C 
BRANCH  29  30
ATOM     30  C   UNL d   1      33.644 -11.305   5.079  0.00  0.00     0.165 C 
BRANCH  30  31
ATOM     31  O   UNL d   1      33.181 -11.789   6.337  0.00  0.00    -0.401 OA
ATOM     32  H   UNL d   1      33.276 -12.758   6.350  0.00  0.00     0.209 HD
ENDBRANCH  30  31
ENDBRANCH  29  30
ENDBRANCH  28  29
ENDBRANCH   7  28
TORSDOF 7
ENDMDL
