MODEL 1
REMARK VINA RESULT:    -7.665      0.000      0.000
REMARK INTER + INTRA:          -9.569
REMARK INTER:                  -8.858
REMARK INTRA:                  -0.712
REMARK CONF_INDEPENDENT:        1.193
REMARK UNBOUND:                -0.712
REMARK  4 active torsions:
REMARK  status: ('A' for Active; 'I' for Inactive)
REMARK       I    between atoms: C_2  and  N_3 
REMARK       I    between atoms: C_2  and  N_13 
REMARK    1  A    between atoms: N_3  and  C_4 
REMARK    2  A    between atoms: C_4  and  C_7 
REMARK    3  A    between atoms: N_5  and  O_6 
REMARK    4  A    between atoms: N_13  and  C_14 
ROOT
ATOM      1  O   UNL d   1      27.689 -15.698  -1.597  0.00  0.00    -0.247 OA
ATOM      2  C   UNL d   1      26.507 -15.981  -1.822  0.00  0.00     0.326 C 
ATOM      3  N   UNL d   1      25.801 -15.672  -2.976  0.00  0.00    -0.290 N 
ATOM      4  N   UNL d   1      25.825 -16.584  -0.793  0.00  0.00    -0.309 N 
ATOM      5  H   UNL d   1      24.823 -15.902  -2.979  0.00  0.00     0.172 HD
ATOM      6  H   UNL d   1      26.379 -16.611   0.058  0.00  0.00     0.170 HD
ENDROOT
BRANCH   3   7
ATOM      7  C   UNL d   1      26.304 -14.992  -4.088  0.00  0.00     0.168 C 
ATOM      8  N   UNL d   1      26.646 -15.690  -5.130  0.00  0.00    -0.117 NA
BRANCH   8   9
ATOM      9  O   UNL d   1      27.279 -14.956  -6.134  0.00  0.00    -0.264 OA
ATOM     10  H   UNL d   1      28.028 -14.559  -5.656  0.00  0.00     0.247 HD
ENDBRANCH   8   9
BRANCH   7  11
ATOM     11  C   UNL d   1      26.440 -13.490  -3.995  0.00  0.00     0.012 C 
ATOM     12  C   UNL d   1      26.843 -12.931  -2.768  0.00  0.00     0.015 C 
ATOM     13  C   UNL d   1      26.655 -11.576  -2.493  0.00  0.00     0.001 C 
ATOM     14  C   UNL d   1      26.198 -10.730  -3.495  0.00  0.00     0.000 C 
ATOM     15  C   UNL d   1      25.905 -11.250  -4.758  0.00  0.00     0.001 C 
ATOM     16  C   UNL d   1      26.014 -12.629  -5.011  0.00  0.00     0.015 C 
ENDBRANCH   7  11
ENDBRANCH   3   7
BRANCH   4  17
ATOM     17  C   UNL d   1      24.567 -17.192  -0.757  0.00  0.00     0.036 A 
ATOM     18  C   UNL d   1      23.417 -16.404  -0.895  0.00  0.00     0.031 A 
ATOM     19  C   UNL d   1      22.154 -17.004  -0.858  0.00  0.00     0.026 A 
ATOM     20  C   UNL d   1      22.050 -18.387  -0.710  0.00  0.00     0.034 A 
ATOM     21 CL   UNL d   1      20.514 -19.152  -0.788  0.00  0.00    -0.084 Cl
ATOM     22  C   UNL d   1      23.190 -19.162  -0.521  0.00  0.00     0.026 A 
ATOM     23  C   UNL d   1      24.444 -18.559  -0.520  0.00  0.00     0.031 A 
ENDBRANCH   4  17
TORSDOF 4
ENDMDL
MODEL 2
REMARK VINA RESULT:    -7.537     10.066     12.542
REMARK INTER + INTRA:          -9.455
REMARK INTER:                  -8.730
REMARK INTRA:                  -0.725
REMARK CONF_INDEPENDENT:        1.193
REMARK UNBOUND:                -0.725
REMARK  4 active torsions:
REMARK  status: ('A' for Active; 'I' for Inactive)
REMARK       I    between atoms: C_2  and  N_3 
REMARK       I    between atoms: C_2  and  N_13 
REMARK    1  A    between atoms: N_3  and  C_4 
REMARK    2  A    between atoms: C_4  and  C_7 
REMARK    3  A    between atoms: N_5  and  O_6 
REMARK    4  A    between atoms: N_13  and  C_14 
ROOT
ATOM      1  O   UNL d   1      32.281 -19.277   3.782  0.00  0.00    -0.247 OA
ATOM      2  C   UNL d   1      31.942 -20.361   3.297  0.00  0.00     0.326 C 
ATOM      3  N   UNL d   1      31.579 -21.495   4.010  0.00  0.00    -0.290 N 
ATOM      4  N   UNL d   1      32.015 -20.458   1.929  0.00  0.00    -0.309 N 
ATOM      5  H   UNL d   1      31.402 -22.326   3.473  0.00  0.00     0.172 HD
ATOM      6  H   UNL d   1      32.450 -19.637   1.518  0.00  0.00     0.170 HD
ENDROOT
BRANCH   3   7
ATOM      7  C   UNL d   1      31.528 -21.607   5.401  0.00  0.00     0.168 C 
ATOM      8  N   UNL d   1      30.362 -21.574   5.977  0.00  0.00    -0.117 NA
BRANCH   8   9
ATOM      9  O   UNL d   1      30.407 -21.537   7.371  0.00  0.00    -0.264 OA
ATOM     10  H   UNL d   1      29.963 -22.369   7.612  0.00  0.00     0.247 HD
ENDBRANCH   8   9
BRANCH   7  11
ATOM     11  C   UNL d   1      32.835 -21.736   6.148  0.00  0.00     0.012 C 
ATOM     12  C   UNL d   1      33.865 -20.822   5.854  0.00  0.00     0.015 C 
ATOM     13  C   UNL d   1      35.186 -21.077   6.221  0.00  0.00     0.001 C 
ATOM     14  C   UNL d   1      35.476 -22.177   7.018  0.00  0.00     0.000 C 
ATOM     15  C   UNL d   1      34.446 -23.032   7.418  0.00  0.00     0.001 C 
ATOM     16  C   UNL d   1      33.127 -22.823   6.979  0.00  0.00     0.015 C 
ENDBRANCH   7  11
ENDBRANCH   3   7
BRANCH   4  17
ATOM     17  C   UNL d   1      31.549 -21.441   1.052  0.00  0.00     0.036 A 
ATOM     18  C   UNL d   1      32.378 -21.889   0.015  0.00  0.00     0.031 A 
ATOM     19  C   UNL d   1      31.918 -22.871  -0.869  0.00  0.00     0.026 A 
ATOM     20  C   UNL d   1      30.646 -23.417  -0.695  0.00  0.00     0.034 A 
ATOM     21 CL   UNL d   1      30.116 -24.711  -1.693  0.00  0.00    -0.084 Cl
ATOM     22  C   UNL d   1      29.805 -22.935   0.303  0.00  0.00     0.026 A 
ATOM     23  C   UNL d   1      30.249 -21.931   1.158  0.00  0.00     0.031 A 
ENDBRANCH   4  17
TORSDOF 4
ENDMDL
MODEL 3
REMARK VINA RESULT:    -7.251      4.244      6.701
REMARK INTER + INTRA:          -9.148
REMARK INTER:                  -8.444
REMARK INTRA:                  -0.705
REMARK CONF_INDEPENDENT:        1.193
REMARK UNBOUND:                -0.705
REMARK  4 active torsions:
REMARK  status: ('A' for Active; 'I' for Inactive)
REMARK       I    between atoms: C_2  and  N_3 
REMARK       I    between atoms: C_2  and  N_13 
REMARK    1  A    between atoms: N_3  and  C_4 
REMARK    2  A    between atoms: C_4  and  C_7 
REMARK    3  A    between atoms: N_5  and  O_6 
REMARK    4  A    between atoms: N_13  and  C_14 
ROOT
ATOM      1  O   UNL d   1      27.586 -13.524  -5.804  0.00  0.00    -0.247 OA
ATOM      2  C   UNL d   1      27.929 -14.653  -5.435  0.00  0.00     0.326 C 
ATOM      3  N   UNL d   1      27.216 -15.482  -4.581  0.00  0.00    -0.290 N 
ATOM      4  N   UNL d   1      29.168 -15.073  -5.855  0.00  0.00    -0.309 N 
ATOM      5  H   UNL d   1      27.664 -16.342  -4.313  0.00  0.00     0.172 HD
ATOM      6  H   UNL d   1      29.674 -14.332  -6.329  0.00  0.00     0.170 HD
ENDROOT
BRANCH   3   7
ATOM      7  C   UNL d   1      25.984 -15.190  -3.993  0.00  0.00     0.168 C 
ATOM      8  N   UNL d   1      25.149 -14.446  -4.656  0.00  0.00    -0.117 NA
BRANCH   8   9
ATOM      9  O   UNL d   1      24.011 -14.075  -3.939  0.00  0.00    -0.264 OA
ATOM     10  H   UNL d   1      23.417 -13.764  -4.645  0.00  0.00     0.247 HD
ENDBRANCH   8   9
BRANCH   7  11
ATOM     11  C   UNL d   1      25.713 -15.740  -2.611  0.00  0.00     0.012 C 
ATOM     12  C   UNL d   1      26.557 -15.343  -1.557  0.00  0.00     0.015 C 
ATOM     13  C   UNL d   1      26.602 -16.056  -0.359  0.00  0.00     0.001 C 
ATOM     14  C   UNL d   1      25.697 -17.086  -0.139  0.00  0.00     0.000 C 
ATOM     15  C   UNL d   1      24.771 -17.416  -1.131  0.00  0.00     0.001 C 
ATOM     16  C   UNL d   1      24.780 -16.755  -2.373  0.00  0.00     0.015 C 
ENDBRANCH   7  11
ENDBRANCH   3   7
BRANCH   4  17
ATOM     17  C   UNL d   1      29.784 -16.325  -5.785  0.00  0.00     0.036 A 
ATOM     18  C   UNL d   1      29.833 -17.002  -4.560  0.00  0.00     0.031 A 
ATOM     19  C   UNL d   1      30.451 -18.255  -4.481  0.00  0.00     0.026 A 
ATOM     20  C   UNL d   1      30.991 -18.833  -5.630  0.00  0.00     0.034 A 
ATOM     21 CL   UNL d   1      31.640 -20.423  -5.575  0.00  0.00    -0.084 Cl
ATOM     22  C   UNL d   1      30.988 -18.137  -6.835  0.00  0.00     0.026 A 
ATOM     23  C   UNL d   1      30.407 -16.875  -6.904  0.00  0.00     0.031 A 
ENDBRANCH   4  17
TORSDOF 4
ENDMDL
MODEL 4
REMARK VINA RESULT:    -7.128      1.734      2.487
REMARK INTER + INTRA:          -9.049
REMARK INTER:                  -8.322
REMARK INTRA:                  -0.727
REMARK CONF_INDEPENDENT:        1.193
REMARK UNBOUND:                -0.727
REMARK  4 active torsions:
REMARK  status: ('A' for Active; 'I' for Inactive)
REMARK       I    between atoms: C_2  and  N_3 
REMARK       I    between atoms: C_2  and  N_13 
REMARK    1  A    between atoms: N_3  and  C_4 
REMARK    2  A    between atoms: C_4  and  C_7 
REMARK    3  A    between atoms: N_5  and  O_6 
REMARK    4  A    between atoms: N_13  and  C_14 
ROOT
ATOM      1  O   UNL d   1      27.293 -15.405  -1.498  0.00  0.00    -0.247 OA
ATOM      2  C   UNL d   1      26.105 -15.696  -1.675  0.00  0.00     0.326 C 
ATOM      3  N   UNL d   1      25.283 -15.194  -2.674  0.00  0.00    -0.290 N 
ATOM      4  N   UNL d   1      25.543 -16.530  -0.739  0.00  0.00    -0.309 N 
ATOM      5  H   UNL d   1      24.317 -15.468  -2.641  0.00  0.00     0.172 HD
ATOM      6  H   UNL d   1      26.175 -16.702   0.037  0.00  0.00     0.170 HD
ENDROOT
BRANCH   3   7
ATOM      7  C   UNL d   1      25.657 -14.278  -3.660  0.00  0.00     0.168 C 
ATOM      8  N   UNL d   1      24.791 -13.378  -4.022  0.00  0.00    -0.117 NA
BRANCH   8   9
ATOM      9  O   UNL d   1      25.185 -12.603  -5.113  0.00  0.00    -0.264 OA
ATOM     10  H   UNL d   1      24.329 -12.331  -5.490  0.00  0.00     0.247 HD
ENDBRANCH   8   9
BRANCH   7  11
ATOM     11  C   UNL d   1      27.039 -14.410  -4.259  0.00  0.00     0.012 C 
ATOM     12  C   UNL d   1      28.057 -13.565  -3.779  0.00  0.00     0.015 C 
ATOM     13  C   UNL d   1      29.237 -13.373  -4.499  0.00  0.00     0.001 C 
ATOM     14  C   UNL d   1      29.480 -14.136  -5.634  0.00  0.00     0.000 C 
ATOM     15  C   UNL d   1      28.528 -15.066  -6.059  0.00  0.00     0.001 C 
ATOM     16  C   UNL d   1      27.302 -15.201  -5.382  0.00  0.00     0.015 C 
ENDBRANCH   7  11
ENDBRANCH   3   7
BRANCH   4  17
ATOM     17  C   UNL d   1      24.315 -17.195  -0.722  0.00  0.00     0.036 A 
ATOM     18  C   UNL d   1      24.285 -18.584  -0.540  0.00  0.00     0.031 A 
ATOM     19  C   UNL d   1      23.059 -19.258  -0.524  0.00  0.00     0.026 A 
ATOM     20  C   UNL d   1      21.873 -18.538  -0.663  0.00  0.00     0.034 A 
ATOM     21 CL   UNL d   1      20.356 -19.333  -0.520  0.00  0.00    -0.084 Cl
ATOM     22  C   UNL d   1      21.905 -17.166  -0.895  0.00  0.00     0.026 A 
ATOM     23  C   UNL d   1      23.127 -16.503  -0.949  0.00  0.00     0.031 A 
ENDBRANCH   4  17
TORSDOF 4
ENDMDL
MODEL 5
REMARK VINA RESULT:    -6.861      5.525      7.380
REMARK INTER + INTRA:          -8.722
REMARK INTER:                  -8.054
REMARK INTRA:                  -0.668
REMARK CONF_INDEPENDENT:        1.193
REMARK UNBOUND:                -0.668
REMARK  4 active torsions:
REMARK  status: ('A' for Active; 'I' for Inactive)
REMARK       I    between atoms: C_2  and  N_3 
REMARK       I    between atoms: C_2  and  N_13 
REMARK    1  A    between atoms: N_3  and  C_4 
REMARK    2  A    between atoms: C_4  and  C_7 
REMARK    3  A    between atoms: N_5  and  O_6 
REMARK    4  A    between atoms: N_13  and  C_14 
ROOT
ATOM      1  O   UNL d   1      26.719 -13.830   0.296  0.00  0.00    -0.247 OA
ATOM      2  C   UNL d   1      27.201 -14.254   1.352  0.00  0.00     0.326 C 
ATOM      3  N   UNL d   1      27.772 -15.503   1.543  0.00  0.00    -0.290 N 
ATOM      4  N   UNL d   1      27.077 -13.429   2.444  0.00  0.00    -0.309 N 
ATOM      5  H   UNL d   1      28.051 -15.731   2.482  0.00  0.00     0.172 HD
ATOM      6  H   UNL d   1      26.498 -12.620   2.239  0.00  0.00     0.170 HD
ENDROOT
BRANCH   3   7
ATOM      7  C   UNL d   1      27.909 -16.499   0.574  0.00  0.00     0.168 C 
ATOM      8  N   UNL d   1      29.109 -16.861   0.230  0.00  0.00    -0.117 NA
BRANCH   8   9
ATOM      9  O   UNL d   1      29.161 -17.745  -0.848  0.00  0.00    -0.264 OA
ATOM     10  H   UNL d   1      29.431 -18.575  -0.418  0.00  0.00     0.247 HD
ENDBRANCH   8   9
BRANCH   7  11
ATOM     11  C   UNL d   1      26.648 -17.075  -0.029  0.00  0.00     0.012 C 
ATOM     12  C   UNL d   1      26.119 -16.462  -1.181  0.00  0.00     0.015 C 
ATOM     13  C   UNL d   1      24.804 -16.695  -1.585  0.00  0.00     0.001 C 
ATOM     14  C   UNL d   1      24.046 -17.657  -0.931  0.00  0.00     0.000 C 
ATOM     15  C   UNL d   1      24.597 -18.361   0.142  0.00  0.00     0.001 C 
ATOM     16  C   UNL d   1      25.893 -18.068   0.604  0.00  0.00     0.015 C 
ENDBRANCH   7  11
ENDBRANCH   3   7
BRANCH   4  17
ATOM     17  C   UNL d   1      27.648 -13.500   3.717  0.00  0.00     0.036 A 
ATOM     18  C   UNL d   1      28.123 -12.331   4.325  0.00  0.00     0.031 A 
ATOM     19  C   UNL d   1      28.699 -12.393   5.599  0.00  0.00     0.026 A 
ATOM     20  C   UNL d   1      28.771 -13.616   6.265  0.00  0.00     0.034 A 
ATOM     21 CL   UNL d   1      29.360 -13.690   7.878  0.00  0.00    -0.084 Cl
ATOM     22  C   UNL d   1      28.346 -14.784   5.640  0.00  0.00     0.026 A 
ATOM     23  C   UNL d   1      27.809 -14.726   4.357  0.00  0.00     0.031 A 
ENDBRANCH   4  17
TORSDOF 4
ENDMDL
MODEL 6
REMARK VINA RESULT:    -6.859      4.386      6.723
REMARK INTER + INTRA:          -8.741
REMARK INTER:                  -8.052
REMARK INTRA:                  -0.689
REMARK CONF_INDEPENDENT:        1.193
REMARK UNBOUND:                -0.689
REMARK  4 active torsions:
REMARK  status: ('A' for Active; 'I' for Inactive)
REMARK       I    between atoms: C_2  and  N_3 
REMARK       I    between atoms: C_2  and  N_13 
REMARK    1  A    between atoms: N_3  and  C_4 
REMARK    2  A    between atoms: C_4  and  C_7 
REMARK    3  A    between atoms: N_5  and  O_6 
REMARK    4  A    between atoms: N_13  and  C_14 
ROOT
ATOM      1  O   UNL d   1      27.762 -17.111  -0.004  0.00  0.00    -0.247 OA
ATOM      2  C   UNL d   1      27.461 -15.977   0.384  0.00  0.00     0.326 C 
ATOM      3  N   UNL d   1      26.470 -15.169  -0.154  0.00  0.00    -0.290 N 
ATOM      4  N   UNL d   1      28.242 -15.456   1.386  0.00  0.00    -0.309 N 
ATOM      5  H   UNL d   1      26.395 -14.240   0.221  0.00  0.00     0.172 HD
ATOM      6  H   UNL d   1      29.038 -16.053   1.590  0.00  0.00     0.170 HD
ENDROOT
BRANCH   3   7
ATOM      7  C   UNL d   1      25.635 -15.498  -1.225  0.00  0.00     0.168 C 
ATOM      8  N   UNL d   1      25.749 -14.814  -2.325  0.00  0.00    -0.117 NA
BRANCH   8   9
ATOM      9  O   UNL d   1      24.780 -15.101  -3.287  0.00  0.00    -0.264 OA
ATOM     10  H   UNL d   1      24.861 -14.342  -3.891  0.00  0.00     0.247 HD
ENDBRANCH   8   9
BRANCH   7  11
ATOM     11  C   UNL d   1      24.635 -16.613  -1.023  0.00  0.00     0.012 C 
ATOM     12  C   UNL d   1      23.264 -16.291  -1.038  0.00  0.00     0.015 C 
ATOM     13  C   UNL d   1      22.310 -17.167  -0.520  0.00  0.00     0.001 C 
ATOM     14  C   UNL d   1      22.694 -18.438  -0.114  0.00  0.00     0.000 C 
ATOM     15  C   UNL d   1      24.036 -18.817  -0.203  0.00  0.00     0.001 C 
ATOM     16  C   UNL d   1      25.012 -17.906  -0.646  0.00  0.00     0.015 C 
ENDBRANCH   7  11
ENDBRANCH   3   7
BRANCH   4  17
ATOM     17  C   UNL d   1      28.084 -14.312   2.173  0.00  0.00     0.036 A 
ATOM     18  C   UNL d   1      28.014 -14.439   3.566  0.00  0.00     0.031 A 
ATOM     19  C   UNL d   1      27.852 -13.298   4.361  0.00  0.00     0.026 A 
ATOM     20  C   UNL d   1      27.789 -12.041   3.761  0.00  0.00     0.034 A 
ATOM     21 CL   UNL d   1      27.718 -10.623   4.729  0.00  0.00    -0.084 Cl
ATOM     22  C   UNL d   1      27.807 -11.921   2.375  0.00  0.00     0.026 A 
ATOM     23  C   UNL d   1      27.929 -13.059   1.584  0.00  0.00     0.031 A 
ENDBRANCH   4  17
TORSDOF 4
ENDMDL
MODEL 7
REMARK VINA RESULT:    -6.598      1.580      2.271
REMARK INTER + INTRA:          -8.443
REMARK INTER:                  -7.791
REMARK INTRA:                  -0.652
REMARK CONF_INDEPENDENT:        1.193
REMARK UNBOUND:                -0.652
REMARK  4 active torsions:
REMARK  status: ('A' for Active; 'I' for Inactive)
REMARK       I    between atoms: C_2  and  N_3 
REMARK       I    between atoms: C_2  and  N_13 
REMARK    1  A    between atoms: N_3  and  C_4 
REMARK    2  A    between atoms: C_4  and  C_7 
REMARK    3  A    between atoms: N_5  and  O_6 
REMARK    4  A    between atoms: N_13  and  C_14 
ROOT
ATOM      1  O   UNL d   1      27.215 -16.045  -1.522  0.00  0.00    -0.247 OA
ATOM      2  C   UNL d   1      25.987 -16.165  -1.586  0.00  0.00     0.326 C 
ATOM      3  N   UNL d   1      25.128 -15.365  -2.326  0.00  0.00    -0.290 N 
ATOM      4  N   UNL d   1      25.434 -17.133  -0.783  0.00  0.00    -0.309 N 
ATOM      5  H   UNL d   1      24.145 -15.541  -2.215  0.00  0.00     0.172 HD
ATOM      6  H   UNL d   1      26.124 -17.542  -0.160  0.00  0.00     0.170 HD
ENDROOT
BRANCH   3   7
ATOM      7  C   UNL d   1      25.501 -14.288  -3.132  0.00  0.00     0.168 C 
ATOM      8  N   UNL d   1      24.823 -14.072  -4.221  0.00  0.00    -0.117 NA
BRANCH   8   9
ATOM      9  O   UNL d   1      25.353 -13.078  -5.044  0.00  0.00    -0.264 OA
ATOM     10  H   UNL d   1      24.738 -12.338  -4.893  0.00  0.00     0.247 HD
ENDBRANCH   8   9
BRANCH   7  11
ATOM     11  C   UNL d   1      26.685 -13.457  -2.696  0.00  0.00     0.012 C 
ATOM     12  C   UNL d   1      27.919 -13.661  -3.343  0.00  0.00     0.015 C 
ATOM     13  C   UNL d   1      29.114 -13.211  -2.782  0.00  0.00     0.001 C 
ATOM     14  C   UNL d   1      29.080 -12.419  -1.642  0.00  0.00     0.000 C 
ATOM     15  C   UNL d   1      27.853 -12.107  -1.052  0.00  0.00     0.001 C 
ATOM     16  C   UNL d   1      26.654 -12.631  -1.567  0.00  0.00     0.015 C 
ENDBRANCH   7  11
ENDBRANCH   3   7
BRANCH   4  17
ATOM     17  C   UNL d   1      24.140 -17.657  -0.736  0.00  0.00     0.036 A 
ATOM     18  C   UNL d   1      23.959 -19.030  -0.529  0.00  0.00     0.031 A 
ATOM     19  C   UNL d   1      22.666 -19.564  -0.483  0.00  0.00     0.026 A 
ATOM     20  C   UNL d   1      21.565 -18.718  -0.617  0.00  0.00     0.034 A 
ATOM     21 CL   UNL d   1      19.972 -19.337  -0.437  0.00  0.00    -0.084 Cl
ATOM     22  C   UNL d   1      21.746 -17.362  -0.873  0.00  0.00     0.026 A 
ATOM     23  C   UNL d   1      23.033 -16.840  -0.957  0.00  0.00     0.031 A 
ENDBRANCH   4  17
TORSDOF 4
ENDMDL
MODEL 8
REMARK VINA RESULT:    -6.584      3.819      7.181
REMARK INTER + INTRA:          -8.479
REMARK INTER:                  -7.778
REMARK INTRA:                  -0.701
REMARK CONF_INDEPENDENT:        1.193
REMARK UNBOUND:                -0.701
REMARK  4 active torsions:
REMARK  status: ('A' for Active; 'I' for Inactive)
REMARK       I    between atoms: C_2  and  N_3 
REMARK       I    between atoms: C_2  and  N_13 
REMARK    1  A    between atoms: N_3  and  C_4 
REMARK    2  A    between atoms: C_4  and  C_7 
REMARK    3  A    between atoms: N_5  and  O_6 
REMARK    4  A    between atoms: N_13  and  C_14 
ROOT
ATOM      1  O   UNL d   1      24.525 -14.244  -3.751  0.00  0.00    -0.247 OA
ATOM      2  C   UNL d   1      25.743 -14.428  -3.837  0.00  0.00     0.326 C 
ATOM      3  N   UNL d   1      26.597 -14.739  -2.788  0.00  0.00    -0.290 N 
ATOM      4  N   UNL d   1      26.297 -14.221  -5.077  0.00  0.00    -0.309 N 
ATOM      5  H   UNL d   1      27.577 -14.782  -3.005  0.00  0.00     0.172 HD
ATOM      6  H   UNL d   1      25.622 -13.835  -5.730  0.00  0.00     0.170 HD
ENDROOT
BRANCH   3   7
ATOM      7  C   UNL d   1      26.226 -14.905  -1.452  0.00  0.00     0.168 C 
ATOM      8  N   UNL d   1      26.546 -13.972  -0.605  0.00  0.00    -0.117 NA
BRANCH   8   9
ATOM      9  O   UNL d   1      26.278 -14.284   0.728  0.00  0.00    -0.264 OA
ATOM     10  H   UNL d   1      26.988 -13.811   1.196  0.00  0.00     0.247 HD
ENDBRANCH   8   9
BRANCH   7  11
ATOM     11  C   UNL d   1      25.497 -16.174  -1.074  0.00  0.00     0.012 C 
ATOM     12  C   UNL d   1      24.110 -16.240  -1.303  0.00  0.00     0.015 C 
ATOM     13  C   UNL d   1      23.318 -17.203  -0.676  0.00  0.00     0.001 C 
ATOM     14  C   UNL d   1      23.921 -18.206   0.072  0.00  0.00     0.000 C 
ATOM     15  C   UNL d   1      25.311 -18.223   0.212  0.00  0.00     0.001 C 
ATOM     16  C   UNL d   1      26.103 -17.206  -0.349  0.00  0.00     0.015 C 
ENDBRANCH   7  11
ENDBRANCH   3   7
BRANCH   4  17
ATOM     17  C   UNL d   1      27.573 -14.505  -5.571  0.00  0.00     0.036 A 
ATOM     18  C   UNL d   1      28.299 -15.575  -5.032  0.00  0.00     0.031 A 
ATOM     19  C   UNL d   1      29.579 -15.864  -5.519  0.00  0.00     0.026 A 
ATOM     20  C   UNL d   1      30.111 -15.101  -6.558  0.00  0.00     0.034 A 
ATOM     21 CL   UNL d   1      31.626 -15.521  -7.251  0.00  0.00    -0.084 Cl
ATOM     22  C   UNL d   1      29.411 -14.007  -7.058  0.00  0.00     0.026 A 
ATOM     23  C   UNL d   1      28.155 -13.697  -6.546  0.00  0.00     0.031 A 
ENDBRANCH   4  17
TORSDOF 4
ENDMDL
MODEL 9
REMARK VINA RESULT:    -6.342      4.488      5.973
REMARK INTER + INTRA:          -8.335
REMARK INTER:                  -7.536
REMARK INTRA:                  -0.800
REMARK CONF_INDEPENDENT:        1.193
REMARK UNBOUND:                -0.800
REMARK  4 active torsions:
REMARK  status: ('A' for Active; 'I' for Inactive)
REMARK       I    between atoms: C_2  and  N_3 
REMARK       I    between atoms: C_2  and  N_13 
REMARK    1  A    between atoms: N_3  and  C_4 
REMARK    2  A    between atoms: C_4  and  C_7 
REMARK    3  A    between atoms: N_5  and  O_6 
REMARK    4  A    between atoms: N_13  and  C_14 
ROOT
ATOM      1  O   UNL d   1      28.941 -14.815  -0.071  0.00  0.00    -0.247 OA
ATOM      2  C   UNL d   1      27.780 -15.141   0.199  0.00  0.00     0.326 C 
ATOM      3  N   UNL d   1      26.960 -14.531   1.137  0.00  0.00    -0.290 N 
ATOM      4  N   UNL d   1      27.305 -16.260  -0.441  0.00  0.00    -0.309 N 
ATOM      5  H   UNL d   1      26.066 -14.960   1.298  0.00  0.00     0.172 HD
ATOM      6  H   UNL d   1      28.035 -16.726  -0.972  0.00  0.00     0.170 HD
ENDROOT
BRANCH   3   7
ATOM      7  C   UNL d   1      27.300 -13.438   1.937  0.00  0.00     0.168 C 
ATOM      8  N   UNL d   1      26.970 -12.250   1.525  0.00  0.00    -0.117 NA
BRANCH   8   9
ATOM      9  O   UNL d   1      27.479 -11.207   2.300  0.00  0.00    -0.264 OA
ATOM     10  H   UNL d   1      28.434 -11.394   2.293  0.00  0.00     0.247 HD
ENDBRANCH   8   9
BRANCH   7  11
ATOM     11  C   UNL d   1      28.053 -13.709   3.219  0.00  0.00     0.012 C 
ATOM     12  C   UNL d   1      29.451 -13.860   3.152  0.00  0.00     0.015 C 
ATOM     13  C   UNL d   1      30.166 -14.450   4.196  0.00  0.00     0.001 C 
ATOM     14  C   UNL d   1      29.514 -14.761   5.383  0.00  0.00     0.000 C 
ATOM     15  C   UNL d   1      28.147 -14.508   5.508  0.00  0.00     0.001 C 
ATOM     16  C   UNL d   1      27.409 -13.992   4.428  0.00  0.00     0.015 C 
ENDBRANCH   7  11
ENDBRANCH   3   7
BRANCH   4  17
ATOM     17  C   UNL d   1      26.017 -16.797  -0.516  0.00  0.00     0.036 A 
ATOM     18  C   UNL d   1      24.995 -16.054  -1.121  0.00  0.00     0.031 A 
ATOM     19  C   UNL d   1      23.702 -16.583  -1.198  0.00  0.00     0.026 A 
ATOM     20  C   UNL d   1      23.447 -17.859  -0.696  0.00  0.00     0.034 A 
ATOM     21 CL   UNL d   1      21.897 -18.573  -0.896  0.00  0.00    -0.084 Cl
ATOM     22  C   UNL d   1      24.450 -18.575  -0.050  0.00  0.00     0.026 A 
ATOM     23  C   UNL d   1      25.726 -18.031   0.060  0.00  0.00     0.031 A 
ENDBRANCH   4  17
TORSDOF 4
ENDMDL
