MODEL 1
REMARK VINA RESULT:    -7.258      0.000      0.000
REMARK INTER + INTRA:          -8.933
REMARK INTER:                  -8.153
REMARK INTRA:                  -0.780
REMARK CONF_INDEPENDENT:        0.895
REMARK UNBOUND:                -0.780
REMARK  3 active torsions:
REMARK  status: ('A' for Active; 'I' for Inactive)
REMARK       I    between atoms: C_2  and  N_3 
REMARK    1  A    between atoms: C_15  and  C_2 
REMARK    2  A    between atoms: N_3  and  N_4 
REMARK    3  A    between atoms: C_5  and  C_6 
ROOT
ATOM      1  N   UNL d   1      28.092 -14.341   0.399  0.00  0.00    -0.184 NA
ATOM      2  C   UNL d   1      27.431 -15.087  -0.446  0.00  0.00     0.152 C 
ENDROOT
BRANCH   1   3
ATOM      3  N   UNL d   1      28.339 -14.813   1.675  0.00  0.00    -0.247 N 
ATOM      4  C   UNL d   1      27.732 -14.283   2.806  0.00  0.00     0.242 C 
ATOM      5  O   UNL d   1      26.963 -13.326   2.793  0.00  0.00    -0.271 OA
ATOM      6  H   UNL d   1      28.997 -15.573   1.791  0.00  0.00     0.192 HD
BRANCH   4   7
ATOM      7  C   UNL d   1      28.153 -14.978   4.082  0.00  0.00     0.088 A 
ATOM      8  C   UNL d   1      28.075 -14.381   5.485  0.00  0.00     0.004 A 
ATOM      9  C   UNL d   1      27.757 -12.965   5.853  0.00  0.00     0.006 C 
ATOM     10  C   UNL d   1      29.422 -14.710   4.892  0.00  0.00     0.004 A 
ATOM     11  C   UNL d   1      28.646 -11.928   5.184  0.00  0.00     0.000 C 
ATOM     12  C   UNL d   1      30.119 -12.309   5.262  0.00  0.00     0.000 C 
ATOM     13  C   UNL d   1      30.405 -13.631   4.557  0.00  0.00     0.006 C 
ENDBRANCH   4   7
ENDBRANCH   1   3
BRANCH   2  14
ATOM     14  C   UNL d   1      26.831 -16.371  -0.128  0.00  0.00     0.011 A 
ATOM     15  C   UNL d   1      27.454 -17.488   0.397  0.00  0.00     0.102 A 
ATOM     16  N   UNL d   1      26.481 -18.429   0.662  0.00  0.00    -0.364 N 
ATOM     17  C   UNL d   1      25.257 -17.984   0.211  0.00  0.00     0.043 A 
ATOM     18  H   UNL d   1      26.641 -19.321   1.113  0.00  0.00     0.165 HD
ATOM     19  C   UNL d   1      23.988 -18.576   0.229  0.00  0.00     0.030 A 
ATOM     20  C   UNL d   1      25.467 -16.722  -0.335  0.00  0.00     0.004 A 
ATOM     21  C   UNL d   1      22.927 -17.853  -0.341  0.00  0.00     0.002 A 
ATOM     22  C   UNL d   1      23.119 -16.593  -0.896  0.00  0.00     0.001 A 
ATOM     23  C   UNL d   1      24.386 -16.029  -0.912  0.00  0.00     0.014 A 
ENDBRANCH   2  14
TORSDOF 3
ENDMDL
MODEL 2
REMARK VINA RESULT:    -6.876      1.914      7.372
REMARK INTER + INTRA:          -8.164
REMARK INTER:                  -7.771
REMARK INTRA:                  -0.393
REMARK CONF_INDEPENDENT:        0.895
REMARK UNBOUND:                -0.393
REMARK  3 active torsions:
REMARK  status: ('A' for Active; 'I' for Inactive)
REMARK       I    between atoms: C_2  and  N_3 
REMARK    1  A    between atoms: C_15  and  C_2 
REMARK    2  A    between atoms: N_3  and  N_4 
REMARK    3  A    between atoms: C_5  and  C_6 
ROOT
ATOM      1  N   UNL d   1      27.418 -12.919   2.254  0.00  0.00    -0.184 NA
ATOM      2  C   UNL d   1      27.418 -12.581   3.516  0.00  0.00     0.152 C 
ENDROOT
BRANCH   1   3
ATOM      3  N   UNL d   1      27.755 -14.211   1.895  0.00  0.00    -0.247 N 
ATOM      4  C   UNL d   1      27.123 -14.897   0.866  0.00  0.00     0.242 C 
ATOM      5  O   UNL d   1      26.185 -14.450   0.212  0.00  0.00    -0.271 OA
ATOM      6  H   UNL d   1      28.488 -14.682   2.411  0.00  0.00     0.192 HD
BRANCH   4   7
ATOM      7  C   UNL d   1      27.678 -16.289   0.657  0.00  0.00     0.088 A 
ATOM      8  C   UNL d   1      27.773 -17.014  -0.683  0.00  0.00     0.004 A 
ATOM      9  C   UNL d   1      27.179 -16.589  -1.990  0.00  0.00     0.006 C 
ATOM     10  C   UNL d   1      26.874 -17.563   0.397  0.00  0.00     0.004 A 
ATOM     11  C   UNL d   1      25.681 -16.331  -1.945  0.00  0.00     0.000 C 
ATOM     12  C   UNL d   1      24.937 -17.445  -1.220  0.00  0.00     0.000 C 
ATOM     13  C   UNL d   1      25.386 -17.583   0.231  0.00  0.00     0.006 C 
ENDBRANCH   4   7
ENDBRANCH   1   3
BRANCH   2  14
ATOM     14  C   UNL d   1      27.847 -13.441   4.606  0.00  0.00     0.011 A 
ATOM     15  C   UNL d   1      27.965 -14.818   4.598  0.00  0.00     0.102 A 
ATOM     16  N   UNL d   1      28.530 -15.200   5.797  0.00  0.00    -0.364 N 
ATOM     17  C   UNL d   1      28.672 -14.106   6.624  0.00  0.00     0.043 A 
ATOM     18  H   UNL d   1      28.795 -16.146   6.042  0.00  0.00     0.165 HD
ATOM     19  C   UNL d   1      29.167 -13.983   7.927  0.00  0.00     0.030 A 
ATOM     20  C   UNL d   1      28.199 -13.007   5.915  0.00  0.00     0.004 A 
ATOM     21  C   UNL d   1      29.157 -12.704   8.507  0.00  0.00     0.002 A 
ATOM     22  C   UNL d   1      28.683 -11.594   7.817  0.00  0.00     0.001 A 
ATOM     23  C   UNL d   1      28.188 -11.740   6.530  0.00  0.00     0.014 A 
ENDBRANCH   2  14
TORSDOF 3
ENDMDL
MODEL 3
REMARK VINA RESULT:    -6.720      3.645      6.375
REMARK INTER + INTRA:          -8.750
REMARK INTER:                  -7.615
REMARK INTRA:                  -1.135
REMARK CONF_INDEPENDENT:        0.895
REMARK UNBOUND:                -1.135
REMARK  3 active torsions:
REMARK  status: ('A' for Active; 'I' for Inactive)
REMARK       I    between atoms: C_2  and  N_3 
REMARK    1  A    between atoms: C_15  and  C_2 
REMARK    2  A    between atoms: N_3  and  N_4 
REMARK    3  A    between atoms: C_5  and  C_6 
ROOT
ATOM      1  N   UNL d   1      26.827 -14.415  -0.459  0.00  0.00    -0.184 NA
ATOM      2  C   UNL d   1      26.855 -15.373   0.429  0.00  0.00     0.152 C 
ENDROOT
BRANCH   1   3
ATOM      3  N   UNL d   1      26.219 -14.637  -1.681  0.00  0.00    -0.247 N 
ATOM      4  C   UNL d   1      26.759 -15.471  -2.652  0.00  0.00     0.242 C 
ATOM      5  O   UNL d   1      27.837 -16.049  -2.544  0.00  0.00    -0.271 OA
ATOM      6  H   UNL d   1      25.346 -14.166  -1.881  0.00  0.00     0.192 HD
BRANCH   4   7
ATOM      7  C   UNL d   1      25.901 -15.563  -3.895  0.00  0.00     0.088 A 
ATOM      8  C   UNL d   1      26.346 -15.199  -5.309  0.00  0.00     0.004 A 
ATOM      9  C   UNL d   1      27.616 -14.518  -5.714  0.00  0.00     0.006 C 
ATOM     10  C   UNL d   1      25.253 -14.399  -4.645  0.00  0.00     0.004 A 
ATOM     11  C   UNL d   1      27.866 -13.189  -5.019  0.00  0.00     0.000 C 
ATOM     12  C   UNL d   1      26.623 -12.308  -5.018  0.00  0.00     0.000 C 
ATOM     13  C   UNL d   1      25.459 -12.961  -4.279  0.00  0.00     0.006 C 
ENDBRANCH   4   7
ENDBRANCH   1   3
BRANCH   2  14
ATOM     14  C   UNL d   1      26.372 -16.725   0.207  0.00  0.00     0.011 A 
ATOM     15  C   UNL d   1      27.088 -17.904   0.303  0.00  0.00     0.102 A 
ATOM     16  N   UNL d   1      26.204 -18.950   0.141  0.00  0.00    -0.364 N 
ATOM     17  C   UNL d   1      24.952 -18.467  -0.172  0.00  0.00     0.043 A 
ATOM     18  H   UNL d   1      26.439 -19.930   0.230  0.00  0.00     0.165 HD
ATOM     19  C   UNL d   1      23.745 -19.121  -0.447  0.00  0.00     0.030 A 
ATOM     20  C   UNL d   1      25.052 -17.080  -0.190  0.00  0.00     0.004 A 
ATOM     21  C   UNL d   1      22.631 -18.324  -0.758  0.00  0.00     0.002 A 
ATOM     22  C   UNL d   1      22.713 -16.936  -0.785  0.00  0.00     0.001 A 
ATOM     23  C   UNL d   1      23.921 -16.309  -0.520  0.00  0.00     0.014 A 
ENDBRANCH   2  14
TORSDOF 3
ENDMDL
MODEL 4
REMARK VINA RESULT:    -6.689      4.865      7.506
REMARK INTER + INTRA:          -8.375
REMARK INTER:                  -7.584
REMARK INTRA:                  -0.791
REMARK CONF_INDEPENDENT:        0.895
REMARK UNBOUND:                -0.791
REMARK  3 active torsions:
REMARK  status: ('A' for Active; 'I' for Inactive)
REMARK       I    between atoms: C_2  and  N_3 
REMARK    1  A    between atoms: C_15  and  C_2 
REMARK    2  A    between atoms: N_3  and  N_4 
REMARK    3  A    between atoms: C_5  and  C_6 
ROOT
ATOM      1  N   UNL d   1      25.036 -13.777  -4.080  0.00  0.00    -0.184 NA
ATOM      2  C   UNL d   1      24.533 -14.452  -3.080  0.00  0.00     0.152 C 
ENDROOT
BRANCH   1   3
ATOM      3  N   UNL d   1      26.390 -13.865  -4.347  0.00  0.00    -0.247 N 
ATOM      4  C   UNL d   1      26.929 -14.814  -5.206  0.00  0.00     0.242 C 
ATOM      5  O   UNL d   1      26.274 -15.686  -5.770  0.00  0.00    -0.271 OA
ATOM      6  H   UNL d   1      27.018 -13.216  -3.889  0.00  0.00     0.192 HD
BRANCH   4   7
ATOM      7  C   UNL d   1      28.431 -14.699  -5.345  0.00  0.00     0.088 A 
ATOM      8  C   UNL d   1      29.240 -13.413  -5.193  0.00  0.00     0.004 A 
ATOM      9  C   UNL d   1      28.713 -12.018  -5.071  0.00  0.00     0.006 C 
ATOM     10  C   UNL d   1      29.196 -14.110  -6.531  0.00  0.00     0.004 A 
ATOM     11  C   UNL d   1      27.778 -11.598  -6.195  0.00  0.00     0.000 C 
ATOM     12  C   UNL d   1      28.336 -11.969  -7.563  0.00  0.00     0.000 C 
ATOM     13  C   UNL d   1      28.530 -13.475  -7.712  0.00  0.00     0.006 C 
ENDBRANCH   4   7
ENDBRANCH   1   3
BRANCH   2  14
ATOM     14  C   UNL d   1      25.307 -15.236  -2.134  0.00  0.00     0.011 A 
ATOM     15  C   UNL d   1      26.613 -15.026  -1.732  0.00  0.00     0.102 A 
ATOM     16  N   UNL d   1      26.896 -15.927  -0.727  0.00  0.00    -0.364 N 
ATOM     17  C   UNL d   1      25.836 -16.789  -0.552  0.00  0.00     0.043 A 
ATOM     18  H   UNL d   1      27.759 -15.958  -0.198  0.00  0.00     0.165 HD
ATOM     19  C   UNL d   1      25.650 -17.872   0.316  0.00  0.00     0.030 A 
ATOM     20  C   UNL d   1      24.855 -16.407  -1.461  0.00  0.00     0.004 A 
ATOM     21  C   UNL d   1      24.437 -18.574   0.228  0.00  0.00     0.002 A 
ATOM     22  C   UNL d   1      23.447 -18.209  -0.678  0.00  0.00     0.001 A 
ATOM     23  C   UNL d   1      23.656 -17.140  -1.536  0.00  0.00     0.014 A 
ENDBRANCH   2  14
TORSDOF 3
ENDMDL
MODEL 5
REMARK VINA RESULT:    -6.392      4.256      6.925
REMARK INTER + INTRA:          -8.865
REMARK INTER:                  -7.287
REMARK INTRA:                  -1.577
REMARK CONF_INDEPENDENT:        0.895
REMARK UNBOUND:                -1.577
REMARK  3 active torsions:
REMARK  status: ('A' for Active; 'I' for Inactive)
REMARK       I    between atoms: C_2  and  N_3 
REMARK    1  A    between atoms: C_15  and  C_2 
REMARK    2  A    between atoms: N_3  and  N_4 
REMARK    3  A    between atoms: C_5  and  C_6 
ROOT
ATOM      1  N   UNL d   1      24.711 -14.045  -4.248  0.00  0.00    -0.184 NA
ATOM      2  C   UNL d   1      24.497 -14.450  -3.025  0.00  0.00     0.152 C 
ENDROOT
BRANCH   1   3
ATOM      3  N   UNL d   1      26.010 -13.864  -4.688  0.00  0.00    -0.247 N 
ATOM      4  C   UNL d   1      26.708 -14.834  -5.395  0.00  0.00     0.242 C 
ATOM      5  O   UNL d   1      26.267 -15.950  -5.656  0.00  0.00    -0.271 OA
ATOM      6  H   UNL d   1      26.475 -12.991  -4.478  0.00  0.00     0.192 HD
BRANCH   4   7
ATOM      7  C   UNL d   1      28.105 -14.395  -5.776  0.00  0.00     0.088 A 
ATOM      8  C   UNL d   1      29.383 -15.193  -5.532  0.00  0.00     0.004 A 
ATOM      9  C   UNL d   1      29.533 -16.441  -4.719  0.00  0.00     0.006 C 
ATOM     10  C   UNL d   1      29.187 -13.871  -4.832  0.00  0.00     0.004 A 
ATOM     11  C   UNL d   1      29.028 -16.325  -3.289  0.00  0.00     0.000 C 
ATOM     12  C   UNL d   1      29.514 -15.046  -2.620  0.00  0.00     0.000 C 
ATOM     13  C   UNL d   1      29.023 -13.798  -3.346  0.00  0.00     0.006 C 
ENDBRANCH   4   7
ENDBRANCH   1   3
BRANCH   2  14
ATOM     14  C   UNL d   1      25.530 -14.642  -2.021  0.00  0.00     0.011 A 
ATOM     15  C   UNL d   1      26.480 -13.731  -1.602  0.00  0.00     0.102 A 
ATOM     16  N   UNL d   1      27.166 -14.291  -0.544  0.00  0.00    -0.364 N 
ATOM     17  C   UNL d   1      26.753 -15.591  -0.348  0.00  0.00     0.043 A 
ATOM     18  H   UNL d   1      27.876 -13.822   0.004  0.00  0.00     0.165 HD
ATOM     19  C   UNL d   1      27.156 -16.566   0.572  0.00  0.00     0.030 A 
ATOM     20  C   UNL d   1      25.769 -15.845  -1.298  0.00  0.00     0.004 A 
ATOM     21  C   UNL d   1      26.539 -17.826   0.494  0.00  0.00     0.002 A 
ATOM     22  C   UNL d   1      25.558 -18.100  -0.451  0.00  0.00     0.001 A 
ATOM     23  C   UNL d   1      25.181 -17.123  -1.360  0.00  0.00     0.014 A 
ENDBRANCH   2  14
TORSDOF 3
ENDMDL
MODEL 6
REMARK VINA RESULT:    -6.091      4.432      6.593
REMARK INTER + INTRA:          -8.310
REMARK INTER:                  -6.985
REMARK INTRA:                  -1.324
REMARK CONF_INDEPENDENT:        0.895
REMARK UNBOUND:                -1.324
REMARK  3 active torsions:
REMARK  status: ('A' for Active; 'I' for Inactive)
REMARK       I    between atoms: C_2  and  N_3 
REMARK    1  A    between atoms: C_15  and  C_2 
REMARK    2  A    between atoms: N_3  and  N_4 
REMARK    3  A    between atoms: C_5  and  C_6 
ROOT
ATOM      1  N   UNL d   1      29.124 -16.805  -1.529  0.00  0.00    -0.184 NA
ATOM      2  C   UNL d   1      28.194 -16.644  -0.626  0.00  0.00     0.152 C 
ENDROOT
BRANCH   1   3
ATOM      3  N   UNL d   1      28.849 -16.502  -2.851  0.00  0.00    -0.247 N 
ATOM      4  C   UNL d   1      28.880 -15.206  -3.349  0.00  0.00     0.242 C 
ATOM      5  O   UNL d   1      29.104 -14.209  -2.667  0.00  0.00    -0.271 OA
ATOM      6  H   UNL d   1      28.607 -17.256  -3.480  0.00  0.00     0.192 HD
BRANCH   4   7
ATOM      7  C   UNL d   1      28.557 -15.134  -4.825  0.00  0.00     0.088 A 
ATOM      8  C   UNL d   1      27.968 -13.924  -5.546  0.00  0.00     0.004 A 
ATOM      9  C   UNL d   1      27.427 -12.673  -4.928  0.00  0.00     0.006 C 
ATOM     10  C   UNL d   1      27.168 -15.201  -5.461  0.00  0.00     0.004 A 
ATOM     11  C   UNL d   1      26.341 -12.904  -3.889  0.00  0.00     0.000 C 
ATOM     12  C   UNL d   1      25.294 -13.898  -4.376  0.00  0.00     0.000 C 
ATOM     13  C   UNL d   1      25.899 -15.267  -4.670  0.00  0.00     0.006 C 
ENDBRANCH   4   7
ENDBRANCH   1   3
BRANCH   2  14
ATOM     14  C   UNL d   1      26.823 -16.255  -0.907  0.00  0.00     0.011 A 
ATOM     15  C   UNL d   1      26.372 -15.042  -1.393  0.00  0.00     0.102 A 
ATOM     16  N   UNL d   1      25.018 -15.159  -1.632  0.00  0.00    -0.364 N 
ATOM     17  C   UNL d   1      24.566 -16.387  -1.201  0.00  0.00     0.043 A 
ATOM     18  H   UNL d   1      24.437 -14.446  -2.054  0.00  0.00     0.165 HD
ATOM     19  C   UNL d   1      23.290 -16.963  -1.204  0.00  0.00     0.030 A 
ATOM     20  C   UNL d   1      25.671 -17.064  -0.694  0.00  0.00     0.004 A 
ATOM     21  C   UNL d   1      23.157 -18.251  -0.661  0.00  0.00     0.002 A 
ATOM     22  C   UNL d   1      24.249 -18.941  -0.145  0.00  0.00     0.001 A 
ATOM     23  C   UNL d   1      25.502 -18.349  -0.142  0.00  0.00     0.014 A 
ENDBRANCH   2  14
TORSDOF 3
ENDMDL
MODEL 7
REMARK VINA RESULT:    -5.896      3.437      6.089
REMARK INTER + INTRA:          -8.255
REMARK INTER:                  -6.790
REMARK INTRA:                  -1.465
REMARK CONF_INDEPENDENT:        0.895
REMARK UNBOUND:                -1.465
REMARK  3 active torsions:
REMARK  status: ('A' for Active; 'I' for Inactive)
REMARK       I    between atoms: C_2  and  N_3 
REMARK    1  A    between atoms: C_15  and  C_2 
REMARK    2  A    between atoms: N_3  and  N_4 
REMARK    3  A    between atoms: C_5  and  C_6 
ROOT
ATOM      1  N   UNL d   1      26.629 -12.923  -0.381  0.00  0.00    -0.184 NA
ATOM      2  C   UNL d   1      27.116 -13.746   0.509  0.00  0.00     0.152 C 
ENDROOT
BRANCH   1   3
ATOM      3  N   UNL d   1      26.148 -13.423  -1.578  0.00  0.00    -0.247 N 
ATOM      4  C   UNL d   1      26.033 -12.649  -2.726  0.00  0.00     0.242 C 
ATOM      5  O   UNL d   1      26.298 -11.452  -2.781  0.00  0.00    -0.271 OA
ATOM      6  H   UNL d   1      25.859 -14.392  -1.618  0.00  0.00     0.192 HD
BRANCH   4   7
ATOM      7  C   UNL d   1      25.495 -13.425  -3.908  0.00  0.00     0.088 A 
ATOM      8  C   UNL d   1      25.531 -14.943  -4.064  0.00  0.00     0.004 A 
ATOM      9  C   UNL d   1      26.253 -15.928  -3.199  0.00  0.00     0.006 C 
ATOM     10  C   UNL d   1      26.315 -14.079  -5.021  0.00  0.00     0.004 A 
ATOM     11  C   UNL d   1      27.740 -15.654  -3.040  0.00  0.00     0.000 C 
ATOM     12  C   UNL d   1      28.404 -15.347  -4.377  0.00  0.00     0.000 C 
ATOM     13  C   UNL d   1      27.812 -14.107  -5.038  0.00  0.00     0.006 C 
ENDBRANCH   4   7
ENDBRANCH   1   3
BRANCH   2  14
ATOM     14  C   UNL d   1      27.293 -15.174   0.311  0.00  0.00     0.011 A 
ATOM     15  C   UNL d   1      28.476 -15.889   0.328  0.00  0.00     0.102 A 
ATOM     16  N   UNL d   1      28.162 -17.229   0.229  0.00  0.00    -0.364 N 
ATOM     17  C   UNL d   1      26.807 -17.384   0.032  0.00  0.00     0.043 A 
ATOM     18  H   UNL d   1      28.828 -17.989   0.283  0.00  0.00     0.165 HD
ATOM     19  C   UNL d   1      26.017 -18.526  -0.145  0.00  0.00     0.030 A 
ATOM     20  C   UNL d   1      26.256 -16.107   0.026  0.00  0.00     0.004 A 
ATOM     21  C   UNL d   1      24.640 -18.338  -0.347  0.00  0.00     0.002 A 
ATOM     22  C   UNL d   1      24.072 -17.069  -0.361  0.00  0.00     0.001 A 
ATOM     23  C   UNL d   1      24.874 -15.950  -0.194  0.00  0.00     0.014 A 
ENDBRANCH   2  14
TORSDOF 3
ENDMDL
MODEL 8
REMARK VINA RESULT:    -5.866      3.756      6.838
REMARK INTER + INTRA:          -8.145
REMARK INTER:                  -6.760
REMARK INTRA:                  -1.384
REMARK CONF_INDEPENDENT:        0.895
REMARK UNBOUND:                -1.384
REMARK  3 active torsions:
REMARK  status: ('A' for Active; 'I' for Inactive)
REMARK       I    between atoms: C_2  and  N_3 
REMARK    1  A    between atoms: C_15  and  C_2 
REMARK    2  A    between atoms: N_3  and  N_4 
REMARK    3  A    between atoms: C_5  and  C_6 
ROOT
ATOM      1  N   UNL d   1      24.779 -16.552  -2.450  0.00  0.00    -0.184 NA
ATOM      2  C   UNL d   1      25.053 -16.992  -1.251  0.00  0.00     0.152 C 
ENDROOT
BRANCH   1   3
ATOM      3  N   UNL d   1      25.768 -15.929  -3.189  0.00  0.00    -0.247 N 
ATOM      4  C   UNL d   1      25.538 -14.786  -3.944  0.00  0.00     0.242 C 
ATOM      5  O   UNL d   1      24.440 -14.250  -4.069  0.00  0.00    -0.271 OA
ATOM      6  H   UNL d   1      26.699 -16.326  -3.185  0.00  0.00     0.192 HD
BRANCH   4   7
ATOM      7  C   UNL d   1      26.779 -14.285  -4.649  0.00  0.00     0.088 A 
ATOM      8  C   UNL d   1      27.751 -13.243  -4.102  0.00  0.00     0.004 A 
ATOM      9  C   UNL d   1      27.577 -12.391  -2.884  0.00  0.00     0.006 C 
ATOM     10  C   UNL d   1      26.953 -12.934  -5.344  0.00  0.00     0.004 A 
ATOM     11  C   UNL d   1      26.293 -11.576  -2.864  0.00  0.00     0.000 C 
ATOM     12  C   UNL d   1      26.048 -10.874  -4.194  0.00  0.00     0.000 C 
ATOM     13  C   UNL d   1      25.905 -11.864  -5.345  0.00  0.00     0.006 C 
ENDBRANCH   4   7
ENDBRANCH   1   3
BRANCH   2  14
ATOM     14  C   UNL d   1      26.316 -16.795  -0.562  0.00  0.00     0.011 A 
ATOM     15  C   UNL d   1      27.238 -17.757  -0.197  0.00  0.00     0.102 A 
ATOM     16  N   UNL d   1      28.346 -17.110   0.312  0.00  0.00    -0.364 N 
ATOM     17  C   UNL d   1      28.108 -15.755   0.388  0.00  0.00     0.043 A 
ATOM     18  H   UNL d   1      29.205 -17.563   0.597  0.00  0.00     0.165 HD
ATOM     19  C   UNL d   1      28.901 -14.696   0.848  0.00  0.00     0.030 A 
ATOM     20  C   UNL d   1      26.824 -15.546  -0.102  0.00  0.00     0.004 A 
ATOM     21  C   UNL d   1      28.346 -13.406   0.810  0.00  0.00     0.002 A 
ATOM     22  C   UNL d   1      27.061 -13.179   0.327  0.00  0.00     0.001 A 
ATOM     23  C   UNL d   1      26.290 -14.243  -0.113  0.00  0.00     0.014 A 
ENDBRANCH   2  14
TORSDOF 3
ENDMDL
MODEL 9
REMARK VINA RESULT:    -5.849      3.512      6.833
REMARK INTER + INTRA:          -8.217
REMARK INTER:                  -6.743
REMARK INTRA:                  -1.474
REMARK CONF_INDEPENDENT:        0.895
REMARK UNBOUND:                -1.474
REMARK  3 active torsions:
REMARK  status: ('A' for Active; 'I' for Inactive)
REMARK       I    between atoms: C_2  and  N_3 
REMARK    1  A    between atoms: C_15  and  C_2 
REMARK    2  A    between atoms: N_3  and  N_4 
REMARK    3  A    between atoms: C_5  and  C_6 
ROOT
ATOM      1  N   UNL d   1      24.358 -15.594  -1.972  0.00  0.00    -0.184 NA
ATOM      2  C   UNL d   1      24.751 -16.521  -1.140  0.00  0.00     0.152 C 
ENDROOT
BRANCH   1   3
ATOM      3  N   UNL d   1      25.258 -14.633  -2.395  0.00  0.00    -0.247 N 
ATOM      4  C   UNL d   1      25.237 -14.091  -3.674  0.00  0.00     0.242 C 
ATOM      5  O   UNL d   1      24.460 -14.440  -4.559  0.00  0.00    -0.271 OA
ATOM      6  H   UNL d   1      25.968 -14.316  -1.748  0.00  0.00     0.192 HD
BRANCH   4   7
ATOM      7  C   UNL d   1      26.312 -13.049  -3.891  0.00  0.00     0.088 A 
ATOM      8  C   UNL d   1      27.425 -13.126  -4.934  0.00  0.00     0.004 A 
ATOM      9  C   UNL d   1      27.782 -14.297  -5.795  0.00  0.00     0.006 C 
ATOM     10  C   UNL d   1      27.778 -13.148  -3.467  0.00  0.00     0.004 A 
ATOM     11  C   UNL d   1      28.064 -15.579  -5.027  0.00  0.00     0.000 C 
ATOM     12  C   UNL d   1      28.985 -15.336  -3.838  0.00  0.00     0.000 C 
ATOM     13  C   UNL d   1      28.376 -14.365  -2.833  0.00  0.00     0.006 C 
ENDBRANCH   4   7
ENDBRANCH   1   3
BRANCH   2  14
ATOM     14  C   UNL d   1      26.066 -16.580  -0.524  0.00  0.00     0.011 A 
ATOM     15  C   UNL d   1      26.909 -17.672  -0.436  0.00  0.00     0.102 A 
ATOM     16  N   UNL d   1      28.101 -17.243   0.109  0.00  0.00    -0.364 N 
ATOM     17  C   UNL d   1      28.002 -15.919   0.481  0.00  0.00     0.043 A 
ATOM     18  H   UNL d   1      28.927 -17.815   0.228  0.00  0.00     0.165 HD
ATOM     19  C   UNL d   1      28.919 -15.052   1.086  0.00  0.00     0.030 A 
ATOM     20  C   UNL d   1      26.718 -15.505   0.143  0.00  0.00     0.004 A 
ATOM     21  C   UNL d   1      28.492 -13.742   1.357  0.00  0.00     0.002 A 
ATOM     22  C   UNL d   1      27.211 -13.310   1.031  0.00  0.00     0.001 A 
ATOM     23  C   UNL d   1      26.314 -14.189   0.441  0.00  0.00     0.014 A 
ENDBRANCH   2  14
TORSDOF 3
ENDMDL
