MODEL 1
REMARK VINA RESULT:    -8.041      0.000      0.000
REMARK INTER + INTRA:         -10.946
REMARK INTER:                  -9.830
REMARK INTRA:                  -1.115
REMARK CONF_INDEPENDENT:        1.790
REMARK UNBOUND:                -1.115
REMARK  6 active torsions:
REMARK  status: ('A' for Active; 'I' for Inactive)
REMARK    1  A    between atoms: C_2  and  N_3 
REMARK    2  A    between atoms: C_2  and  C_19 
REMARK    3  A    between atoms: N_3  and  C_4 
REMARK    4  A    between atoms: C_7  and  O_8 
REMARK    5  A    between atoms: O_8  and  C_9 
REMARK    6  A    between atoms: C_9  and  C_10 
REMARK       I    between atoms: C_19  and  N_21 
REMARK       I    between atoms: N_21  and  C_22 
REMARK       I    between atoms: C_22  and  N_23 
ROOT
ATOM      1  C   UNL d   1      24.483 -16.532  -1.165  0.00  0.00     0.028 A 
ATOM      2  C   UNL d   1      25.513 -16.863  -0.280  0.00  0.00     0.032 A 
ATOM      3  C   UNL d   1      26.843 -16.483  -0.538  0.00  0.00     0.039 A 
ATOM      4  C   UNL d   1      27.185 -15.851  -1.733  0.00  0.00     0.069 A 
ATOM      5  C   UNL d   1      26.177 -15.497  -2.608  0.00  0.00     0.039 A 
ATOM      6  C   UNL d   1      24.854 -15.800  -2.296  0.00  0.00     0.032 A 
ENDROOT
BRANCH   1   7
ATOM      7  N   UNL d   1      23.173 -16.913  -0.906  0.00  0.00    -0.377 N 
ATOM      8  H   UNL d   1      22.446 -16.292  -1.245  0.00  0.00     0.160 HD
BRANCH   7   9
ATOM      9  C   UNL d   1      22.789 -18.134  -0.167  0.00  0.00     0.170 C 
ATOM     10  C   UNL d   1      23.654 -19.348  -0.519  0.00  0.00     0.042 C 
BRANCH   9  11
ATOM     11  C   UNL d   1      21.328 -18.575  -0.466  0.00  0.00     0.247 C 
ATOM     12  O   UNL d   1      20.625 -17.952  -1.269  0.00  0.00    -0.271 OA
ATOM     13  N   UNL d   1      20.861 -19.715   0.162  0.00  0.00    -0.278 N 
ATOM     14  C   UNL d   1      19.619 -20.273  -0.010  0.00  0.00     0.320 C 
ATOM     15  H   UNL d   1      21.457 -20.222   0.801  0.00  0.00     0.173 HD
ATOM     16  N   UNL d   1      18.780 -19.653  -0.868  0.00  0.00    -0.352 N 
ATOM     17  O   UNL d   1      19.278 -21.295   0.587  0.00  0.00    -0.247 OA
ATOM     18  H   UNL d   1      19.083 -18.811  -1.357  0.00  0.00     0.160 HD
ATOM     19  H   UNL d   1      17.850 -20.005  -1.039  0.00  0.00     0.160 HD
ENDBRANCH   9  11
ENDBRANCH   7   9
ENDBRANCH   1   7
BRANCH   4  20
ATOM     20  O   UNL d   1      28.511 -15.619  -1.951  0.00  0.00    -0.347 OA
BRANCH  20  21
ATOM     21  C   UNL d   1      29.199 -16.583  -2.763  0.00  0.00     0.216 C 
BRANCH  21  22
ATOM     22  C   UNL d   1      29.375 -16.065  -4.168  0.00  0.00    -0.012 A 
ATOM     23  C   UNL d   1      28.864 -14.808  -4.533  0.00  0.00     0.011 A 
ATOM     24  C   UNL d   1      28.878 -14.392  -5.861  0.00  0.00     0.001 A 
ATOM     25  C   UNL d   1      29.493 -15.180  -6.829  0.00  0.00     0.002 A 
ATOM     26  C   UNL d   1      30.068 -16.400  -6.474  0.00  0.00     0.024 A 
ATOM     27  C   UNL d   1      30.010 -16.842  -5.150  0.00  0.00     0.042 A 
ATOM     28 CL   UNL d   1      30.743 -18.361  -4.773  0.00  0.00    -0.084 Cl
ENDBRANCH  21  22
ENDBRANCH  20  21
ENDBRANCH   4  20
TORSDOF 6
ENDMDL
MODEL 2
REMARK VINA RESULT:    -8.037      1.149      1.918
REMARK INTER + INTRA:         -10.968
REMARK INTER:                  -9.827
REMARK INTRA:                  -1.142
REMARK CONF_INDEPENDENT:        1.790
REMARK UNBOUND:                -1.142
REMARK  6 active torsions:
REMARK  status: ('A' for Active; 'I' for Inactive)
REMARK    1  A    between atoms: C_2  and  N_3 
REMARK    2  A    between atoms: C_2  and  C_19 
REMARK    3  A    between atoms: N_3  and  C_4 
REMARK    4  A    between atoms: C_7  and  O_8 
REMARK    5  A    between atoms: O_8  and  C_9 
REMARK    6  A    between atoms: C_9  and  C_10 
REMARK       I    between atoms: C_19  and  N_21 
REMARK       I    between atoms: N_21  and  C_22 
REMARK       I    between atoms: C_22  and  N_23 
ROOT
ATOM      1  C   UNL d   1      24.694 -16.612  -1.233  0.00  0.00     0.028 A 
ATOM      2  C   UNL d   1      25.050 -16.003  -2.440  0.00  0.00     0.032 A 
ATOM      3  C   UNL d   1      26.397 -15.740  -2.751  0.00  0.00     0.039 A 
ATOM      4  C   UNL d   1      27.406 -15.992  -1.822  0.00  0.00     0.069 A 
ATOM      5  C   UNL d   1      27.074 -16.613  -0.635  0.00  0.00     0.039 A 
ATOM      6  C   UNL d   1      25.747 -16.949  -0.379  0.00  0.00     0.032 A 
ENDROOT
BRANCH   1   7
ATOM      7  N   UNL d   1      23.363 -16.865  -0.931  0.00  0.00    -0.377 N 
ATOM      8  H   UNL d   1      22.689 -16.172  -1.239  0.00  0.00     0.160 HD
BRANCH   7   9
ATOM      9  C   UNL d   1      22.885 -18.051  -0.188  0.00  0.00     0.170 C 
ATOM     10  C   UNL d   1      23.668 -19.324  -0.520  0.00  0.00     0.042 C 
BRANCH   9  11
ATOM     11  C   UNL d   1      21.401 -18.392  -0.505  0.00  0.00     0.247 C 
ATOM     12  O   UNL d   1      20.729 -17.679  -1.257  0.00  0.00    -0.271 OA
ATOM     13  N   UNL d   1      20.877 -19.546   0.048  0.00  0.00    -0.278 N 
ATOM     14  C   UNL d   1      19.606 -20.025  -0.151  0.00  0.00     0.320 C 
ATOM     15  H   UNL d   1      21.449 -20.128   0.646  0.00  0.00     0.173 HD
ATOM     16  N   UNL d   1      18.797 -19.304  -0.957  0.00  0.00    -0.352 N 
ATOM     17  O   UNL d   1      19.214 -21.066   0.377  0.00  0.00    -0.247 OA
ATOM     18  H   UNL d   1      19.143 -18.448  -1.390  0.00  0.00     0.160 HD
ATOM     19  H   UNL d   1      17.849 -19.594  -1.145  0.00  0.00     0.160 HD
ENDBRANCH   9  11
ENDBRANCH   7   9
ENDBRANCH   1   7
BRANCH   4  20
ATOM     20  O   UNL d   1      28.669 -15.604  -2.163  0.00  0.00    -0.347 OA
BRANCH  20  21
ATOM     21  C   UNL d   1      28.846 -15.134  -3.509  0.00  0.00     0.216 C 
BRANCH  21  22
ATOM     22  C   UNL d   1      29.517 -16.186  -4.355  0.00  0.00    -0.012 A 
ATOM     23  C   UNL d   1      30.027 -17.355  -3.766  0.00  0.00     0.011 A 
ATOM     24  C   UNL d   1      30.789 -18.252  -4.509  0.00  0.00     0.001 A 
ATOM     25  C   UNL d   1      30.968 -18.047  -5.873  0.00  0.00     0.002 A 
ATOM     26  C   UNL d   1      30.411 -16.928  -6.491  0.00  0.00     0.024 A 
ATOM     27  C   UNL d   1      29.689 -16.001  -5.736  0.00  0.00     0.042 A 
ATOM     28 CL   UNL d   1      29.022 -14.634  -6.559  0.00  0.00    -0.084 Cl
ENDBRANCH  21  22
ENDBRANCH  20  21
ENDBRANCH   4  20
TORSDOF 6
ENDMDL
MODEL 3
REMARK VINA RESULT:    -7.939      1.661      2.194
REMARK INTER + INTRA:         -10.849
REMARK INTER:                  -9.729
REMARK INTRA:                  -1.120
REMARK CONF_INDEPENDENT:        1.790
REMARK UNBOUND:                -1.120
REMARK  6 active torsions:
REMARK  status: ('A' for Active; 'I' for Inactive)
REMARK    1  A    between atoms: C_2  and  N_3 
REMARK    2  A    between atoms: C_2  and  C_19 
REMARK    3  A    between atoms: N_3  and  C_4 
REMARK    4  A    between atoms: C_7  and  O_8 
REMARK    5  A    between atoms: O_8  and  C_9 
REMARK    6  A    between atoms: C_9  and  C_10 
REMARK       I    between atoms: C_19  and  N_21 
REMARK       I    between atoms: N_21  and  C_22 
REMARK       I    between atoms: C_22  and  N_23 
ROOT
ATOM      1  C   UNL d   1      24.113 -16.823  -0.781  0.00  0.00     0.028 A 
ATOM      2  C   UNL d   1      24.381 -15.912  -1.806  0.00  0.00     0.032 A 
ATOM      3  C   UNL d   1      25.696 -15.486  -2.074  0.00  0.00     0.039 A 
ATOM      4  C   UNL d   1      26.754 -15.885  -1.260  0.00  0.00     0.069 A 
ATOM      5  C   UNL d   1      26.510 -16.802  -0.256  0.00  0.00     0.039 A 
ATOM      6  C   UNL d   1      25.218 -17.284  -0.061  0.00  0.00     0.032 A 
ENDROOT
BRANCH   1   7
ATOM      7  N   UNL d   1      22.813 -17.237  -0.520  0.00  0.00    -0.377 N 
ATOM      8  H   UNL d   1      22.077 -16.569  -0.722  0.00  0.00     0.160 HD
BRANCH   7   9
ATOM      9  C   UNL d   1      22.453 -18.557   0.038  0.00  0.00     0.170 C 
ATOM     10  C   UNL d   1      23.306 -19.700  -0.521  0.00  0.00     0.042 C 
BRANCH   9  11
ATOM     11  C   UNL d   1      20.983 -18.955  -0.279  0.00  0.00     0.247 C 
ATOM     12  O   UNL d   1      20.324 -18.342  -1.125  0.00  0.00    -0.271 OA
ATOM     13  N   UNL d   1      20.458 -20.048   0.386  0.00  0.00    -0.278 N 
ATOM     14  C   UNL d   1      19.199 -20.566   0.206  0.00  0.00     0.320 C 
ATOM     15  H   UNL d   1      21.018 -20.550   1.060  0.00  0.00     0.173 HD
ATOM     16  N   UNL d   1      18.405 -19.952  -0.698  0.00  0.00    -0.352 N 
ATOM     17  O   UNL d   1      18.804 -21.547   0.838  0.00  0.00    -0.247 OA
ATOM     18  H   UNL d   1      18.752 -19.145  -1.215  0.00  0.00     0.160 HD
ATOM     19  H   UNL d   1      17.467 -20.276  -0.878  0.00  0.00     0.160 HD
ENDBRANCH   9  11
ENDBRANCH   7   9
ENDBRANCH   1   7
BRANCH   4  20
ATOM     20  O   UNL d   1      27.976 -15.337  -1.523  0.00  0.00    -0.347 OA
BRANCH  20  21
ATOM     21  C   UNL d   1      27.981 -14.184  -2.380  0.00  0.00     0.216 C 
BRANCH  21  22
ATOM     22  C   UNL d   1      28.252 -14.585  -3.808  0.00  0.00    -0.012 A 
ATOM     23  C   UNL d   1      29.335 -15.423  -4.119  0.00  0.00     0.011 A 
ATOM     24  C   UNL d   1      29.690 -15.667  -5.442  0.00  0.00     0.001 A 
ATOM     25  C   UNL d   1      28.908 -15.159  -6.475  0.00  0.00     0.002 A 
ATOM     26  C   UNL d   1      27.787 -14.382  -6.185  0.00  0.00     0.024 A 
ATOM     27  C   UNL d   1      27.459 -14.096  -4.858  0.00  0.00     0.042 A 
ATOM     28 CL   UNL d   1      26.057 -13.128  -4.563  0.00  0.00    -0.084 Cl
ENDBRANCH  21  22
ENDBRANCH  20  21
ENDBRANCH   4  20
TORSDOF 6
ENDMDL
MODEL 4
REMARK VINA RESULT:    -7.918      3.710      5.002
REMARK INTER + INTRA:         -10.647
REMARK INTER:                  -9.708
REMARK INTRA:                  -0.939
REMARK CONF_INDEPENDENT:        1.790
REMARK UNBOUND:                -0.939
REMARK  6 active torsions:
REMARK  status: ('A' for Active; 'I' for Inactive)
REMARK    1  A    between atoms: C_2  and  N_3 
REMARK    2  A    between atoms: C_2  and  C_19 
REMARK    3  A    between atoms: N_3  and  C_4 
REMARK    4  A    between atoms: C_7  and  O_8 
REMARK    5  A    between atoms: O_8  and  C_9 
REMARK    6  A    between atoms: C_9  and  C_10 
REMARK       I    between atoms: C_19  and  N_21 
REMARK       I    between atoms: N_21  and  C_22 
REMARK       I    between atoms: C_22  and  N_23 
ROOT
ATOM      1  C   UNL d   1      24.592 -18.143  -0.337  0.00  0.00     0.028 A 
ATOM      2  C   UNL d   1      24.865 -17.226  -1.357  0.00  0.00     0.032 A 
ATOM      3  C   UNL d   1      26.053 -16.471  -1.356  0.00  0.00     0.039 A 
ATOM      4  C   UNL d   1      26.943 -16.544  -0.286  0.00  0.00     0.069 A 
ATOM      5  C   UNL d   1      26.700 -17.460   0.718  0.00  0.00     0.039 A 
ATOM      6  C   UNL d   1      25.565 -18.265   0.658  0.00  0.00     0.032 A 
ENDROOT
BRANCH   1   7
ATOM      7  N   UNL d   1      23.417 -18.882  -0.343  0.00  0.00    -0.377 N 
ATOM      8  H   UNL d   1      23.422 -19.743   0.196  0.00  0.00     0.160 HD
BRANCH   7   9
ATOM      9  C   UNL d   1      22.195 -18.504  -1.084  0.00  0.00     0.170 C 
ATOM     10  C   UNL d   1      21.806 -17.035  -0.894  0.00  0.00     0.042 C 
BRANCH   9  11
ATOM     11  C   UNL d   1      20.949 -19.316  -0.628  0.00  0.00     0.247 C 
ATOM     12  O   UNL d   1      20.140 -19.758  -1.450  0.00  0.00    -0.271 OA
ATOM     13  N   UNL d   1      20.806 -19.564   0.725  0.00  0.00    -0.278 N 
ATOM     14  C   UNL d   1      19.796 -20.293   1.303  0.00  0.00     0.320 C 
ATOM     15  H   UNL d   1      21.488 -19.211   1.381  0.00  0.00     0.173 HD
ATOM     16  N   UNL d   1      18.861 -20.811   0.478  0.00  0.00    -0.352 N 
ATOM     17  O   UNL d   1      19.739 -20.472   2.521  0.00  0.00    -0.247 OA
ATOM     18  H   UNL d   1      18.929 -20.656  -0.528  0.00  0.00     0.160 HD
ATOM     19  H   UNL d   1      18.088 -21.352   0.834  0.00  0.00     0.160 HD
ENDBRANCH   9  11
ENDBRANCH   7   9
ENDBRANCH   1   7
BRANCH   4  20
ATOM     20  O   UNL d   1      28.012 -15.696  -0.313  0.00  0.00    -0.347 OA
BRANCH  20  21
ATOM     21  C   UNL d   1      28.535 -15.295   0.963  0.00  0.00     0.216 C 
BRANCH  21  22
ATOM     22  C   UNL d   1      27.924 -13.987   1.400  0.00  0.00    -0.012 A 
ATOM     23  C   UNL d   1      27.532 -13.032   0.449  0.00  0.00     0.011 A 
ATOM     24  C   UNL d   1      27.120 -11.762   0.843  0.00  0.00     0.001 A 
ATOM     25  C   UNL d   1      26.997 -11.461   2.196  0.00  0.00     0.002 A 
ATOM     26  C   UNL d   1      27.315 -12.421   3.156  0.00  0.00     0.024 A 
ATOM     27  C   UNL d   1      27.777 -13.678   2.761  0.00  0.00     0.042 A 
ATOM     28 CL   UNL d   1      28.154 -14.825   3.999  0.00  0.00    -0.084 Cl
ENDBRANCH  21  22
ENDBRANCH  20  21
ENDBRANCH   4  20
TORSDOF 6
ENDMDL
MODEL 5
REMARK VINA RESULT:    -7.724      1.726      2.241
REMARK INTER + INTRA:         -10.440
REMARK INTER:                  -9.514
REMARK INTRA:                  -0.926
REMARK CONF_INDEPENDENT:        1.790
REMARK UNBOUND:                -0.926
REMARK  6 active torsions:
REMARK  status: ('A' for Active; 'I' for Inactive)
REMARK    1  A    between atoms: C_2  and  N_3 
REMARK    2  A    between atoms: C_2  and  C_19 
REMARK    3  A    between atoms: N_3  and  C_4 
REMARK    4  A    between atoms: C_7  and  O_8 
REMARK    5  A    between atoms: O_8  and  C_9 
REMARK    6  A    between atoms: C_9  and  C_10 
REMARK       I    between atoms: C_19  and  N_21 
REMARK       I    between atoms: N_21  and  C_22 
REMARK       I    between atoms: C_22  and  N_23 
ROOT
ATOM      1  C   UNL d   1      24.616 -18.113  -0.205  0.00  0.00     0.028 A 
ATOM      2  C   UNL d   1      25.698 -18.483   0.600  0.00  0.00     0.032 A 
ATOM      3  C   UNL d   1      26.940 -17.830   0.491  0.00  0.00     0.039 A 
ATOM      4  C   UNL d   1      27.154 -16.864  -0.490  0.00  0.00     0.069 A 
ATOM      5  C   UNL d   1      26.090 -16.472  -1.278  0.00  0.00     0.039 A 
ATOM      6  C   UNL d   1      24.843 -17.064  -1.099  0.00  0.00     0.032 A 
ENDROOT
BRANCH   1   7
ATOM      7  N   UNL d   1      23.394 -18.764  -0.095  0.00  0.00    -0.377 N 
ATOM      8  H   UNL d   1      23.330 -19.490   0.610  0.00  0.00     0.160 HD
BRANCH   7   9
ATOM      9  C   UNL d   1      22.215 -18.475  -0.939  0.00  0.00     0.170 C 
ATOM     10  C   UNL d   1      21.788 -17.006  -0.895  0.00  0.00     0.042 C 
BRANCH   9  11
ATOM     11  C   UNL d   1      20.958 -19.278  -0.498  0.00  0.00     0.247 C 
ATOM     12  O   UNL d   1      20.147 -19.701  -1.328  0.00  0.00    -0.271 OA
ATOM     13  N   UNL d   1      20.807 -19.540   0.852  0.00  0.00    -0.278 N 
ATOM     14  C   UNL d   1      19.786 -20.262   1.418  0.00  0.00     0.320 C 
ATOM     15  H   UNL d   1      21.491 -19.202   1.514  0.00  0.00     0.173 HD
ATOM     16  N   UNL d   1      18.848 -20.760   0.583  0.00  0.00    -0.352 N 
ATOM     17  O   UNL d   1      19.722 -20.454   2.633  0.00  0.00    -0.247 OA
ATOM     18  H   UNL d   1      18.921 -20.595  -0.421  0.00  0.00     0.160 HD
ATOM     19  H   UNL d   1      18.068 -21.296   0.931  0.00  0.00     0.160 HD
ENDBRANCH   9  11
ENDBRANCH   7   9
ENDBRANCH   1   7
BRANCH   4  20
ATOM     20  O   UNL d   1      28.419 -16.363  -0.597  0.00  0.00    -0.347 OA
BRANCH  20  21
ATOM     21  C   UNL d   1      28.637 -15.412  -1.652  0.00  0.00     0.216 C 
BRANCH  21  22
ATOM     22  C   UNL d   1      29.170 -16.099  -2.884  0.00  0.00    -0.012 A 
ATOM     23  C   UNL d   1      30.180 -17.068  -2.777  0.00  0.00     0.011 A 
ATOM     24  C   UNL d   1      30.791 -17.588  -3.915  0.00  0.00     0.001 A 
ATOM     25  C   UNL d   1      30.333 -17.222  -5.177  0.00  0.00     0.002 A 
ATOM     26  C   UNL d   1      29.283 -16.313  -5.303  0.00  0.00     0.024 A 
ATOM     27  C   UNL d   1      28.703 -15.753  -4.162  0.00  0.00     0.042 A 
ATOM     28 CL   UNL d   1      27.405 -14.634  -4.383  0.00  0.00    -0.084 Cl
ENDBRANCH  21  22
ENDBRANCH  20  21
ENDBRANCH   4  20
TORSDOF 6
ENDMDL
MODEL 6
REMARK VINA RESULT:    -7.715      3.192      4.478
REMARK INTER + INTRA:         -10.701
REMARK INTER:                  -9.505
REMARK INTRA:                  -1.197
REMARK CONF_INDEPENDENT:        1.790
REMARK UNBOUND:                -1.197
REMARK  6 active torsions:
REMARK  status: ('A' for Active; 'I' for Inactive)
REMARK    1  A    between atoms: C_2  and  N_3 
REMARK    2  A    between atoms: C_2  and  C_19 
REMARK    3  A    between atoms: N_3  and  C_4 
REMARK    4  A    between atoms: C_7  and  O_8 
REMARK    5  A    between atoms: O_8  and  C_9 
REMARK    6  A    between atoms: C_9  and  C_10 
REMARK       I    between atoms: C_19  and  N_21 
REMARK       I    between atoms: N_21  and  C_22 
REMARK       I    between atoms: C_22  and  N_23 
ROOT
ATOM      1  C   UNL d   1      24.729 -18.236  -0.281  0.00  0.00     0.028 A 
ATOM      2  C   UNL d   1      25.749 -18.574   0.613  0.00  0.00     0.032 A 
ATOM      3  C   UNL d   1      27.020 -17.975   0.523  0.00  0.00     0.039 A 
ATOM      4  C   UNL d   1      27.326 -17.103  -0.520  0.00  0.00     0.069 A 
ATOM      5  C   UNL d   1      26.324 -16.743  -1.399  0.00  0.00     0.039 A 
ATOM      6  C   UNL d   1      25.046 -17.274  -1.244  0.00  0.00     0.032 A 
ENDROOT
BRANCH   1   7
ATOM      7  N   UNL d   1      23.478 -18.833  -0.190  0.00  0.00    -0.377 N 
ATOM      8  H   UNL d   1      23.380 -19.574   0.497  0.00  0.00     0.160 HD
BRANCH   7   9
ATOM      9  C   UNL d   1      22.316 -18.469  -1.027  0.00  0.00     0.170 C 
ATOM     10  C   UNL d   1      21.915 -16.997  -0.894  0.00  0.00     0.042 C 
BRANCH   9  11
ATOM     11  C   UNL d   1      21.039 -19.273  -0.652  0.00  0.00     0.247 C 
ATOM     12  O   UNL d   1      20.274 -19.699  -1.524  0.00  0.00    -0.271 OA
ATOM     13  N   UNL d   1      20.817 -19.534   0.688  0.00  0.00    -0.278 N 
ATOM     14  C   UNL d   1      19.769 -20.259   1.200  0.00  0.00     0.320 C 
ATOM     15  H   UNL d   1      21.464 -19.194   1.385  0.00  0.00     0.173 HD
ATOM     16  N   UNL d   1      18.877 -20.759   0.317  0.00  0.00    -0.352 N 
ATOM     17  O   UNL d   1      19.641 -20.449   2.410  0.00  0.00    -0.247 OA
ATOM     18  H   UNL d   1      19.004 -20.595  -0.682  0.00  0.00     0.160 HD
ATOM     19  H   UNL d   1      18.081 -21.297   0.623  0.00  0.00     0.160 HD
ENDBRANCH   9  11
ENDBRANCH   7   9
ENDBRANCH   1   7
BRANCH   4  20
ATOM     20  O   UNL d   1      28.613 -16.657  -0.594  0.00  0.00    -0.347 OA
BRANCH  20  21
ATOM     21  C   UNL d   1      28.784 -15.244  -0.789  0.00  0.00     0.216 C 
BRANCH  21  22
ATOM     22  C   UNL d   1      28.224 -14.475   0.381  0.00  0.00    -0.012 A 
ATOM     23  C   UNL d   1      28.675 -14.735   1.686  0.00  0.00     0.011 A 
ATOM     24  C   UNL d   1      28.052 -14.150   2.784  0.00  0.00     0.001 A 
ATOM     25  C   UNL d   1      27.036 -13.220   2.592  0.00  0.00     0.002 A 
ATOM     26  C   UNL d   1      26.621 -12.896   1.301  0.00  0.00     0.024 A 
ATOM     27  C   UNL d   1      27.211 -13.520   0.200  0.00  0.00     0.042 A 
ATOM     28 CL   UNL d   1      26.654 -13.075  -1.375  0.00  0.00    -0.084 Cl
ENDBRANCH  21  22
ENDBRANCH  20  21
ENDBRANCH   4  20
TORSDOF 6
ENDMDL
MODEL 7
REMARK VINA RESULT:    -7.581      3.306      5.073
REMARK INTER + INTRA:         -10.820
REMARK INTER:                  -9.371
REMARK INTRA:                  -1.449
REMARK CONF_INDEPENDENT:        1.790
REMARK UNBOUND:                -1.449
REMARK  6 active torsions:
REMARK  status: ('A' for Active; 'I' for Inactive)
REMARK    1  A    between atoms: C_2  and  N_3 
REMARK    2  A    between atoms: C_2  and  C_19 
REMARK    3  A    between atoms: N_3  and  C_4 
REMARK    4  A    between atoms: C_7  and  O_8 
REMARK    5  A    between atoms: O_8  and  C_9 
REMARK    6  A    between atoms: C_9  and  C_10 
REMARK       I    between atoms: C_19  and  N_21 
REMARK       I    between atoms: N_21  and  C_22 
REMARK       I    between atoms: C_22  and  N_23 
ROOT
ATOM      1  C   UNL d   1      24.828 -16.576  -0.885  0.00  0.00     0.028 A 
ATOM      2  C   UNL d   1      25.262 -15.455  -1.601  0.00  0.00     0.032 A 
ATOM      3  C   UNL d   1      26.598 -15.020  -1.529  0.00  0.00     0.039 A 
ATOM      4  C   UNL d   1      27.504 -15.636  -0.666  0.00  0.00     0.069 A 
ATOM      5  C   UNL d   1      27.098 -16.757   0.031  0.00  0.00     0.039 A 
ATOM      6  C   UNL d   1      25.797 -17.230  -0.119  0.00  0.00     0.032 A 
ENDROOT
BRANCH   1   7
ATOM      7  N   UNL d   1      23.508 -16.998  -0.958  0.00  0.00    -0.377 N 
ATOM      8  H   UNL d   1      22.895 -16.464  -1.566  0.00  0.00     0.160 HD
BRANCH   7   9
ATOM      9  C   UNL d   1      22.954 -18.142  -0.204  0.00  0.00     0.170 C 
ATOM     10  C   UNL d   1      23.655 -19.467  -0.520  0.00  0.00     0.042 C 
BRANCH   9  11
ATOM     11  C   UNL d   1      21.452 -18.392  -0.522  0.00  0.00     0.247 C 
ATOM     12  O   UNL d   1      20.822 -17.632  -1.265  0.00  0.00    -0.271 OA
ATOM     13  N   UNL d   1      20.862 -19.520   0.018  0.00  0.00    -0.278 N 
ATOM     14  C   UNL d   1      19.564 -19.920  -0.184  0.00  0.00     0.320 C 
ATOM     15  H   UNL d   1      21.398 -20.140   0.608  0.00  0.00     0.173 HD
ATOM     16  N   UNL d   1      18.798 -19.143  -0.981  0.00  0.00    -0.352 N 
ATOM     17  O   UNL d   1      19.111 -20.942   0.333  0.00  0.00    -0.247 OA
ATOM     18  H   UNL d   1      19.193 -18.304  -1.404  0.00  0.00     0.160 HD
ATOM     19  H   UNL d   1      17.835 -19.375  -1.169  0.00  0.00     0.160 HD
ENDBRANCH   9  11
ENDBRANCH   7   9
ENDBRANCH   1   7
BRANCH   4  20
ATOM     20  O   UNL d   1      28.746 -15.080  -0.576  0.00  0.00    -0.347 OA
BRANCH  20  21
ATOM     21  C   UNL d   1      28.811 -13.760  -0.014  0.00  0.00     0.216 C 
BRANCH  21  22
ATOM     22  C   UNL d   1      28.874 -13.826   1.491  0.00  0.00    -0.012 A 
ATOM     23  C   UNL d   1      30.055 -14.229   2.136  0.00  0.00     0.011 A 
ATOM     24  C   UNL d   1      30.076 -14.450   3.511  0.00  0.00     0.001 A 
ATOM     25  C   UNL d   1      28.946 -14.175   4.275  0.00  0.00     0.002 A 
ATOM     26  C   UNL d   1      27.785 -13.707   3.661  0.00  0.00     0.024 A 
ATOM     27  C   UNL d   1      27.748 -13.533   2.275  0.00  0.00     0.042 A 
ATOM     28 CL   UNL d   1      26.280 -12.950   1.573  0.00  0.00    -0.084 Cl
ENDBRANCH  21  22
ENDBRANCH  20  21
ENDBRANCH   4  20
TORSDOF 6
ENDMDL
MODEL 8
REMARK VINA RESULT:    -7.472      1.904      2.642
REMARK INTER + INTRA:         -10.541
REMARK INTER:                  -9.262
REMARK INTRA:                  -1.280
REMARK CONF_INDEPENDENT:        1.790
REMARK UNBOUND:                -1.280
REMARK  6 active torsions:
REMARK  status: ('A' for Active; 'I' for Inactive)
REMARK    1  A    between atoms: C_2  and  N_3 
REMARK    2  A    between atoms: C_2  and  C_19 
REMARK    3  A    between atoms: N_3  and  C_4 
REMARK    4  A    between atoms: C_7  and  O_8 
REMARK    5  A    between atoms: O_8  and  C_9 
REMARK    6  A    between atoms: C_9  and  C_10 
REMARK       I    between atoms: C_19  and  N_21 
REMARK       I    between atoms: N_21  and  C_22 
REMARK       I    between atoms: C_22  and  N_23 
ROOT
ATOM      1  C   UNL d   1      24.584 -16.582  -0.990  0.00  0.00     0.028 A 
ATOM      2  C   UNL d   1      24.815 -16.236  -2.325  0.00  0.00     0.032 A 
ATOM      3  C   UNL d   1      26.114 -15.949  -2.786  0.00  0.00     0.039 A 
ATOM      4  C   UNL d   1      27.191 -15.906  -1.902  0.00  0.00     0.069 A 
ATOM      5  C   UNL d   1      26.983 -16.266  -0.585  0.00  0.00     0.039 A 
ATOM      6  C   UNL d   1      25.709 -16.635  -0.163  0.00  0.00     0.032 A 
ENDROOT
BRANCH   1   7
ATOM      7  N   UNL d   1      23.300 -16.861  -0.541  0.00  0.00    -0.377 N 
ATOM      8  H   UNL d   1      22.628 -16.102  -0.592  0.00  0.00     0.160 HD
BRANCH   7   9
ATOM      9  C   UNL d   1      22.872 -18.165   0.008  0.00  0.00     0.170 C 
ATOM     10  C   UNL d   1      23.695 -19.342  -0.523  0.00  0.00     0.042 C 
BRANCH   9  11
ATOM     11  C   UNL d   1      21.398 -18.506  -0.352  0.00  0.00     0.247 C 
ATOM     12  O   UNL d   1      20.759 -17.813  -1.151  0.00  0.00    -0.271 OA
ATOM     13  N   UNL d   1      20.844 -19.637   0.219  0.00  0.00    -0.278 N 
ATOM     14  C   UNL d   1      19.577 -20.113  -0.011  0.00  0.00     0.320 C 
ATOM     15  H   UNL d   1      21.388 -20.203   0.856  0.00  0.00     0.173 HD
ATOM     16  N   UNL d   1      18.804 -19.413  -0.869  0.00  0.00    -0.352 N 
ATOM     17  O   UNL d   1      19.157 -21.133   0.536  0.00  0.00    -0.247 OA
ATOM     18  H   UNL d   1      19.172 -18.574  -1.317  0.00  0.00     0.160 HD
ATOM     19  H   UNL d   1      17.861 -19.702  -1.082  0.00  0.00     0.160 HD
ENDBRANCH   9  11
ENDBRANCH   7   9
ENDBRANCH   1   7
BRANCH   4  20
ATOM     20  O   UNL d   1      28.393 -15.510  -2.413  0.00  0.00    -0.347 OA
BRANCH  20  21
ATOM     21  C   UNL d   1      28.660 -14.099  -2.383  0.00  0.00     0.216 C 
BRANCH  21  22
ATOM     22  C   UNL d   1      27.657 -13.351  -3.224  0.00  0.00    -0.012 A 
ATOM     23  C   UNL d   1      26.689 -12.534  -2.616  0.00  0.00     0.011 A 
ATOM     24  C   UNL d   1      25.661 -11.970  -3.366  0.00  0.00     0.001 A 
ATOM     25  C   UNL d   1      25.642 -12.130  -4.748  0.00  0.00     0.002 A 
ATOM     26  C   UNL d   1      26.634 -12.880  -5.378  0.00  0.00     0.024 A 
ATOM     27  C   UNL d   1      27.638 -13.488  -4.620  0.00  0.00     0.042 A 
ATOM     28 CL   UNL d   1      28.840 -14.404  -5.459  0.00  0.00    -0.084 Cl
ENDBRANCH  21  22
ENDBRANCH  20  21
ENDBRANCH   4  20
TORSDOF 6
ENDMDL
MODEL 9
REMARK VINA RESULT:    -7.371      1.479      2.531
REMARK INTER + INTRA:         -10.284
REMARK INTER:                  -9.160
REMARK INTRA:                  -1.123
REMARK CONF_INDEPENDENT:        1.790
REMARK UNBOUND:                -1.123
REMARK  6 active torsions:
REMARK  status: ('A' for Active; 'I' for Inactive)
REMARK    1  A    between atoms: C_2  and  N_3 
REMARK    2  A    between atoms: C_2  and  C_19 
REMARK    3  A    between atoms: N_3  and  C_4 
REMARK    4  A    between atoms: C_7  and  O_8 
REMARK    5  A    between atoms: O_8  and  C_9 
REMARK    6  A    between atoms: C_9  and  C_10 
REMARK       I    between atoms: C_19  and  N_21 
REMARK       I    between atoms: N_21  and  C_22 
REMARK       I    between atoms: C_22  and  N_23 
ROOT
ATOM      1  C   UNL d   1      24.701 -16.645  -0.876  0.00  0.00     0.028 A 
ATOM      2  C   UNL d   1      25.071 -15.649  -1.785  0.00  0.00     0.032 A 
ATOM      3  C   UNL d   1      26.425 -15.319  -1.989  0.00  0.00     0.039 A 
ATOM      4  C   UNL d   1      27.426 -15.908  -1.218  0.00  0.00     0.069 A 
ATOM      5  C   UNL d   1      27.079 -16.909  -0.333  0.00  0.00     0.039 A 
ATOM      6  C   UNL d   1      25.745 -17.287  -0.206  0.00  0.00     0.032 A 
ENDROOT
BRANCH   1   7
ATOM      7  N   UNL d   1      23.364 -16.963  -0.677  0.00  0.00    -0.377 N 
ATOM      8  H   UNL d   1      22.685 -16.273  -0.981  0.00  0.00     0.160 HD
BRANCH   7   9
ATOM      9  C   UNL d   1      22.888 -18.213  -0.049  0.00  0.00     0.170 C 
ATOM     10  C   UNL d   1      23.660 -19.452  -0.511  0.00  0.00     0.042 C 
BRANCH   9  11
ATOM     11  C   UNL d   1      21.399 -18.515  -0.382  0.00  0.00     0.247 C 
ATOM     12  O   UNL d   1      20.748 -17.775  -1.127  0.00  0.00    -0.271 OA
ATOM     13  N   UNL d   1      20.845 -19.666   0.148  0.00  0.00    -0.278 N 
ATOM     14  C   UNL d   1      19.565 -20.112  -0.068  0.00  0.00     0.320 C 
ATOM     15  H   UNL d   1      21.398 -20.270   0.740  0.00  0.00     0.173 HD
ATOM     16  N   UNL d   1      18.778 -19.360  -0.868  0.00  0.00    -0.352 N 
ATOM     17  O   UNL d   1      19.144 -21.153   0.440  0.00  0.00    -0.247 OA
ATOM     18  H   UNL d   1      19.147 -18.505  -1.285  0.00  0.00     0.160 HD
ATOM     19  H   UNL d   1      17.826 -19.625  -1.067  0.00  0.00     0.160 HD
ENDBRANCH   9  11
ENDBRANCH   7   9
ENDBRANCH   1   7
BRANCH   4  20
ATOM     20  O   UNL d   1      28.697 -15.449  -1.404  0.00  0.00    -0.347 OA
BRANCH  20  21
ATOM     21  C   UNL d   1      29.295 -15.738  -2.678  0.00  0.00     0.216 C 
BRANCH  21  22
ATOM     22  C   UNL d   1      30.003 -17.069  -2.643  0.00  0.00    -0.012 A 
ATOM     23  C   UNL d   1      30.298 -17.686  -1.416  0.00  0.00     0.011 A 
ATOM     24  C   UNL d   1      31.092 -18.828  -1.366  0.00  0.00     0.001 A 
ATOM     25  C   UNL d   1      31.518 -19.430  -2.546  0.00  0.00     0.002 A 
ATOM     26  C   UNL d   1      31.176 -18.871  -3.777  0.00  0.00     0.024 A 
ATOM     27  C   UNL d   1      30.422 -17.696  -3.827  0.00  0.00     0.042 A 
ATOM     28 CL   UNL d   1      30.030 -17.053  -5.383  0.00  0.00    -0.084 Cl
ENDBRANCH  21  22
ENDBRANCH  20  21
ENDBRANCH   4  20
TORSDOF 6
ENDMDL
