MODEL 1
REMARK VINA RESULT:   -30.996      0.000      0.000
REMARK INTER + INTRA:         -32.068
REMARK INTER:                 -31.891
REMARK INTRA:                  -0.177
REMARK CONF_INDEPENDENT:        0.895
REMARK UNBOUND:                -0.177
REMARK  3 active torsions:
REMARK  status: ('A' for Active; 'I' for Inactive)
REMARK    1  A    between atoms: C_5  and  C_6 
REMARK       I    between atoms: C_6  and  N_7 
REMARK    2  A    between atoms: C_10  and  N_11 
REMARK       I    between atoms: N_11  and  C_12 
REMARK    3  A    between atoms: C_12  and  C_14 
ROOT
ATOM      1  C   UNL d   1      26.258 -18.212  -0.269  0.00  0.00     0.050 C 
ATOM      2  C   UNL d   1      26.092 -16.992  -1.108  0.00  0.00    -0.035 A 
ATOM      3  C   UNL d   1      27.300 -16.325  -1.357  0.00  0.00     0.010 A 
ATOM      4  C   UNL d   1      27.344 -15.165  -2.102  0.00  0.00     0.017 A 
ATOM      5  C   UNL d   1      26.167 -14.635  -2.620  0.00  0.00     0.034 A 
ATOM      6  C   UNL d   1      24.932 -15.310  -2.383  0.00  0.00     0.047 A 
ATOM      7  C   UNL d   1      24.867 -16.509  -1.617  0.00  0.00     0.042 A 
ENDROOT
BRANCH   7   8
ATOM      8  N   UNL d   1      23.575 -17.133  -1.397  0.00  0.00    -0.322 N 
ATOM      9  C   UNL d   1      23.137 -17.833  -0.274  0.00  0.00     0.257 C 
ATOM     10  O   UNL d   1      23.734 -18.161   0.750  0.00  0.00    -0.267 OA
ATOM     11  H   UNL d   1      22.907 -17.002  -2.150  0.00  0.00     0.169 HD
BRANCH   9  12
ATOM     12  C   UNL d   1      21.780 -18.340  -0.153  0.00  0.00     0.051 A 
ATOM     13  C   UNL d   1      21.001 -18.578  -1.265  0.00  0.00     0.135 A 
ATOM     14  N   UNL d   1      19.874 -19.325  -1.217  0.00  0.00    -0.246 NA
ATOM     15  C   UNL d   1      19.536 -19.867  -0.012  0.00  0.00     0.147 A 
ATOM     16 CL   UNL d   1      18.089 -20.792  -0.077  0.00  0.00    -0.061 Cl
ATOM     17  C   UNL d   1      20.267 -19.701   1.158  0.00  0.00     0.075 A 
ATOM     18 CL   UNL d   1      19.821 -20.364   2.682  0.00  0.00    -0.081 Cl
ATOM     19  C   UNL d   1      21.422 -18.943   1.072  0.00  0.00     0.045 A 
ENDBRANCH   9  12
ENDBRANCH   7   8
BRANCH   5  20
ATOM     20  C   UNL d   1      26.217 -13.360  -3.410  0.00  0.00     0.249 C 
ATOM     21  N   UNL d   1      25.111 -12.997  -4.145  0.00  0.00    -0.366 N 
ATOM     22  H   UNL d   1      24.247 -13.512  -4.211  0.00  0.00     0.159 HD
ATOM     23  H   UNL d   1      25.159 -12.138  -4.677  0.00  0.00     0.159 HD
ATOM     24  O   UNL d   1      27.215 -12.651  -3.414  0.00  0.00    -0.268 OA
ENDBRANCH   5  20
TORSDOF 3
ENDMDL
