MODEL 1
REMARK VINA RESULT:   -27.662      0.000      0.000
REMARK INTER + INTRA:         -30.102
REMARK INTER:                 -28.557
REMARK INTRA:                  -1.545
REMARK CONF_INDEPENDENT:        0.895
REMARK UNBOUND:                -1.545
REMARK  3 active torsions:
REMARK  status: ('A' for Active; 'I' for Inactive)
REMARK       I    between atoms: C_2  and  N_4 
REMARK    1  A    between atoms: N_4  and  C_5 
REMARK    2  A    between atoms: C_11  and  N_12 
REMARK       I    between atoms: N_12  and  C_13 
REMARK    3  A    between atoms: C_13  and  C_15 
ROOT
ATOM      1  C   UNL d   1      25.508 -16.217  -0.524  0.00  0.00     0.061 A 
ATOM      2  C   UNL d   1      26.374 -15.214  -0.970  0.00  0.00     0.033 A 
ATOM      3  C   UNL d   1      26.080 -14.453  -2.090  0.00  0.00     0.026 A 
ATOM      4  C   UNL d   1      24.894 -14.683  -2.771  0.00  0.00     0.036 A 
ATOM      5 CL   UNL d   1      24.537 -13.711  -4.149  0.00  0.00    -0.084 Cl
ATOM      6  C   UNL d   1      24.004 -15.688  -2.349  0.00  0.00     0.055 A 
ATOM      7  C   UNL d   1      24.298 -16.489  -1.216  0.00  0.00     0.063 A 
ENDROOT
BRANCH   7   8
ATOM      8  N   UNL d   1      23.314 -17.467  -0.835  0.00  0.00    -0.320 N 
ATOM      9  C   UNL d   1      21.931 -17.352  -0.929  0.00  0.00     0.274 C 
ATOM     10  O   UNL d   1      21.277 -16.364  -1.263  0.00  0.00    -0.266 OA
ATOM     11  H   UNL d   1      23.678 -18.365  -0.530  0.00  0.00     0.169 HD
BRANCH   9  12
ATOM     12  C   UNL d   1      21.079 -18.476  -0.532  0.00  0.00     0.124 A 
ATOM     13  C   UNL d   1      21.400 -19.209   0.593  0.00  0.00     0.037 A 
ATOM     14  C   UNL d   1      20.493 -20.179   0.992  0.00  0.00     0.004 A 
ATOM     15  C   UNL d   1      19.295 -20.337   0.290  0.00  0.00     0.019 A 
ATOM     16  C   UNL d   1      19.030 -19.499  -0.777  0.00  0.00     0.117 A 
ATOM     17  N   UNL d   1      19.904 -18.580  -1.211  0.00  0.00    -0.256 NA
ENDBRANCH   9  12
ENDBRANCH   7   8
BRANCH   1  18
ATOM     18  N   UNL d   1      25.964 -16.948   0.593  0.00  0.00    -0.326 N 
ATOM     19  C   UNL d   1      25.932 -18.334   0.618  0.00  0.00     0.218 C 
ATOM     20  C   UNL d   1      26.786 -18.947   1.708  0.00  0.00     0.117 C 
ATOM     21  O   UNL d   1      25.308 -19.039  -0.172  0.00  0.00    -0.274 OA
ATOM     22  H   UNL d   1      26.802 -16.579   1.037  0.00  0.00     0.169 HD
ENDBRANCH   1  18
TORSDOF 3
ENDMDL
MODEL 2
REMARK VINA RESULT:   -26.991      2.273      3.768
REMARK INTER + INTRA:         -28.556
REMARK INTER:                 -27.886
REMARK INTRA:                  -0.670
REMARK CONF_INDEPENDENT:        0.895
REMARK UNBOUND:                -0.670
REMARK  3 active torsions:
REMARK  status: ('A' for Active; 'I' for Inactive)
REMARK       I    between atoms: C_2  and  N_4 
REMARK    1  A    between atoms: N_4  and  C_5 
REMARK    2  A    between atoms: C_11  and  N_12 
REMARK       I    between atoms: N_12  and  C_13 
REMARK    3  A    between atoms: C_13  and  C_15 
ROOT
ATOM      1  C   UNL d   1      23.741 -15.416  -1.959  0.00  0.00     0.061 A 
ATOM      2  C   UNL d   1      24.923 -14.818  -2.409  0.00  0.00     0.033 A 
ATOM      3  C   UNL d   1      26.164 -15.346  -2.093  0.00  0.00     0.026 A 
ATOM      4  C   UNL d   1      26.233 -16.500  -1.327  0.00  0.00     0.036 A 
ATOM      5 CL   UNL d   1      27.787 -17.151  -0.964  0.00  0.00    -0.084 Cl
ATOM      6  C   UNL d   1      25.063 -17.122  -0.856  0.00  0.00     0.055 A 
ATOM      7  C   UNL d   1      23.784 -16.586  -1.154  0.00  0.00     0.063 A 
ENDROOT
BRANCH   7   8
ATOM      8  N   UNL d   1      22.642 -17.308  -0.662  0.00  0.00    -0.320 N 
ATOM      9  C   UNL d   1      22.156 -18.529  -1.119  0.00  0.00     0.274 C 
ATOM     10  O   UNL d   1      22.544 -19.181  -2.088  0.00  0.00    -0.266 OA
ATOM     11  H   UNL d   1      22.186 -16.912   0.155  0.00  0.00     0.169 HD
BRANCH   9  12
ATOM     12  C   UNL d   1      20.998 -19.143  -0.462  0.00  0.00     0.124 A 
ATOM     13  C   UNL d   1      21.006 -19.316   0.907  0.00  0.00     0.037 A 
ATOM     14  C   UNL d   1      19.837 -19.785   1.488  0.00  0.00     0.004 A 
ATOM     15  C   UNL d   1      18.709 -20.005   0.694  0.00  0.00     0.019 A 
ATOM     16  C   UNL d   1      18.778 -19.724  -0.659  0.00  0.00     0.117 A 
ATOM     17  N   UNL d   1      19.905 -19.309  -1.256  0.00  0.00    -0.256 NA
ENDBRANCH   9  12
ENDBRANCH   7   8
BRANCH   1  18
ATOM     18  N   UNL d   1      22.555 -14.738  -2.309  0.00  0.00    -0.326 N 
ATOM     19  C   UNL d   1      22.427 -14.075  -3.520  0.00  0.00     0.218 C 
ATOM     20  C   UNL d   1      20.997 -13.733  -3.882  0.00  0.00     0.117 C 
ATOM     21  O   UNL d   1      23.356 -13.799  -4.275  0.00  0.00    -0.274 OA
ATOM     22  H   UNL d   1      21.694 -15.209  -2.040  0.00  0.00     0.169 HD
ENDBRANCH   1  18
TORSDOF 3
ENDMDL
