MODEL 1
REMARK VINA RESULT:    -9.703      0.000      0.000
REMARK INTER + INTRA:         -12.229
REMARK INTER:                 -11.195
REMARK INTRA:                  -1.035
REMARK CONF_INDEPENDENT:        1.492
REMARK UNBOUND:                -1.035
REMARK  5 active torsions:
REMARK  status: ('A' for Active; 'I' for Inactive)
REMARK    1  A    between atoms: C_2  and  C_3 
REMARK       I    between atoms: C_2  and  N_21 
REMARK    2  A    between atoms: C_3  and  N_4 
REMARK    3  A    between atoms: N_7  and  C_8 
REMARK    4  A    between atoms: C_8  and  C_9 
REMARK    5  A    between atoms: N_21  and  C_22 
ROOT
ATOM      1  N   UNL d   1      28.707 -14.769   3.400  0.00  0.00     0.100 N 
ATOM      2  C   UNL d   1      29.696 -13.651   3.495  0.00  0.00     0.303 C 
ATOM      3  C   UNL d   1      29.222 -12.418   4.338  0.00  0.00     0.303 C 
ATOM      4  N   UNL d   1      28.713 -12.797   5.686  0.00  0.00     0.097 N 
ATOM      5  C   UNL d   1      27.627 -13.776   5.441  0.00  0.00     0.303 C 
ATOM      6  C   UNL d   1      28.150 -15.063   4.725  0.00  0.00     0.303 C 
ENDROOT
BRANCH   1   7
ATOM      7  C   UNL d   1      27.573 -14.346   2.562  0.00  0.00     0.375 C 
BRANCH   7   8
ATOM      8  C   UNL d   1      27.901 -13.377   1.409  0.00  0.00     0.250 C 
ATOM      9  O   UNL d   1      27.988 -12.159   1.530  0.00  0.00    -0.271 OA
ATOM     10  N   UNL d   1      28.196 -14.029   0.193  0.00  0.00    -0.326 N 
ATOM     11  H   UNL d   1      28.540 -13.437  -0.558  0.00  0.00     0.169 HD
BRANCH  10  12
ATOM     12  C   UNL d   1      27.817 -15.373  -0.026  0.00  0.00     0.037 C 
ATOM     13  C   UNL d   1      28.536 -16.511  -0.219  0.00  0.00     0.029 C 
ATOM     14  C   UNL d   1      27.770 -17.906  -0.147  0.00  0.00     0.024 C 
ATOM     15  C   UNL d   1      26.377 -17.898   0.246  0.00  0.00     0.168 C 
ATOM     16  C   UNL d   1      26.040 -16.898  -0.515  0.00  0.00     0.090 C 
ATOM     17  O   UNL d   1      25.301 -18.554   0.310  0.00  0.00    -0.365 OA
ATOM     18  C   UNL d   1      26.487 -15.594  -0.272  0.00  0.00     0.065 C 
ATOM     19  O   UNL d   1      25.371 -17.004  -1.752  0.00  0.00    -0.352 OA
ATOM     20  C   UNL d   1      23.999 -16.743  -1.468  0.00  0.00     0.177 C 
ATOM     21  C   UNL d   1      23.332 -18.014  -1.280  0.00  0.00     0.053 C 
ATOM     22  C   UNL d   1      23.802 -18.246   0.236  0.00  0.00     0.172 C 
ENDBRANCH  10  12
ENDBRANCH   7   8
ENDBRANCH   1   7
BRANCH   4  23
ATOM     23  C   UNL d   1      29.823 -13.348   6.488  0.00  0.00     0.329 C 
BRANCH  23  24
ATOM     24  C   UNL d   1      29.506 -13.537   7.962  0.00  0.00     0.044 C 
ATOM     25  C   UNL d   1      28.562 -12.831   8.613  0.00  0.00     0.101 C 
ATOM     26  C   UNL d   1      28.416 -12.927  10.042  0.00  0.00     0.255 C 
ATOM     27  O   UNL d   1      27.720 -12.201  10.720  0.00  0.00    -0.268 OA
ATOM     28  N   UNL d   1      29.156 -13.965  10.592  0.00  0.00    -0.269 N 
ATOM     29  C   UNL d   1      29.071 -14.342  11.911  0.00  0.00     0.109 A 
ATOM     30  C   UNL d   1      29.997 -14.710   9.901  0.00  0.00     0.158 A 
ATOM     31  C   UNL d   1      29.832 -15.406  12.201  0.00  0.00     0.071 A 
ATOM     32  S   UNL d   1      30.748 -15.974  10.821  0.00  0.00    -0.064 SA
ATOM     33  N   UNL d   1      30.224 -14.510   8.626  0.00  0.00    -0.338 N 
ATOM     34  H   UNL d   1      30.904 -15.101   8.155  0.00  0.00     0.168 HD
ENDBRANCH  23  24
ENDBRANCH   4  23
TORSDOF 5
ENDMDL
MODEL 2
REMARK VINA RESULT:    -9.670      1.247      1.480
REMARK INTER + INTRA:         -12.113
REMARK INTER:                 -11.161
REMARK INTRA:                  -0.952
REMARK CONF_INDEPENDENT:        1.492
REMARK UNBOUND:                -0.952
REMARK  5 active torsions:
REMARK  status: ('A' for Active; 'I' for Inactive)
REMARK    1  A    between atoms: C_2  and  C_3 
REMARK       I    between atoms: C_2  and  N_21 
REMARK    2  A    between atoms: C_3  and  N_4 
REMARK    3  A    between atoms: N_7  and  C_8 
REMARK    4  A    between atoms: C_8  and  C_9 
REMARK    5  A    between atoms: N_21  and  C_22 
ROOT
ATOM      1  N   UNL d   1      28.645 -13.171   2.886  0.00  0.00     0.100 N 
ATOM      2  C   UNL d   1      28.211 -12.381   4.078  0.00  0.00     0.303 C 
ATOM      3  C   UNL d   1      27.478 -13.208   5.189  0.00  0.00     0.303 C 
ATOM      4  N   UNL d   1      28.235 -14.424   5.602  0.00  0.00     0.097 N 
ATOM      5  C   UNL d   1      28.450 -15.200   4.357  0.00  0.00     0.303 C 
ATOM      6  C   UNL d   1      29.306 -14.410   3.315  0.00  0.00     0.303 C 
ENDROOT
BRANCH   1   7
ATOM      7  C   UNL d   1      27.460 -13.584   2.115  0.00  0.00     0.375 C 
BRANCH   7   8
ATOM      8  C   UNL d   1      27.176 -12.789   0.826  0.00  0.00     0.250 C 
ATOM      9  O   UNL d   1      27.020 -11.571   0.781  0.00  0.00    -0.271 OA
ATOM     10  N   UNL d   1      27.204 -13.580  -0.341  0.00  0.00    -0.326 N 
ATOM     11  H   UNL d   1      27.147 -13.077  -1.222  0.00  0.00     0.169 HD
BRANCH  10  12
ATOM     12  C   UNL d   1      27.088 -14.987  -0.273  0.00  0.00     0.037 C 
ATOM     13  C   UNL d   1      28.007 -15.981  -0.146  0.00  0.00     0.029 C 
ATOM     14  C   UNL d   1      27.488 -17.449   0.188  0.00  0.00     0.024 C 
ATOM     15  C   UNL d   1      26.077 -17.625   0.465  0.00  0.00     0.168 C 
ATOM     16  C   UNL d   1      25.665 -16.893  -0.528  0.00  0.00     0.090 C 
ATOM     17  O   UNL d   1      25.129 -18.447   0.599  0.00  0.00    -0.365 OA
ATOM     18  C   UNL d   1      25.852 -15.507  -0.558  0.00  0.00     0.065 C 
ATOM     19  O   UNL d   1      25.171 -17.386  -1.753  0.00  0.00    -0.352 OA
ATOM     20  C   UNL d   1      23.751 -17.339  -1.639  0.00  0.00     0.177 C 
ATOM     21  C   UNL d   1      23.293 -18.645  -1.214  0.00  0.00     0.053 C 
ATOM     22  C   UNL d   1      23.618 -18.455   0.345  0.00  0.00     0.172 C 
ENDBRANCH  10  12
ENDBRANCH   7   8
ENDBRANCH   1   7
BRANCH   4  23
ATOM     23  C   UNL d   1      29.492 -14.016   6.258  0.00  0.00     0.329 C 
BRANCH  23  24
ATOM     24  C   UNL d   1      29.315 -13.395   7.634  0.00  0.00     0.044 C 
ATOM     25  C   UNL d   1      29.406 -12.071   7.866  0.00  0.00     0.101 C 
ATOM     26  C   UNL d   1      29.399 -11.550   9.207  0.00  0.00     0.255 C 
ATOM     27  O   UNL d   1      29.654 -10.403   9.510  0.00  0.00    -0.268 OA
ATOM     28  N   UNL d   1      29.053 -12.504  10.156  0.00  0.00    -0.269 N 
ATOM     29  C   UNL d   1      28.844 -12.214  11.482  0.00  0.00     0.109 A 
ATOM     30  C   UNL d   1      28.867 -13.779   9.875  0.00  0.00     0.158 A 
ATOM     31  C   UNL d   1      28.461 -13.280  12.197  0.00  0.00     0.071 A 
ATOM     32  S   UNL d   1      28.386 -14.742  11.236  0.00  0.00    -0.064 SA
ATOM     33  N   UNL d   1      29.021 -14.260   8.666  0.00  0.00    -0.338 N 
ATOM     34  H   UNL d   1      28.890 -15.257   8.520  0.00  0.00     0.168 HD
ENDBRANCH  23  24
ENDBRANCH   4  23
TORSDOF 5
ENDMDL
MODEL 3
REMARK VINA RESULT:    -9.528      1.366      1.582
REMARK INTER + INTRA:         -12.069
REMARK INTER:                 -11.020
REMARK INTRA:                  -1.049
REMARK CONF_INDEPENDENT:        1.492
REMARK UNBOUND:                -1.049
REMARK  5 active torsions:
REMARK  status: ('A' for Active; 'I' for Inactive)
REMARK    1  A    between atoms: C_2  and  C_3 
REMARK       I    between atoms: C_2  and  N_21 
REMARK    2  A    between atoms: C_3  and  N_4 
REMARK    3  A    between atoms: N_7  and  C_8 
REMARK    4  A    between atoms: C_8  and  C_9 
REMARK    5  A    between atoms: N_21  and  C_22 
ROOT
ATOM      1  N   UNL d   1      29.095 -14.650   3.459  0.00  0.00     0.100 N 
ATOM      2  C   UNL d   1      29.841 -13.357   3.538  0.00  0.00     0.303 C 
ATOM      3  C   UNL d   1      29.249 -12.312   4.545  0.00  0.00     0.303 C 
ATOM      4  N   UNL d   1      29.020 -12.879   5.903  0.00  0.00     0.097 N 
ATOM      5  C   UNL d   1      28.131 -14.048   5.701  0.00  0.00     0.303 C 
ATOM      6  C   UNL d   1      28.799 -15.144   4.808  0.00  0.00     0.303 C 
ENDROOT
BRANCH   1   7
ATOM      7  C   UNL d   1      27.793 -14.424   2.809  0.00  0.00     0.375 C 
BRANCH   7   8
ATOM      8  C   UNL d   1      27.763 -13.357   1.698  0.00  0.00     0.250 C 
ATOM      9  O   UNL d   1      27.765 -12.145   1.898  0.00  0.00    -0.271 OA
ATOM     10  N   UNL d   1      27.832 -13.897   0.397  0.00  0.00    -0.326 N 
ATOM     11  H   UNL d   1      27.942 -13.227  -0.360  0.00  0.00     0.169 HD
BRANCH  10  12
ATOM     12  C   UNL d   1      27.536 -15.258   0.154  0.00  0.00     0.037 C 
ATOM     13  C   UNL d   1      28.323 -16.352  -0.027  0.00  0.00     0.029 C 
ATOM     14  C   UNL d   1      27.635 -17.788   0.009  0.00  0.00     0.024 C 
ATOM     15  C   UNL d   1      26.232 -17.862   0.359  0.00  0.00     0.168 C 
ATOM     16  C   UNL d   1      25.863 -16.874  -0.403  0.00  0.00     0.090 C 
ATOM     17  O   UNL d   1      25.193 -18.578   0.384  0.00  0.00    -0.365 OA
ATOM     18  C   UNL d   1      26.229 -15.550  -0.135  0.00  0.00     0.065 C 
ATOM     19  O   UNL d   1      25.240 -17.005  -1.662  0.00  0.00    -0.352 OA
ATOM     20  C   UNL d   1      23.847 -16.824  -1.418  0.00  0.00     0.177 C 
ATOM     21  C   UNL d   1      23.247 -18.132  -1.262  0.00  0.00     0.053 C 
ATOM     22  C   UNL d   1      23.682 -18.352   0.265  0.00  0.00     0.172 C 
ENDBRANCH  10  12
ENDBRANCH   7   8
ENDBRANCH   1   7
BRANCH   4  23
ATOM     23  C   UNL d   1      30.319 -13.233   6.508  0.00  0.00     0.329 C 
BRANCH  23  24
ATOM     24  C   UNL d   1      30.236 -13.718   7.946  0.00  0.00     0.044 C 
ATOM     25  C   UNL d   1      31.163 -14.513   8.514  0.00  0.00     0.101 C 
ATOM     26  C   UNL d   1      30.956 -15.081   9.820  0.00  0.00     0.255 C 
ATOM     27  O   UNL d   1      31.648 -15.940  10.323  0.00  0.00    -0.268 OA
ATOM     28  N   UNL d   1      29.863 -14.533  10.480  0.00  0.00    -0.269 N 
ATOM     29  C   UNL d   1      29.548 -14.812  11.787  0.00  0.00     0.109 A 
ATOM     30  C   UNL d   1      29.033 -13.671   9.926  0.00  0.00     0.158 A 
ATOM     31  C   UNL d   1      28.488 -14.122  12.230  0.00  0.00     0.071 A 
ATOM     32  S   UNL d   1      27.787 -13.101  10.992  0.00  0.00    -0.064 SA
ATOM     33  N   UNL d   1      29.157 -13.277   8.683  0.00  0.00    -0.338 N 
ATOM     34  H   UNL d   1      28.468 -12.632   8.306  0.00  0.00     0.168 HD
ENDBRANCH  23  24
ENDBRANCH   4  23
TORSDOF 5
ENDMDL
MODEL 4
REMARK VINA RESULT:    -9.262      1.747      2.474
REMARK INTER + INTRA:         -11.686
REMARK INTER:                 -10.753
REMARK INTRA:                  -0.932
REMARK CONF_INDEPENDENT:        1.492
REMARK UNBOUND:                -0.932
REMARK  5 active torsions:
REMARK  status: ('A' for Active; 'I' for Inactive)
REMARK    1  A    between atoms: C_2  and  C_3 
REMARK       I    between atoms: C_2  and  N_21 
REMARK    2  A    between atoms: C_3  and  N_4 
REMARK    3  A    between atoms: N_7  and  C_8 
REMARK    4  A    between atoms: C_8  and  C_9 
REMARK    5  A    between atoms: N_21  and  C_22 
ROOT
ATOM      1  N   UNL d   1      29.082 -13.865   1.982  0.00  0.00     0.100 N 
ATOM      2  C   UNL d   1      28.196 -13.737   3.180  0.00  0.00     0.303 C 
ATOM      3  C   UNL d   1      28.583 -14.655   4.390  0.00  0.00     0.303 C 
ATOM      4  N   UNL d   1      30.018 -14.537   4.772  0.00  0.00     0.097 N 
ATOM      5  C   UNL d   1      30.784 -14.855   3.544  0.00  0.00     0.303 C 
ATOM      6  C   UNL d   1      30.491 -13.840   2.392  0.00  0.00     0.303 C 
ENDROOT
BRANCH   1   7
ATOM      7  C   UNL d   1      28.861 -15.177   1.350  0.00  0.00     0.375 C 
BRANCH   7   8
ATOM      8  C   UNL d   1      29.840 -15.564   0.224  0.00  0.00     0.250 C 
ATOM      9  O   UNL d   1      31.063 -15.511   0.319  0.00  0.00    -0.271 OA
ATOM     10  N   UNL d   1      29.203 -16.086  -0.921  0.00  0.00    -0.326 N 
ATOM     11  H   UNL d   1      29.815 -16.469  -1.636  0.00  0.00     0.169 HD
BRANCH  10  12
ATOM     12  C   UNL d   1      27.824 -15.877  -1.149  0.00  0.00     0.037 C 
ATOM     13  C   UNL d   1      27.114 -14.796  -1.569  0.00  0.00     0.029 C 
ATOM     14  C   UNL d   1      25.593 -15.011  -1.991  0.00  0.00     0.024 C 
ATOM     15  C   UNL d   1      25.082 -16.365  -2.026  0.00  0.00     0.168 C 
ATOM     16  C   UNL d   1      25.601 -16.722  -0.888  0.00  0.00     0.090 C 
ATOM     17  O   UNL d   1      24.057 -17.098  -2.090  0.00  0.00    -0.365 OA
ATOM     18  C   UNL d   1      26.982 -16.867  -0.712  0.00  0.00     0.065 C 
ATOM     19  O   UNL d   1      24.901 -16.818   0.333  0.00  0.00    -0.352 OA
ATOM     20  C   UNL d   1      24.589 -18.200   0.486  0.00  0.00     0.177 C 
ATOM     21  C   UNL d   1      23.248 -18.414  -0.014  0.00  0.00     0.053 C 
ATOM     22  C   UNL d   1      23.639 -18.476  -1.568  0.00  0.00     0.172 C 
ENDBRANCH  10  12
ENDBRANCH   7   8
ENDBRANCH   1   7
BRANCH   4  23
ATOM     23  C   UNL d   1      30.275 -13.177   5.284  0.00  0.00     0.329 C 
BRANCH  23  24
ATOM     24  C   UNL d   1      29.677 -12.891   6.651  0.00  0.00     0.044 C 
ATOM     25  C   UNL d   1      29.199 -11.685   7.013  0.00  0.00     0.101 C 
ATOM     26  C   UNL d   1      28.799 -11.420   8.370  0.00  0.00     0.255 C 
ATOM     27  O   UNL d   1      28.531 -10.325   8.816  0.00  0.00    -0.268 OA
ATOM     28  N   UNL d   1      28.735 -12.569   9.148  0.00  0.00    -0.269 N 
ATOM     29  C   UNL d   1      28.246 -12.590  10.431  0.00  0.00     0.109 A 
ATOM     30  C   UNL d   1      29.113 -13.760   8.725  0.00  0.00     0.158 A 
ATOM     31  C   UNL d   1      28.225 -13.820  10.964  0.00  0.00     0.071 A 
ATOM     32  S   UNL d   1      28.873 -15.033   9.880  0.00  0.00    -0.064 SA
ATOM     33  N   UNL d   1      29.612 -13.952   7.529  0.00  0.00    -0.338 N 
ATOM     34  H   UNL d   1      29.911 -14.889   7.272  0.00  0.00     0.168 HD
ENDBRANCH  23  24
ENDBRANCH   4  23
TORSDOF 5
ENDMDL
MODEL 5
REMARK VINA RESULT:    -8.711      3.163      5.553
REMARK INTER + INTRA:         -11.248
REMARK INTER:                 -10.203
REMARK INTRA:                  -1.045
REMARK CONF_INDEPENDENT:        1.492
REMARK UNBOUND:                -1.045
REMARK  5 active torsions:
REMARK  status: ('A' for Active; 'I' for Inactive)
REMARK    1  A    between atoms: C_2  and  C_3 
REMARK       I    between atoms: C_2  and  N_21 
REMARK    2  A    between atoms: C_3  and  N_4 
REMARK    3  A    between atoms: N_7  and  C_8 
REMARK    4  A    between atoms: C_8  and  C_9 
REMARK    5  A    between atoms: N_21  and  C_22 
ROOT
ATOM      1  N   UNL d   1      27.589 -16.300   0.794  0.00  0.00     0.100 N 
ATOM      2  C   UNL d   1      28.885 -16.716   0.175  0.00  0.00     0.303 C 
ATOM      3  C   UNL d   1      29.712 -15.554  -0.474  0.00  0.00     0.303 C 
ATOM      4  N   UNL d   1      29.907 -14.397   0.445  0.00  0.00     0.097 N 
ATOM      5  C   UNL d   1      28.544 -13.976   0.848  0.00  0.00     0.303 C 
ATOM      6  C   UNL d   1      27.787 -15.104   1.621  0.00  0.00     0.303 C 
ENDROOT
BRANCH   1   7
ATOM      7  C   UNL d   1      26.643 -15.915  -0.267  0.00  0.00     0.375 C 
BRANCH   7   8
ATOM      8  C   UNL d   1      25.599 -16.975  -0.666  0.00  0.00     0.250 C 
ATOM      9  O   UNL d   1      25.419 -18.032  -0.067  0.00  0.00    -0.271 OA
ATOM     10  N   UNL d   1      24.782 -16.582  -1.747  0.00  0.00    -0.326 N 
ATOM     11  H   UNL d   1      24.001 -17.196  -1.961  0.00  0.00     0.169 HD
BRANCH  10  12
ATOM     12  C   UNL d   1      25.166 -15.530  -2.608  0.00  0.00     0.037 C 
ATOM     13  C   UNL d   1      24.500 -14.449  -3.093  0.00  0.00     0.029 C 
ATOM     14  C   UNL d   1      25.343 -13.307  -3.817  0.00  0.00     0.024 C 
ATOM     15  C   UNL d   1      26.786 -13.418  -3.808  0.00  0.00     0.168 C 
ATOM     16  C   UNL d   1      26.814 -14.681  -4.120  0.00  0.00     0.090 C 
ATOM     17  O   UNL d   1      27.873 -13.002  -4.295  0.00  0.00    -0.365 OA
ATOM     18  C   UNL d   1      26.375 -15.675  -3.238  0.00  0.00     0.065 C 
ATOM     19  O   UNL d   1      27.090 -15.198  -5.403  0.00  0.00    -0.352 OA
ATOM     20  C   UNL d   1      28.464 -15.575  -5.374  0.00  0.00     0.177 C 
ATOM     21  C   UNL d   1      29.240 -14.482  -5.921  0.00  0.00     0.053 C 
ATOM     22  C   UNL d   1      29.258 -13.587  -4.589  0.00  0.00     0.172 C 
ENDBRANCH  10  12
ENDBRANCH   7   8
ENDBRANCH   1   7
BRANCH   4  23
ATOM     23  C   UNL d   1      30.748 -14.816   1.583  0.00  0.00     0.329 C 
BRANCH  23  24
ATOM     24  C   UNL d   1      30.517 -14.030   2.863  0.00  0.00     0.044 C 
ATOM     25  C   UNL d   1      30.974 -12.777   3.055  0.00  0.00     0.101 C 
ATOM     26  C   UNL d   1      30.878 -12.140   4.342  0.00  0.00     0.255 C 
ATOM     27  O   UNL d   1      31.418 -11.097   4.644  0.00  0.00    -0.268 OA
ATOM     28  N   UNL d   1      30.076 -12.841   5.233  0.00  0.00    -0.269 N 
ATOM     29  C   UNL d   1      29.720 -12.364   6.471  0.00  0.00     0.109 A 
ATOM     30  C   UNL d   1      29.554 -14.024   4.971  0.00  0.00     0.158 A 
ATOM     31  C   UNL d   1      28.892 -13.185   7.131  0.00  0.00     0.071 A 
ATOM     32  S   UNL d   1      28.544 -14.650   6.236  0.00  0.00    -0.064 SA
ATOM     33  N   UNL d   1      29.775 -14.653   3.844  0.00  0.00    -0.338 N 
ATOM     34  H   UNL d   1      29.367 -15.575   3.714  0.00  0.00     0.168 HD
ENDBRANCH  23  24
ENDBRANCH   4  23
TORSDOF 5
ENDMDL
MODEL 6
REMARK VINA RESULT:    -8.710      3.115      9.405
REMARK INTER + INTRA:         -11.303
REMARK INTER:                 -10.201
REMARK INTRA:                  -1.102
REMARK CONF_INDEPENDENT:        1.492
REMARK UNBOUND:                -1.102
REMARK  5 active torsions:
REMARK  status: ('A' for Active; 'I' for Inactive)
REMARK    1  A    between atoms: C_2  and  C_3 
REMARK       I    between atoms: C_2  and  N_21 
REMARK    2  A    between atoms: C_3  and  N_4 
REMARK    3  A    between atoms: N_7  and  C_8 
REMARK    4  A    between atoms: C_8  and  C_9 
REMARK    5  A    between atoms: N_21  and  C_22 
ROOT
ATOM      1  N   UNL d   1      28.935 -11.653   1.829  0.00  0.00     0.100 N 
ATOM      2  C   UNL d   1      30.120 -12.396   1.300  0.00  0.00     0.303 C 
ATOM      3  C   UNL d   1      30.156 -13.922   1.653  0.00  0.00     0.303 C 
ATOM      4  N   UNL d   1      28.888 -14.627   1.312  0.00  0.00     0.097 N 
ATOM      5  C   UNL d   1      27.820 -13.896   2.035  0.00  0.00     0.303 C 
ATOM      6  C   UNL d   1      27.706 -12.410   1.564  0.00  0.00     0.303 C 
ENDROOT
BRANCH   1   7
ATOM      7  C   UNL d   1      29.043 -11.543   3.293  0.00  0.00     0.375 C 
BRANCH   7   8
ATOM      8  C   UNL d   1      28.089 -10.541   3.972  0.00  0.00     0.250 C 
ATOM      9  O   UNL d   1      27.865  -9.406   3.559  0.00  0.00    -0.271 OA
ATOM     10  N   UNL d   1      27.404 -11.079   5.082  0.00  0.00    -0.326 N 
ATOM     11  H   UNL d   1      26.674 -10.495   5.481  0.00  0.00     0.169 HD
BRANCH  10  12
ATOM     12  C   UNL d   1      27.863 -12.250   5.726  0.00  0.00     0.037 C 
ATOM     13  C   UNL d   1      27.760 -13.571   5.418  0.00  0.00     0.029 C 
ATOM     14  C   UNL d   1      28.655 -14.606   6.233  0.00  0.00     0.024 C 
ATOM     15  C   UNL d   1      29.623 -14.078   7.170  0.00  0.00     0.168 C 
ATOM     16  C   UNL d   1      28.817 -13.205   7.701  0.00  0.00     0.090 C 
ATOM     17  O   UNL d   1      30.403 -14.333   8.128  0.00  0.00    -0.365 OA
ATOM     18  C   UNL d   1      28.360 -12.088   6.993  0.00  0.00     0.065 C 
ATOM     19  O   UNL d   1      28.158 -13.352   8.939  0.00  0.00    -0.352 OA
ATOM     20  C   UNL d   1      28.941 -12.620   9.877  0.00  0.00     0.177 C 
ATOM     21  C   UNL d   1      29.841 -13.547  10.529  0.00  0.00     0.053 C 
ATOM     22  C   UNL d   1      30.937 -13.592   9.358  0.00  0.00     0.172 C 
ENDBRANCH  10  12
ENDBRANCH   7   8
ENDBRANCH   1   7
BRANCH   4  23
ATOM     23  C   UNL d   1      28.708 -14.623  -0.153  0.00  0.00     0.329 C 
BRANCH  23  24
ATOM     24  C   UNL d   1      27.410 -15.251  -0.632  0.00  0.00     0.044 C 
ATOM     25  C   UNL d   1      26.782 -14.880  -1.765  0.00  0.00     0.101 C 
ATOM     26  C   UNL d   1      25.473 -15.384  -2.087  0.00  0.00     0.255 C 
ATOM     27  O   UNL d   1      24.769 -14.969  -2.984  0.00  0.00    -0.268 OA
ATOM     28  N   UNL d   1      25.078 -16.429  -1.262  0.00  0.00    -0.269 N 
ATOM     29  C   UNL d   1      23.933 -17.163  -1.461  0.00  0.00     0.109 A 
ATOM     30  C   UNL d   1      25.773 -16.839  -0.219  0.00  0.00     0.158 A 
ATOM     31  C   UNL d   1      23.788 -18.158  -0.576  0.00  0.00     0.071 A 
ATOM     32  S   UNL d   1      25.080 -18.200   0.605  0.00  0.00    -0.064 SA
ATOM     33  N   UNL d   1      26.895 -16.268   0.144  0.00  0.00    -0.338 N 
ATOM     34  H   UNL d   1      27.369 -16.613   0.974  0.00  0.00     0.168 HD
ENDBRANCH  23  24
ENDBRANCH   4  23
TORSDOF 5
ENDMDL
MODEL 7
REMARK VINA RESULT:    -8.691      3.433      9.233
REMARK INTER + INTRA:         -11.327
REMARK INTER:                 -10.182
REMARK INTRA:                  -1.145
REMARK CONF_INDEPENDENT:        1.492
REMARK UNBOUND:                -1.145
REMARK  5 active torsions:
REMARK  status: ('A' for Active; 'I' for Inactive)
REMARK    1  A    between atoms: C_2  and  C_3 
REMARK       I    between atoms: C_2  and  N_21 
REMARK    2  A    between atoms: C_3  and  N_4 
REMARK    3  A    between atoms: N_7  and  C_8 
REMARK    4  A    between atoms: C_8  and  C_9 
REMARK    5  A    between atoms: N_21  and  C_22 
ROOT
ATOM      1  N   UNL d   1      29.741 -14.826   1.773  0.00  0.00     0.100 N 
ATOM      2  C   UNL d   1      28.488 -14.631   0.980  0.00  0.00     0.303 C 
ATOM      3  C   UNL d   1      28.702 -14.069  -0.467  0.00  0.00     0.303 C 
ATOM      4  N   UNL d   1      29.712 -14.839  -1.246  0.00  0.00     0.097 N 
ATOM      5  C   UNL d   1      30.949 -14.810  -0.432  0.00  0.00     0.303 C 
ATOM      6  C   UNL d   1      30.754 -15.504   0.955  0.00  0.00     0.303 C 
ENDROOT
BRANCH   1   7
ATOM      7  C   UNL d   1      30.307 -13.512   2.122  0.00  0.00     0.375 C 
BRANCH   7   8
ATOM      8  C   UNL d   1      29.370 -12.301   1.954  0.00  0.00     0.250 C 
ATOM      9  O   UNL d   1      29.509 -11.428   1.101  0.00  0.00    -0.271 OA
ATOM     10  N   UNL d   1      28.256 -12.326   2.819  0.00  0.00    -0.326 N 
ATOM     11  H   UNL d   1      27.548 -11.615   2.656  0.00  0.00     0.169 HD
BRANCH  10  12
ATOM     12  C   UNL d   1      28.245 -13.143   3.972  0.00  0.00     0.037 C 
ATOM     13  C   UNL d   1      27.777 -14.398   4.206  0.00  0.00     0.029 C 
ATOM     14  C   UNL d   1      28.198 -15.117   5.564  0.00  0.00     0.024 C 
ATOM     15  C   UNL d   1      29.157 -14.450   6.418  0.00  0.00     0.168 C 
ATOM     16  C   UNL d   1      28.602 -13.276   6.334  0.00  0.00     0.090 C 
ATOM     17  O   UNL d   1      29.693 -14.406   7.560  0.00  0.00    -0.365 OA
ATOM     18  C   UNL d   1      28.605 -12.535   5.147  0.00  0.00     0.065 C 
ATOM     19  O   UNL d   1      27.780 -12.691   7.319  0.00  0.00    -0.352 OA
ATOM     20  C   UNL d   1      28.627 -11.806   8.046  0.00  0.00     0.177 C 
ATOM     21  C   UNL d   1      29.107 -12.507   9.218  0.00  0.00     0.053 C 
ATOM     22  C   UNL d   1      30.272 -13.324   8.478  0.00  0.00     0.172 C 
ENDBRANCH  10  12
ENDBRANCH   7   8
ENDBRANCH   1   7
BRANCH   4  23
ATOM     23  C   UNL d   1      29.203 -16.204  -1.485  0.00  0.00     0.329 C 
BRANCH  23  24
ATOM     24  C   UNL d   1      27.689 -16.313  -1.551  0.00  0.00     0.044 C 
ATOM     25  C   UNL d   1      26.947 -15.739  -2.518  0.00  0.00     0.101 C 
ATOM     26  C   UNL d   1      25.510 -15.728  -2.444  0.00  0.00     0.255 C 
ATOM     27  O   UNL d   1      24.780 -15.086  -3.169  0.00  0.00    -0.268 OA
ATOM     28  N   UNL d   1      25.014 -16.554  -1.442  0.00  0.00    -0.269 N 
ATOM     29  C   UNL d   1      23.677 -16.817  -1.268  0.00  0.00     0.109 A 
ATOM     30  C   UNL d   1      25.778 -17.189  -0.575  0.00  0.00     0.158 A 
ATOM     31  C   UNL d   1      23.440 -17.688  -0.278  0.00  0.00     0.071 A 
ATOM     32  S   UNL d   1      24.905 -18.200   0.533  0.00  0.00    -0.064 SA
ATOM     33  N   UNL d   1      27.083 -17.069  -0.570  0.00  0.00    -0.338 N 
ATOM     34  H   UNL d   1      27.614 -17.562   0.143  0.00  0.00     0.168 HD
ENDBRANCH  23  24
ENDBRANCH   4  23
TORSDOF 5
ENDMDL
MODEL 8
REMARK VINA RESULT:    -8.396      2.977      5.717
REMARK INTER + INTRA:         -11.505
REMARK INTER:                  -9.888
REMARK INTRA:                  -1.617
REMARK CONF_INDEPENDENT:        1.492
REMARK UNBOUND:                -1.617
REMARK  5 active torsions:
REMARK  status: ('A' for Active; 'I' for Inactive)
REMARK    1  A    between atoms: C_2  and  C_3 
REMARK       I    between atoms: C_2  and  N_21 
REMARK    2  A    between atoms: C_3  and  N_4 
REMARK    3  A    between atoms: N_7  and  C_8 
REMARK    4  A    between atoms: C_8  and  C_9 
REMARK    5  A    between atoms: N_21  and  C_22 
ROOT
ATOM      1  N   UNL d   1      27.883 -17.368   0.041  0.00  0.00     0.100 N 
ATOM      2  C   UNL d   1      29.198 -16.870  -0.466  0.00  0.00     0.303 C 
ATOM      3  C   UNL d   1      29.218 -15.360  -0.882  0.00  0.00     0.303 C 
ATOM      4  N   UNL d   1      28.679 -14.459   0.175  0.00  0.00     0.097 N 
ATOM      5  C   UNL d   1      27.313 -14.957   0.463  0.00  0.00     0.303 C 
ATOM      6  C   UNL d   1      27.326 -16.420   1.013  0.00  0.00     0.303 C 
ENDROOT
BRANCH   1   7
ATOM      7  C   UNL d   1      26.921 -17.428  -1.072  0.00  0.00     0.375 C 
BRANCH   7   8
ATOM      8  C   UNL d   1      25.431 -17.456  -0.684  0.00  0.00     0.250 C 
ATOM      9  O   UNL d   1      24.927 -18.278   0.076  0.00  0.00    -0.271 OA
ATOM     10  N   UNL d   1      24.692 -16.376  -1.210  0.00  0.00    -0.326 N 
ATOM     11  H   UNL d   1      23.735 -16.286  -0.877  0.00  0.00     0.169 HD
BRANCH  10  12
ATOM     12  C   UNL d   1      25.181 -15.615  -2.295  0.00  0.00     0.037 C 
ATOM     13  C   UNL d   1      25.552 -15.950  -3.560  0.00  0.00     0.029 C 
ATOM     14  C   UNL d   1      25.786 -14.777  -4.612  0.00  0.00     0.024 C 
ATOM     15  C   UNL d   1      25.468 -13.424  -4.204  0.00  0.00     0.168 C 
ATOM     16  C   UNL d   1      26.040 -13.510  -3.039  0.00  0.00     0.090 C 
ATOM     17  O   UNL d   1      25.583 -12.196  -4.465  0.00  0.00    -0.365 OA
ATOM     18  C   UNL d   1      25.531 -14.319  -2.017  0.00  0.00     0.065 C 
ATOM     19  O   UNL d   1      27.306 -12.982  -2.712  0.00  0.00    -0.352 OA
ATOM     20  C   UNL d   1      27.046 -11.742  -2.059  0.00  0.00     0.177 C 
ATOM     21  C   UNL d   1      27.137 -10.688  -3.047  0.00  0.00     0.053 C 
ATOM     22  C   UNL d   1      25.672 -10.891  -3.667  0.00  0.00     0.172 C 
ENDBRANCH  10  12
ENDBRANCH   7   8
ENDBRANCH   1   7
BRANCH   4  23
ATOM     23  C   UNL d   1      29.572 -14.499   1.350  0.00  0.00     0.329 C 
BRANCH  23  24
ATOM     24  C   UNL d   1      29.055 -13.744   2.564  0.00  0.00     0.044 C 
ATOM     25  C   UNL d   1      28.412 -12.563   2.483  0.00  0.00     0.101 C 
ATOM     26  C   UNL d   1      28.093 -11.808   3.666  0.00  0.00     0.255 C 
ATOM     27  O   UNL d   1      27.683 -10.667   3.674  0.00  0.00    -0.268 OA
ATOM     28  N   UNL d   1      28.292 -12.528   4.837  0.00  0.00    -0.269 N 
ATOM     29  C   UNL d   1      27.928 -12.072   6.080  0.00  0.00     0.109 A 
ATOM     30  C   UNL d   1      28.829 -13.733   4.871  0.00  0.00     0.158 A 
ATOM     31  C   UNL d   1      28.162 -12.962   7.054  0.00  0.00     0.071 A 
ATOM     32  S   UNL d   1      28.909 -14.429   6.458  0.00  0.00    -0.064 SA
ATOM     33  N   UNL d   1      29.248 -14.344   3.790  0.00  0.00    -0.338 N 
ATOM     34  H   UNL d   1      29.678 -15.260   3.886  0.00  0.00     0.168 HD
ENDBRANCH  23  24
ENDBRANCH   4  23
TORSDOF 5
ENDMDL
MODEL 9
REMARK VINA RESULT:    -8.171      3.456      8.749
REMARK INTER + INTRA:         -11.321
REMARK INTER:                  -9.662
REMARK INTRA:                  -1.659
REMARK CONF_INDEPENDENT:        1.492
REMARK UNBOUND:                -1.659
REMARK  5 active torsions:
REMARK  status: ('A' for Active; 'I' for Inactive)
REMARK    1  A    between atoms: C_2  and  C_3 
REMARK       I    between atoms: C_2  and  N_21 
REMARK    2  A    between atoms: C_3  and  N_4 
REMARK    3  A    between atoms: N_7  and  C_8 
REMARK    4  A    between atoms: C_8  and  C_9 
REMARK    5  A    between atoms: N_21  and  C_22 
ROOT
ATOM      1  N   UNL d   1      29.930 -14.649   4.762  0.00  0.00     0.100 N 
ATOM      2  C   UNL d   1      28.516 -14.879   4.336  0.00  0.00     0.303 C 
ATOM      3  C   UNL d   1      27.978 -13.877   3.257  0.00  0.00     0.303 C 
ATOM      4  N   UNL d   1      28.879 -13.758   2.076  0.00  0.00     0.097 N 
ATOM      5  C   UNL d   1      30.199 -13.361   2.620  0.00  0.00     0.303 C 
ATOM      6  C   UNL d   1      30.783 -14.442   3.586  0.00  0.00     0.303 C 
ENDROOT
BRANCH   1   7
ATOM      7  C   UNL d   1      30.007 -13.407   5.549  0.00  0.00     0.375 C 
BRANCH   7   8
ATOM      8  C   UNL d   1      28.917 -13.213   6.621  0.00  0.00     0.250 C 
ATOM      9  O   UNL d   1      28.530 -14.093   7.386  0.00  0.00    -0.271 OA
ATOM     10  N   UNL d   1      28.456 -11.883   6.721  0.00  0.00    -0.326 N 
ATOM     11  H   UNL d   1      27.831 -11.685   7.498  0.00  0.00     0.169 HD
BRANCH  10  12
ATOM     12  C   UNL d   1      28.672 -10.955   5.677  0.00  0.00     0.037 C 
ATOM     13  C   UNL d   1      29.624 -10.006   5.472  0.00  0.00     0.029 C 
ATOM     14  C   UNL d   1      29.717  -9.333   4.031  0.00  0.00     0.024 C 
ATOM     15  C   UNL d   1      28.870  -9.856   2.980  0.00  0.00     0.168 C 
ATOM     16  C   UNL d   1      27.794  -9.918   3.708  0.00  0.00     0.090 C 
ATOM     17  O   UNL d   1      28.396  -9.671   1.825  0.00  0.00    -0.365 OA
ATOM     18  C   UNL d   1      27.660 -10.830   4.761  0.00  0.00     0.065 C 
ATOM     19  O   UNL d   1      26.734  -8.988   3.678  0.00  0.00    -0.352 OA
ATOM     20  C   UNL d   1      25.735  -9.575   2.848  0.00  0.00     0.177 C 
ATOM     21  C   UNL d   1      25.903  -9.052   1.508  0.00  0.00     0.053 C 
ATOM     22  C   UNL d   1      27.104 -10.026   1.081  0.00  0.00     0.172 C 
ENDBRANCH  10  12
ENDBRANCH   7   8
ENDBRANCH   1   7
BRANCH   4  23
ATOM     23  C   UNL d   1      28.910 -15.047   1.356  0.00  0.00     0.329 C 
BRANCH  23  24
ATOM     24  C   UNL d   1      27.714 -15.296   0.452  0.00  0.00     0.044 C 
ATOM     25  C   UNL d   1      27.348 -14.460  -0.539  0.00  0.00     0.101 C 
ATOM     26  C   UNL d   1      26.114 -14.652  -1.254  0.00  0.00     0.255 C 
ATOM     27  O   UNL d   1      25.627 -13.855  -2.028  0.00  0.00    -0.268 OA
ATOM     28  N   UNL d   1      25.514 -15.874  -0.980  0.00  0.00    -0.269 N 
ATOM     29  C   UNL d   1      24.406 -16.342  -1.644  0.00  0.00     0.109 A 
ATOM     30  C   UNL d   1      25.962 -16.720  -0.073  0.00  0.00     0.158 A 
ATOM     31  C   UNL d   1      24.041 -17.571  -1.252  0.00  0.00     0.071 A 
ATOM     32  S   UNL d   1      25.059 -18.199   0.026  0.00  0.00    -0.064 SA
ATOM     33  N   UNL d   1      27.008 -16.460   0.672  0.00  0.00    -0.338 N 
ATOM     34  H   UNL d   1      27.287 -17.141   1.373  0.00  0.00     0.168 HD
ENDBRANCH  23  24
ENDBRANCH   4  23
TORSDOF 5
ENDMDL
