MODEL 1
REMARK VINA RESULT:    -7.982      0.000      0.000
REMARK INTER + INTRA:         -16.620
REMARK INTER:                 -10.667
REMARK INTRA:                  -5.954
REMARK CONF_INDEPENDENT:        2.685
REMARK UNBOUND:                -5.954
REMARK  9 active torsions:
REMARK  status: ('A' for Active; 'I' for Inactive)
REMARK    1  A    between atoms: O_2  and  C_3 
REMARK    2  A    between atoms: C_13  and  C_12 
REMARK    3  A    between atoms: C_13  and  N_21 
REMARK    4  A    between atoms: C_13  and  C_14 
REMARK       I    between atoms: C_14  and  N_16 
REMARK    5  A    between atoms: N_16  and  C_17 
REMARK       I    between atoms: N_21  and  C_22 
REMARK    6  A    between atoms: N_21  and  C_32 
REMARK    7  A    between atoms: C_22  and  C_24 
REMARK    8  A    between atoms: C_28  and  O_29 
REMARK    9  A    between atoms: C_30  and  O_31 
ROOT
ATOM      1  C   UNL d   1      27.029 -14.522  -2.587  0.00  0.00     0.222 C 
ENDROOT
BRANCH   1   2
ATOM      2  N   UNL d   1      27.602 -13.257  -2.018  0.00  0.00    -0.295 N 
ATOM      3  C   UNL d   1      28.100 -12.130  -2.769  0.00  0.00     0.262 C 
ATOM      4  O   UNL d   1      28.782 -11.247  -2.227  0.00  0.00    -0.267 OA
BRANCH   3   5
ATOM      5  C   UNL d   1      27.932 -11.854  -4.236  0.00  0.00     0.068 A 
ATOM      6  C   UNL d   1      29.019 -11.710  -5.117  0.00  0.00     0.020 A 
ATOM      7  C   UNL d   1      28.799 -11.488  -6.510  0.00  0.00     0.004 A 
ATOM      8  C   UNL d   1      27.478 -11.371  -7.039  0.00  0.00     0.039 A 
ATOM      9  C   UNL d   1      26.394 -11.512  -6.161  0.00  0.00     0.099 A 
ATOM     10  C   UNL d   1      26.622 -11.784  -4.787  0.00  0.00     0.114 A 
BRANCH   9  11
ATOM     11  O   UNL d   1      25.125 -11.103  -6.519  0.00  0.00    -0.358 OA
ATOM     12  H   UNL d   1      24.483 -11.335  -5.821  0.00  0.00     0.217 HD
ENDBRANCH   9  11
BRANCH  10  13
ATOM     13  O   UNL d   1      25.531 -11.754  -3.943  0.00  0.00    -0.357 OA
ATOM     14  H   UNL d   1      24.823 -11.285  -4.427  0.00  0.00     0.217 HD
ENDBRANCH  10  13
ENDBRANCH   3   5
BRANCH   2  15
ATOM     15  C   UNL d   1      27.668 -13.154  -0.532  0.00  0.00     0.038 C 
ATOM     16  C   UNL d   1      28.893 -13.255   0.130  0.00  0.00     0.030 C 
ATOM     17  C   UNL d   1      28.970 -13.487   1.512  0.00  0.00     0.002 C 
ATOM     18  C   UNL d   1      27.822 -13.542   2.293  0.00  0.00     0.000 C 
ATOM     19  C   UNL d   1      26.602 -13.323   1.691  0.00  0.00     0.002 C 
ATOM     20  C   UNL d   1      26.548 -13.067   0.316  0.00  0.00     0.030 C 
ENDBRANCH   2  15
ENDBRANCH   1   2
BRANCH   1  21
ATOM     21  C   UNL d   1      27.544 -15.086  -3.912  0.00  0.00     0.246 C 
ATOM     22  O   UNL d   1      26.737 -15.575  -4.731  0.00  0.00    -0.271 OA
ATOM     23  N   UNL d   1      28.921 -15.104  -4.073  0.00  0.00    -0.351 N 
ATOM     24  H   UNL d   1      29.444 -14.478  -3.463  0.00  0.00     0.163 HD
BRANCH  23  25
ATOM     25  C   UNL d   1      29.587 -15.576  -5.297  0.00  0.00     0.022 C 
ATOM     26  C   UNL d   1      28.905 -15.188  -6.575  0.00  0.00     0.037 C 
ATOM     27  C   UNL d   1      30.860 -14.828  -5.484  0.00  0.00     0.037 C 
ATOM     28  C   UNL d   1      29.940 -17.076  -5.160  0.00  0.00     0.037 C 
ENDBRANCH  23  25
ENDBRANCH   1  21
BRANCH   1  29
ATOM     29  C   UNL d   1      26.965 -15.793  -1.720  0.00  0.00     0.019 A 
ATOM     30  C   UNL d   1      25.737 -16.389  -1.271  0.00  0.00    -0.014 A 
ATOM     31  C   UNL d   1      24.428 -15.949  -1.622  0.00  0.00     0.013 A 
ATOM     32  C   UNL d   1      25.828 -17.565  -0.496  0.00  0.00    -0.025 A 
ATOM     33  C   UNL d   1      23.277 -16.637  -1.248  0.00  0.00     0.001 A 
ATOM     34  C   UNL d   1      23.393 -17.775  -0.473  0.00  0.00     0.001 A 
ATOM     35  C   UNL d   1      24.656 -18.231  -0.097  0.00  0.00     0.012 A 
ATOM     36  C   UNL d   1      27.087 -18.084  -0.145  0.00  0.00     0.015 A 
ATOM     37  C   UNL d   1      28.272 -17.457  -0.520  0.00  0.00     0.038 A 
ATOM     38  C   UNL d   1      28.220 -16.322  -1.308  0.00  0.00     0.077 A 
BRANCH  38  39
ATOM     39  O   UNL d   1      29.337 -15.587  -1.610  0.00  0.00    -0.355 OA
ATOM     40  C   UNL d   1      30.585 -16.071  -1.138  0.00  0.00     0.210 C 
ENDBRANCH  38  39
ENDBRANCH   1  29
TORSDOF 9
ENDMDL
MODEL 2
REMARK VINA RESULT:    -7.512      1.639      4.321
REMARK INTER + INTRA:         -15.109
REMARK INTER:                 -10.197
REMARK INTRA:                  -4.913
REMARK CONF_INDEPENDENT:        2.685
REMARK UNBOUND:                -4.913
REMARK  9 active torsions:
REMARK  status: ('A' for Active; 'I' for Inactive)
REMARK    1  A    between atoms: O_2  and  C_3 
REMARK    2  A    between atoms: C_13  and  C_12 
REMARK    3  A    between atoms: C_13  and  N_21 
REMARK    4  A    between atoms: C_13  and  C_14 
REMARK       I    between atoms: C_14  and  N_16 
REMARK    5  A    between atoms: N_16  and  C_17 
REMARK       I    between atoms: N_21  and  C_22 
REMARK    6  A    between atoms: N_21  and  C_32 
REMARK    7  A    between atoms: C_22  and  C_24 
REMARK    8  A    between atoms: C_28  and  O_29 
REMARK    9  A    between atoms: C_30  and  O_31 
ROOT
ATOM      1  C   UNL d   1      28.043 -15.951  -3.593  0.00  0.00     0.222 C 
ENDROOT
BRANCH   1   2
ATOM      2  N   UNL d   1      27.016 -15.496  -2.597  0.00  0.00    -0.295 N 
ATOM      3  C   UNL d   1      26.556 -14.142  -2.401  0.00  0.00     0.262 C 
ATOM      4  O   UNL d   1      25.904 -13.824  -1.396  0.00  0.00    -0.267 OA
BRANCH   3   5
ATOM      5  C   UNL d   1      26.793 -12.952  -3.286  0.00  0.00     0.068 A 
ATOM      6  C   UNL d   1      27.793 -11.996  -3.032  0.00  0.00     0.020 A 
ATOM      7  C   UNL d   1      27.999 -10.905  -3.930  0.00  0.00     0.004 A 
ATOM      8  C   UNL d   1      27.176 -10.735  -5.085  0.00  0.00     0.039 A 
ATOM      9  C   UNL d   1      26.177 -11.685  -5.337  0.00  0.00     0.099 A 
ATOM     10  C   UNL d   1      26.014 -12.795  -4.467  0.00  0.00     0.114 A 
BRANCH   9  11
ATOM     11  O   UNL d   1      25.155 -11.429  -6.229  0.00  0.00    -0.358 OA
ATOM     12  H   UNL d   1      24.398 -12.023  -6.058  0.00  0.00     0.217 HD
ENDBRANCH   9  11
BRANCH  10  13
ATOM     13  O   UNL d   1      24.919 -13.607  -4.671  0.00  0.00    -0.357 OA
ATOM     14  H   UNL d   1      24.405 -13.198  -5.394  0.00  0.00     0.217 HD
ENDBRANCH  10  13
ENDBRANCH   3   5
BRANCH   2  15
ATOM     15  C   UNL d   1      26.414 -16.541  -1.722  0.00  0.00     0.038 C 
ATOM     16  C   UNL d   1      25.043 -16.805  -1.776  0.00  0.00     0.030 C 
ATOM     17  C   UNL d   1      24.389 -17.530  -0.768  0.00  0.00     0.002 C 
ATOM     18  C   UNL d   1      25.100 -18.088   0.287  0.00  0.00     0.000 C 
ATOM     19  C   UNL d   1      26.471 -17.951   0.306  0.00  0.00     0.002 C 
ATOM     20  C   UNL d   1      27.109 -17.248  -0.722  0.00  0.00     0.030 C 
ENDBRANCH   2  15
ENDBRANCH   1   2
BRANCH   1  21
ATOM     21  C   UNL d   1      28.234 -15.204  -4.914  0.00  0.00     0.246 C 
ATOM     22  O   UNL d   1      27.367 -15.300  -5.809  0.00  0.00    -0.271 OA
ATOM     23  N   UNL d   1      29.438 -14.535  -5.067  0.00  0.00    -0.351 N 
ATOM     24  H   UNL d   1      29.943 -14.334  -4.206  0.00  0.00     0.163 HD
BRANCH  23  25
ATOM     25  C   UNL d   1      29.774 -13.736  -6.257  0.00  0.00     0.022 C 
ATOM     26  C   UNL d   1      28.596 -13.162  -6.983  0.00  0.00     0.037 C 
ATOM     27  C   UNL d   1      30.418 -12.464  -5.828  0.00  0.00     0.037 C 
ATOM     28  C   UNL d   1      30.789 -14.503  -7.136  0.00  0.00     0.037 C 
ENDBRANCH  23  25
ENDBRANCH   1  21
BRANCH   1  29
ATOM     29  C   UNL d   1      29.502 -16.161  -3.149  0.00  0.00     0.019 A 
ATOM     30  C   UNL d   1      30.364 -17.170  -3.700  0.00  0.00    -0.014 A 
ATOM     31  C   UNL d   1      30.029 -18.048  -4.771  0.00  0.00     0.013 A 
ATOM     32  C   UNL d   1      31.686 -17.237  -3.210  0.00  0.00    -0.025 A 
ATOM     33  C   UNL d   1      30.947 -18.927  -5.339  0.00  0.00     0.001 A 
ATOM     34  C   UNL d   1      32.230 -18.987  -4.827  0.00  0.00     0.001 A 
ATOM     35  C   UNL d   1      32.593 -18.153  -3.770  0.00  0.00     0.012 A 
ATOM     36  C   UNL d   1      32.102 -16.374  -2.181  0.00  0.00     0.015 A 
ATOM     37  C   UNL d   1      31.237 -15.450  -1.600  0.00  0.00     0.038 A 
ATOM     38  C   UNL d   1      29.945 -15.335  -2.079  0.00  0.00     0.077 A 
BRANCH  38  39
ATOM     39  O   UNL d   1      29.008 -14.538  -1.475  0.00  0.00    -0.355 OA
ATOM     40  C   UNL d   1      28.946 -14.561  -0.057  0.00  0.00     0.210 C 
ENDBRANCH  38  39
ENDBRANCH   1  29
TORSDOF 9
ENDMDL
MODEL 3
REMARK VINA RESULT:    -7.374      1.781      4.130
REMARK INTER + INTRA:         -15.155
REMARK INTER:                 -10.059
REMARK INTRA:                  -5.096
REMARK CONF_INDEPENDENT:        2.685
REMARK UNBOUND:                -5.096
REMARK  9 active torsions:
REMARK  status: ('A' for Active; 'I' for Inactive)
REMARK    1  A    between atoms: O_2  and  C_3 
REMARK    2  A    between atoms: C_13  and  C_12 
REMARK    3  A    between atoms: C_13  and  N_21 
REMARK    4  A    between atoms: C_13  and  C_14 
REMARK       I    between atoms: C_14  and  N_16 
REMARK    5  A    between atoms: N_16  and  C_17 
REMARK       I    between atoms: N_21  and  C_22 
REMARK    6  A    between atoms: N_21  and  C_32 
REMARK    7  A    between atoms: C_22  and  C_24 
REMARK    8  A    between atoms: C_28  and  O_29 
REMARK    9  A    between atoms: C_30  and  O_31 
ROOT
ATOM      1  C   UNL d   1      27.905 -15.950  -3.479  0.00  0.00     0.222 C 
ENDROOT
BRANCH   1   2
ATOM      2  N   UNL d   1      26.775 -15.471  -2.615  0.00  0.00    -0.295 N 
ATOM      3  C   UNL d   1      26.292 -14.115  -2.514  0.00  0.00     0.262 C 
ATOM      4  O   UNL d   1      25.533 -13.771  -1.596  0.00  0.00    -0.267 OA
BRANCH   3   5
ATOM      5  C   UNL d   1      26.618 -12.952  -3.406  0.00  0.00     0.068 A 
ATOM      6  C   UNL d   1      27.657 -12.046  -3.133  0.00  0.00     0.020 A 
ATOM      7  C   UNL d   1      27.948 -10.980  -4.039  0.00  0.00     0.004 A 
ATOM      8  C   UNL d   1      27.172 -10.785  -5.221  0.00  0.00     0.039 A 
ATOM      9  C   UNL d   1      26.134 -11.686  -5.493  0.00  0.00     0.099 A 
ATOM     10  C   UNL d   1      25.886 -12.773  -4.614  0.00  0.00     0.114 A 
BRANCH   9  11
ATOM     11  O   UNL d   1      25.154 -11.391  -6.420  0.00  0.00    -0.358 OA
ATOM     12  H   UNL d   1      24.321 -11.847  -6.192  0.00  0.00     0.217 HD
ENDBRANCH   9  11
BRANCH  10  13
ATOM     13  O   UNL d   1      24.757 -13.531  -4.843  0.00  0.00    -0.357 OA
ATOM     14  H   UNL d   1      24.133 -12.955  -5.326  0.00  0.00     0.217 HD
ENDBRANCH  10  13
ENDBRANCH   3   5
BRANCH   2  15
ATOM     15  C   UNL d   1      26.087 -16.493  -1.777  0.00  0.00     0.038 C 
ATOM     16  C   UNL d   1      24.729 -16.762  -1.964  0.00  0.00     0.030 C 
ATOM     17  C   UNL d   1      23.974 -17.460  -1.008  0.00  0.00     0.002 C 
ATOM     18  C   UNL d   1      24.573 -17.985   0.131  0.00  0.00     0.000 C 
ATOM     19  C   UNL d   1      25.935 -17.844   0.286  0.00  0.00     0.002 C 
ATOM     20  C   UNL d   1      26.675 -17.168  -0.691  0.00  0.00     0.030 C 
ENDBRANCH   2  15
ENDBRANCH   1   2
BRANCH   1  21
ATOM     21  C   UNL d   1      28.221 -15.259  -4.807  0.00  0.00     0.246 C 
ATOM     22  O   UNL d   1      27.509 -15.488  -5.808  0.00  0.00    -0.271 OA
ATOM     23  N   UNL d   1      29.368 -14.481  -4.831  0.00  0.00    -0.351 N 
ATOM     24  H   UNL d   1      29.719 -14.185  -3.922  0.00  0.00     0.163 HD
BRANCH  23  25
ATOM     25  C   UNL d   1      29.802 -13.716  -6.011  0.00  0.00     0.022 C 
ATOM     26  C   UNL d   1      30.820 -12.651  -5.730  0.00  0.00     0.037 C 
ATOM     27  C   UNL d   1      30.625 -14.591  -6.889  0.00  0.00     0.037 C 
ATOM     28  C   UNL d   1      28.570 -13.259  -6.826  0.00  0.00     0.037 C 
ENDBRANCH  23  25
ENDBRANCH   1  21
BRANCH   1  29
ATOM     29  C   UNL d   1      29.314 -16.113  -2.879  0.00  0.00     0.019 A 
ATOM     30  C   UNL d   1      29.824 -15.298  -1.811  0.00  0.00    -0.014 A 
ATOM     31  C   UNL d   1      29.088 -14.298  -1.112  0.00  0.00     0.013 A 
ATOM     32  C   UNL d   1      31.128 -15.571  -1.347  0.00  0.00    -0.025 A 
ATOM     33  C   UNL d   1      29.600 -13.620  -0.009  0.00  0.00     0.001 A 
ATOM     34  C   UNL d   1      30.887 -13.892   0.413  0.00  0.00     0.001 A 
ATOM     35  C   UNL d   1      31.645 -14.855  -0.254  0.00  0.00     0.012 A 
ATOM     36  C   UNL d   1      31.900 -16.573  -1.961  0.00  0.00     0.015 A 
ATOM     37  C   UNL d   1      31.426 -17.308  -3.046  0.00  0.00     0.038 A 
ATOM     38  C   UNL d   1      30.140 -17.088  -3.504  0.00  0.00     0.077 A 
BRANCH  38  39
ATOM     39  O   UNL d   1      29.655 -17.684  -4.639  0.00  0.00    -0.355 OA
ATOM     40  C   UNL d   1      30.513 -17.735  -5.768  0.00  0.00     0.210 C 
ENDBRANCH  38  39
ENDBRANCH   1  29
TORSDOF 9
ENDMDL
MODEL 4
REMARK VINA RESULT:    -6.821      1.731      5.641
REMARK INTER + INTRA:         -15.067
REMARK INTER:                  -9.505
REMARK INTRA:                  -5.562
REMARK CONF_INDEPENDENT:        2.685
REMARK UNBOUND:                -5.562
REMARK  9 active torsions:
REMARK  status: ('A' for Active; 'I' for Inactive)
REMARK    1  A    between atoms: O_2  and  C_3 
REMARK    2  A    between atoms: C_13  and  C_12 
REMARK    3  A    between atoms: C_13  and  N_21 
REMARK    4  A    between atoms: C_13  and  C_14 
REMARK       I    between atoms: C_14  and  N_16 
REMARK    5  A    between atoms: N_16  and  C_17 
REMARK       I    between atoms: N_21  and  C_22 
REMARK    6  A    between atoms: N_21  and  C_32 
REMARK    7  A    between atoms: C_22  and  C_24 
REMARK    8  A    between atoms: C_28  and  O_29 
REMARK    9  A    between atoms: C_30  and  O_31 
ROOT
ATOM      1  C   UNL d   1      26.804 -13.868  -1.098  0.00  0.00     0.222 C 
ENDROOT
BRANCH   1   2
ATOM      2  N   UNL d   1      26.138 -15.004  -1.818  0.00  0.00    -0.295 N 
ATOM      3  C   UNL d   1      25.934 -15.112  -3.242  0.00  0.00     0.262 C 
ATOM      4  O   UNL d   1      25.156 -15.953  -3.718  0.00  0.00    -0.267 OA
BRANCH   3   5
ATOM      5  C   UNL d   1      26.545 -14.272  -4.326  0.00  0.00     0.068 A 
ATOM      6  C   UNL d   1      27.696 -14.657  -5.036  0.00  0.00     0.020 A 
ATOM      7  C   UNL d   1      28.211 -13.835  -6.085  0.00  0.00     0.004 A 
ATOM      8  C   UNL d   1      27.595 -12.591  -6.417  0.00  0.00     0.039 A 
ATOM      9  C   UNL d   1      26.449 -12.204  -5.708  0.00  0.00     0.099 A 
ATOM     10  C   UNL d   1      25.915 -13.052  -4.702  0.00  0.00     0.114 A 
BRANCH   9  11
ATOM     11  O   UNL d   1      25.992 -10.902  -5.742  0.00  0.00    -0.358 OA
ATOM     12  H   UNL d   1      25.153 -10.824  -5.248  0.00  0.00     0.217 HD
ENDBRANCH   9  11
BRANCH  10  13
ATOM     13  O   UNL d   1      24.887 -12.552  -3.931  0.00  0.00    -0.357 OA
ATOM     14  H   UNL d   1      24.493 -11.817  -4.439  0.00  0.00     0.217 HD
ENDBRANCH  10  13
ENDBRANCH   3   5
BRANCH   2  15
ATOM     15  C   UNL d   1      25.634 -16.130  -0.981  0.00  0.00     0.038 C 
ATOM     16  C   UNL d   1      26.487 -17.173  -0.611  0.00  0.00     0.030 C 
ATOM     17  C   UNL d   1      25.996 -18.389  -0.113  0.00  0.00     0.002 C 
ATOM     18  C   UNL d   1      24.637 -18.574   0.110  0.00  0.00     0.000 C 
ATOM     19  C   UNL d   1      23.779 -17.522  -0.128  0.00  0.00     0.002 C 
ATOM     20  C   UNL d   1      24.291 -16.307  -0.599  0.00  0.00     0.030 C 
ENDBRANCH   2  15
ENDBRANCH   1   2
BRANCH   1  21
ATOM     21  C   UNL d   1      27.109 -13.961   0.398  0.00  0.00     0.246 C 
ATOM     22  O   UNL d   1      27.055 -15.071   0.971  0.00  0.00    -0.271 OA
ATOM     23  N   UNL d   1      27.333 -12.760   1.050  0.00  0.00    -0.351 N 
ATOM     24  H   UNL d   1      27.582 -11.973   0.452  0.00  0.00     0.163 HD
BRANCH  23  25
ATOM     25  C   UNL d   1      27.675 -12.665   2.478  0.00  0.00     0.022 C 
ATOM     26  C   UNL d   1      27.029 -13.699   3.351  0.00  0.00     0.037 C 
ATOM     27  C   UNL d   1      29.097 -13.063   2.670  0.00  0.00     0.037 C 
ATOM     28  C   UNL d   1      27.528 -11.203   2.960  0.00  0.00     0.037 C 
ENDBRANCH  23  25
ENDBRANCH   1  21
BRANCH   1  29
ATOM     29  C   UNL d   1      28.122 -13.284  -1.641  0.00  0.00     0.019 A 
ATOM     30  C   UNL d   1      29.310 -14.064  -1.854  0.00  0.00    -0.014 A 
ATOM     31  C   UNL d   1      29.415 -15.474  -1.678  0.00  0.00     0.013 A 
ATOM     32  C   UNL d   1      30.442 -13.400  -2.373  0.00  0.00    -0.025 A 
ATOM     33  C   UNL d   1      30.561 -16.191  -2.010  0.00  0.00     0.001 A 
ATOM     34  C   UNL d   1      31.663 -15.514  -2.499  0.00  0.00     0.001 A 
ATOM     35  C   UNL d   1      31.604 -14.132  -2.674  0.00  0.00     0.012 A 
ATOM     36  C   UNL d   1      30.400 -12.016  -2.614  0.00  0.00     0.015 A 
ATOM     37  C   UNL d   1      29.268 -11.253  -2.332  0.00  0.00     0.038 A 
ATOM     38  C   UNL d   1      28.131 -11.878  -1.854  0.00  0.00     0.077 A 
BRANCH  38  39
ATOM     39  O   UNL d   1      27.029 -11.176  -1.441  0.00  0.00    -0.355 OA
ATOM     40  C   UNL d   1      27.242  -9.881  -0.900  0.00  0.00     0.210 C 
ENDBRANCH  38  39
ENDBRANCH   1  29
TORSDOF 9
ENDMDL
MODEL 5
REMARK VINA RESULT:    -6.807      1.421      4.696
REMARK INTER + INTRA:         -14.983
REMARK INTER:                  -9.492
REMARK INTRA:                  -5.492
REMARK CONF_INDEPENDENT:        2.685
REMARK UNBOUND:                -5.492
REMARK  9 active torsions:
REMARK  status: ('A' for Active; 'I' for Inactive)
REMARK    1  A    between atoms: O_2  and  C_3 
REMARK    2  A    between atoms: C_13  and  C_12 
REMARK    3  A    between atoms: C_13  and  N_21 
REMARK    4  A    between atoms: C_13  and  C_14 
REMARK       I    between atoms: C_14  and  N_16 
REMARK    5  A    between atoms: N_16  and  C_17 
REMARK       I    between atoms: N_21  and  C_22 
REMARK    6  A    between atoms: N_21  and  C_32 
REMARK    7  A    between atoms: C_22  and  C_24 
REMARK    8  A    between atoms: C_28  and  O_29 
REMARK    9  A    between atoms: C_30  and  O_31 
ROOT
ATOM      1  C   UNL d   1      27.884 -14.894  -1.837  0.00  0.00     0.222 C 
ENDROOT
BRANCH   1   2
ATOM      2  N   UNL d   1      27.713 -13.577  -1.138  0.00  0.00    -0.295 N 
ATOM      3  C   UNL d   1      27.824 -12.270  -1.738  0.00  0.00     0.262 C 
ATOM      4  O   UNL d   1      27.920 -11.249  -1.041  0.00  0.00    -0.267 OA
BRANCH   3   5
ATOM      5  C   UNL d   1      27.878 -11.929  -3.200  0.00  0.00     0.068 A 
ATOM      6  C   UNL d   1      29.072 -11.933  -3.943  0.00  0.00     0.020 A 
ATOM      7  C   UNL d   1      29.058 -11.639  -5.341  0.00  0.00     0.004 A 
ATOM      8  C   UNL d   1      27.844 -11.300  -6.011  0.00  0.00     0.039 A 
ATOM      9  C   UNL d   1      26.654 -11.293  -5.271  0.00  0.00     0.099 A 
ATOM     10  C   UNL d   1      26.670 -11.637  -3.893  0.00  0.00     0.114 A 
BRANCH   9  11
ATOM     11  O   UNL d   1      25.515 -10.679  -5.752  0.00  0.00    -0.358 OA
ATOM     12  H   UNL d   1      24.798 -10.726  -5.091  0.00  0.00     0.217 HD
ENDBRANCH   9  11
BRANCH  10  13
ATOM     13  O   UNL d   1      25.503 -11.459  -3.180  0.00  0.00    -0.357 OA
ATOM     14  H   UNL d   1      24.780 -11.442  -3.836  0.00  0.00     0.217 HD
ENDBRANCH  10  13
ENDBRANCH   3   5
BRANCH   2  15
ATOM     15  C   UNL d   1      27.401 -13.621   0.319  0.00  0.00     0.038 C 
ATOM     16  C   UNL d   1      26.691 -12.580   0.921  0.00  0.00     0.030 C 
ATOM     17  C   UNL d   1      26.655 -12.418   2.315  0.00  0.00     0.002 C 
ATOM     18  C   UNL d   1      27.261 -13.343   3.157  0.00  0.00     0.000 C 
ATOM     19  C   UNL d   1      27.865 -14.448   2.600  0.00  0.00     0.002 C 
ATOM     20  C   UNL d   1      27.867 -14.607   1.210  0.00  0.00     0.030 C 
ENDBRANCH   2  15
ENDBRANCH   1   2
BRANCH   1  21
ATOM     21  C   UNL d   1      27.021 -16.099  -1.457  0.00  0.00     0.246 C 
ATOM     22  O   UNL d   1      27.526 -17.242  -1.444  0.00  0.00    -0.271 OA
ATOM     23  N   UNL d   1      25.676 -15.842  -1.243  0.00  0.00    -0.351 N 
ATOM     24  H   UNL d   1      25.439 -14.870  -1.051  0.00  0.00     0.163 HD
BRANCH  23  25
ATOM     25  C   UNL d   1      24.709 -16.873  -0.835  0.00  0.00     0.022 C 
ATOM     26  C   UNL d   1      23.336 -16.359  -0.520  0.00  0.00     0.037 C 
ATOM     27  C   UNL d   1      24.370 -17.722  -2.010  0.00  0.00     0.037 C 
ATOM     28  C   UNL d   1      25.339 -17.789   0.240  0.00  0.00     0.037 C 
ENDBRANCH  23  25
ENDBRANCH   1  21
BRANCH   1  29
ATOM     29  C   UNL d   1      27.835 -14.959  -3.374  0.00  0.00     0.019 A 
ATOM     30  C   UNL d   1      28.988 -15.201  -4.198  0.00  0.00    -0.014 A 
ATOM     31  C   UNL d   1      30.298 -15.493  -3.720  0.00  0.00     0.013 A 
ATOM     32  C   UNL d   1      28.793 -15.251  -5.595  0.00  0.00    -0.025 A 
ATOM     33  C   UNL d   1      31.350 -15.833  -4.566  0.00  0.00     0.001 A 
ATOM     34  C   UNL d   1      31.137 -15.855  -5.932  0.00  0.00     0.001 A 
ATOM     35  C   UNL d   1      29.872 -15.562  -6.440  0.00  0.00     0.012 A 
ATOM     36  C   UNL d   1      27.518 -15.015  -6.139  0.00  0.00     0.015 A 
ATOM     37  C   UNL d   1      26.421 -14.705  -5.338  0.00  0.00     0.038 A 
ATOM     38  C   UNL d   1      26.570 -14.681  -3.963  0.00  0.00     0.077 A 
BRANCH  38  39
ATOM     39  O   UNL d   1      25.569 -14.265  -3.125  0.00  0.00    -0.355 OA
ATOM     40  C   UNL d   1      24.282 -14.068  -3.690  0.00  0.00     0.210 C 
ENDBRANCH  38  39
ENDBRANCH   1  29
TORSDOF 9
ENDMDL
MODEL 6
REMARK VINA RESULT:    -6.763      1.988      5.611
REMARK INTER + INTRA:         -15.631
REMARK INTER:                  -9.448
REMARK INTRA:                  -6.183
REMARK CONF_INDEPENDENT:        2.685
REMARK UNBOUND:                -6.183
REMARK  9 active torsions:
REMARK  status: ('A' for Active; 'I' for Inactive)
REMARK    1  A    between atoms: O_2  and  C_3 
REMARK    2  A    between atoms: C_13  and  C_12 
REMARK    3  A    between atoms: C_13  and  N_21 
REMARK    4  A    between atoms: C_13  and  C_14 
REMARK       I    between atoms: C_14  and  N_16 
REMARK    5  A    between atoms: N_16  and  C_17 
REMARK       I    between atoms: N_21  and  C_22 
REMARK    6  A    between atoms: N_21  and  C_32 
REMARK    7  A    between atoms: C_22  and  C_24 
REMARK    8  A    between atoms: C_28  and  O_29 
REMARK    9  A    between atoms: C_30  and  O_31 
ROOT
ATOM      1  C   UNL d   1      26.617 -13.269  -1.965  0.00  0.00     0.222 C 
ENDROOT
BRANCH   1   2
ATOM      2  N   UNL d   1      26.165 -14.443  -2.784  0.00  0.00    -0.295 N 
ATOM      3  C   UNL d   1      26.055 -14.490  -4.222  0.00  0.00     0.262 C 
ATOM      4  O   UNL d   1      25.436 -15.403  -4.789  0.00  0.00    -0.267 OA
BRANCH   3   5
ATOM      5  C   UNL d   1      26.593 -13.505  -5.220  0.00  0.00     0.068 A 
ATOM      6  C   UNL d   1      26.103 -12.193  -5.342  0.00  0.00     0.020 A 
ATOM      7  C   UNL d   1      26.679 -11.287  -6.282  0.00  0.00     0.004 A 
ATOM      8  C   UNL d   1      27.741 -11.696  -7.145  0.00  0.00     0.039 A 
ATOM      9  C   UNL d   1      28.229 -13.004  -7.028  0.00  0.00     0.099 A 
ATOM     10  C   UNL d   1      27.684 -13.882  -6.054  0.00  0.00     0.114 A 
BRANCH   9  11
ATOM     11  O   UNL d   1      29.012 -13.568  -8.015  0.00  0.00    -0.358 OA
ATOM     12  H   UNL d   1      28.905 -14.539  -8.020  0.00  0.00     0.217 HD
ENDBRANCH   9  11
BRANCH  10  13
ATOM     13  O   UNL d   1      28.088 -15.200  -6.089  0.00  0.00    -0.357 OA
ATOM     14  H   UNL d   1      28.903 -15.223  -6.627  0.00  0.00     0.217 HD
ENDBRANCH  10  13
ENDBRANCH   3   5
BRANCH   2  15
ATOM     15  C   UNL d   1      25.788 -15.679  -2.042  0.00  0.00     0.038 C 
ATOM     16  C   UNL d   1      24.446 -15.968  -1.786  0.00  0.00     0.030 C 
ATOM     17  C   UNL d   1      24.064 -16.925  -0.833  0.00  0.00     0.002 C 
ATOM     18  C   UNL d   1      25.014 -17.684  -0.161  0.00  0.00     0.000 C 
ATOM     19  C   UNL d   1      26.344 -17.510  -0.479  0.00  0.00     0.002 C 
ATOM     20  C   UNL d   1      26.703 -16.571  -1.453  0.00  0.00     0.030 C 
ENDBRANCH   2  15
ENDBRANCH   1   2
BRANCH   1  21
ATOM     21  C   UNL d   1      27.011 -13.445  -0.498  0.00  0.00     0.246 C 
ATOM     22  O   UNL d   1      26.281 -12.972   0.399  0.00  0.00    -0.271 OA
ATOM     23  N   UNL d   1      28.237 -14.049  -0.265  0.00  0.00    -0.351 N 
ATOM     24  H   UNL d   1      28.615 -14.592  -1.039  0.00  0.00     0.163 HD
BRANCH  23  25
ATOM     25  C   UNL d   1      28.757 -14.332   1.083  0.00  0.00     0.022 C 
ATOM     26  C   UNL d   1      28.779 -13.153   2.009  0.00  0.00     0.037 C 
ATOM     27  C   UNL d   1      27.780 -15.180   1.819  0.00  0.00     0.037 C 
ATOM     28  C   UNL d   1      30.081 -15.123   0.981  0.00  0.00     0.037 C 
ENDBRANCH  23  25
ENDBRANCH   1  21
BRANCH   1  29
ATOM     29  C   UNL d   1      27.755 -12.368  -2.479  0.00  0.00     0.019 A 
ATOM     30  C   UNL d   1      27.616 -10.954  -2.696  0.00  0.00    -0.014 A 
ATOM     31  C   UNL d   1      26.456 -10.183  -2.395  0.00  0.00     0.013 A 
ATOM     32  C   UNL d   1      28.749 -10.249  -3.154  0.00  0.00    -0.025 A 
ATOM     33  C   UNL d   1      26.420  -8.797  -2.519  0.00  0.00     0.001 A 
ATOM     34  C   UNL d   1      27.538  -8.133  -2.989  0.00  0.00     0.001 A 
ATOM     35  C   UNL d   1      28.688  -8.853  -3.307  0.00  0.00     0.012 A 
ATOM     36  C   UNL d   1      29.943 -10.937  -3.433  0.00  0.00     0.015 A 
ATOM     37  C   UNL d   1      30.047 -12.319  -3.293  0.00  0.00     0.038 A 
ATOM     38  C   UNL d   1      28.966 -13.036  -2.815  0.00  0.00     0.077 A 
BRANCH  38  39
ATOM     39  O   UNL d   1      28.957 -14.405  -2.769  0.00  0.00    -0.355 OA
ATOM     40  C   UNL d   1      29.872 -15.093  -3.609  0.00  0.00     0.210 C 
ENDBRANCH  38  39
ENDBRANCH   1  29
TORSDOF 9
ENDMDL
MODEL 7
REMARK VINA RESULT:    -6.735      1.723      5.794
REMARK INTER + INTRA:         -15.403
REMARK INTER:                  -9.420
REMARK INTRA:                  -5.984
REMARK CONF_INDEPENDENT:        2.685
REMARK UNBOUND:                -5.984
REMARK  9 active torsions:
REMARK  status: ('A' for Active; 'I' for Inactive)
REMARK    1  A    between atoms: O_2  and  C_3 
REMARK    2  A    between atoms: C_13  and  C_12 
REMARK    3  A    between atoms: C_13  and  N_21 
REMARK    4  A    between atoms: C_13  and  C_14 
REMARK       I    between atoms: C_14  and  N_16 
REMARK    5  A    between atoms: N_16  and  C_17 
REMARK       I    between atoms: N_21  and  C_22 
REMARK    6  A    between atoms: N_21  and  C_32 
REMARK    7  A    between atoms: C_22  and  C_24 
REMARK    8  A    between atoms: C_28  and  O_29 
REMARK    9  A    between atoms: C_30  and  O_31 
ROOT
ATOM      1  C   UNL d   1      26.962 -13.608  -1.779  0.00  0.00     0.222 C 
ENDROOT
BRANCH   1   2
ATOM      2  N   UNL d   1      26.236 -14.613  -2.624  0.00  0.00    -0.295 N 
ATOM      3  C   UNL d   1      25.974 -14.510  -4.039  0.00  0.00     0.262 C 
ATOM      4  O   UNL d   1      25.155 -15.256  -4.597  0.00  0.00    -0.267 OA
BRANCH   3   5
ATOM      5  C   UNL d   1      26.567 -13.537  -5.017  0.00  0.00     0.068 A 
ATOM      6  C   UNL d   1      26.220 -12.174  -5.047  0.00  0.00     0.020 A 
ATOM      7  C   UNL d   1      26.846 -11.286  -5.974  0.00  0.00     0.004 A 
ATOM      8  C   UNL d   1      27.810 -11.760  -6.914  0.00  0.00     0.039 A 
ATOM      9  C   UNL d   1      28.155 -13.118  -6.888  0.00  0.00     0.099 A 
ATOM     10  C   UNL d   1      27.565 -13.984  -5.928  0.00  0.00     0.114 A 
BRANCH   9  11
ATOM     11  O   UNL d   1      28.819 -13.709  -7.944  0.00  0.00    -0.358 OA
ATOM     12  H   UNL d   1      28.627 -14.667  -7.973  0.00  0.00     0.217 HD
ENDBRANCH   9  11
BRANCH  10  13
ATOM     13  O   UNL d   1      27.818 -15.334  -6.050  0.00  0.00    -0.357 OA
ATOM     14  H   UNL d   1      28.486 -15.425  -6.757  0.00  0.00     0.217 HD
ENDBRANCH  10  13
ENDBRANCH   3   5
BRANCH   2  15
ATOM     15  C   UNL d   1      25.732 -15.836  -1.937  0.00  0.00     0.038 C 
ATOM     16  C   UNL d   1      24.382 -15.951  -1.598  0.00  0.00     0.030 C 
ATOM     17  C   UNL d   1      23.929 -16.912  -0.682  0.00  0.00     0.002 C 
ATOM     18  C   UNL d   1      24.800 -17.847  -0.136  0.00  0.00     0.000 C 
ATOM     19  C   UNL d   1      26.116 -17.840  -0.544  0.00  0.00     0.002 C 
ATOM     20  C   UNL d   1      26.544 -16.891  -1.479  0.00  0.00     0.030 C 
ENDBRANCH   2  15
ENDBRANCH   1   2
BRANCH   1  21
ATOM     21  C   UNL d   1      27.550 -14.006  -0.424  0.00  0.00     0.246 C 
ATOM     22  O   UNL d   1      28.200 -15.068  -0.320  0.00  0.00    -0.271 OA
ATOM     23  N   UNL d   1      27.227 -13.186   0.645  0.00  0.00    -0.351 N 
ATOM     24  H   UNL d   1      26.905 -12.250   0.402  0.00  0.00     0.163 HD
BRANCH  23  25
ATOM     25  C   UNL d   1      27.735 -13.397   2.011  0.00  0.00     0.022 C 
ATOM     26  C   UNL d   1      27.780 -14.830   2.451  0.00  0.00     0.037 C 
ATOM     27  C   UNL d   1      29.193 -13.103   2.044  0.00  0.00     0.037 C 
ATOM     28  C   UNL d   1      27.038 -12.423   2.988  0.00  0.00     0.037 C 
ENDBRANCH  23  25
ENDBRANCH   1  21
BRANCH   1  29
ATOM     29  C   UNL d   1      28.117 -12.789  -2.383  0.00  0.00     0.019 A 
ATOM     30  C   UNL d   1      29.228 -13.375  -3.082  0.00  0.00    -0.014 A 
ATOM     31  C   UNL d   1      29.377 -14.760  -3.383  0.00  0.00     0.013 A 
ATOM     32  C   UNL d   1      30.208 -12.501  -3.599  0.00  0.00    -0.025 A 
ATOM     33  C   UNL d   1      30.419 -15.252  -4.163  0.00  0.00     0.001 A 
ATOM     34  C   UNL d   1      31.376 -14.377  -4.641  0.00  0.00     0.001 A 
ATOM     35  C   UNL d   1      31.273 -13.016  -4.357  0.00  0.00     0.012 A 
ATOM     36  C   UNL d   1      30.106 -11.116  -3.379  0.00  0.00     0.015 A 
ATOM     37  C   UNL d   1      29.066 -10.563  -2.635  0.00  0.00     0.038 A 
ATOM     38  C   UNL d   1      28.072 -11.388  -2.141  0.00  0.00     0.077 A 
BRANCH  38  39
ATOM     39  O   UNL d   1      27.090 -10.931  -1.301  0.00  0.00    -0.355 OA
ATOM     40  C   UNL d   1      27.416  -9.849  -0.442  0.00  0.00     0.210 C 
ENDBRANCH  38  39
ENDBRANCH   1  29
TORSDOF 9
ENDMDL
MODEL 8
REMARK VINA RESULT:    -6.580      1.828      5.478
REMARK INTER + INTRA:         -15.533
REMARK INTER:                  -9.265
REMARK INTRA:                  -6.268
REMARK CONF_INDEPENDENT:        2.685
REMARK UNBOUND:                -6.268
REMARK  9 active torsions:
REMARK  status: ('A' for Active; 'I' for Inactive)
REMARK    1  A    between atoms: O_2  and  C_3 
REMARK    2  A    between atoms: C_13  and  C_12 
REMARK    3  A    between atoms: C_13  and  N_21 
REMARK    4  A    between atoms: C_13  and  C_14 
REMARK       I    between atoms: C_14  and  N_16 
REMARK    5  A    between atoms: N_16  and  C_17 
REMARK       I    between atoms: N_21  and  C_22 
REMARK    6  A    between atoms: N_21  and  C_32 
REMARK    7  A    between atoms: C_22  and  C_24 
REMARK    8  A    between atoms: C_28  and  O_29 
REMARK    9  A    between atoms: C_30  and  O_31 
ROOT
ATOM      1  C   UNL d   1      26.725 -13.434  -1.247  0.00  0.00     0.222 C 
ENDROOT
BRANCH   1   2
ATOM      2  N   UNL d   1      26.277 -14.706  -1.907  0.00  0.00    -0.295 N 
ATOM      3  C   UNL d   1      26.144 -14.931  -3.326  0.00  0.00     0.262 C 
ATOM      4  O   UNL d   1      25.530 -15.916  -3.765  0.00  0.00    -0.267 OA
BRANCH   3   5
ATOM      5  C   UNL d   1      26.648 -14.069  -4.447  0.00  0.00     0.068 A 
ATOM      6  C   UNL d   1      27.719 -14.442  -5.278  0.00  0.00     0.020 A 
ATOM      7  C   UNL d   1      28.131 -13.599  -6.355  0.00  0.00     0.004 A 
ATOM      8  C   UNL d   1      27.493 -12.344  -6.595  0.00  0.00     0.039 A 
ATOM      9  C   UNL d   1      26.427 -11.970  -5.766  0.00  0.00     0.099 A 
ATOM     10  C   UNL d   1      25.991 -12.838  -4.730  0.00  0.00     0.114 A 
BRANCH   9  11
ATOM     11  O   UNL d   1      25.977 -10.665  -5.724  0.00  0.00    -0.358 OA
ATOM     12  H   UNL d   1      25.156 -10.605  -5.198  0.00  0.00     0.217 HD
ENDBRANCH   9  11
BRANCH  10  13
ATOM     13  O   UNL d   1      25.049 -12.352  -3.848  0.00  0.00    -0.357 OA
ATOM     14  H   UNL d   1      24.656 -11.565  -4.272  0.00  0.00     0.217 HD
ENDBRANCH  10  13
ENDBRANCH   3   5
BRANCH   2  15
ATOM     15  C   UNL d   1      25.934 -15.847  -1.012  0.00  0.00     0.038 C 
ATOM     16  C   UNL d   1      26.944 -16.600  -0.409  0.00  0.00     0.030 C 
ATOM     17  C   UNL d   1      26.687 -17.855   0.166  0.00  0.00     0.002 C 
ATOM     18  C   UNL d   1      25.395 -18.361   0.231  0.00  0.00     0.000 C 
ATOM     19  C   UNL d   1      24.358 -17.588  -0.245  0.00  0.00     0.002 C 
ATOM     20  C   UNL d   1      24.630 -16.328  -0.790  0.00  0.00     0.030 C 
ENDBRANCH   2  15
ENDBRANCH   1   2
BRANCH   1  21
ATOM     21  C   UNL d   1      27.070 -13.407   0.243  0.00  0.00     0.246 C 
ATOM     22  O   UNL d   1      26.284 -12.865   1.049  0.00  0.00    -0.271 OA
ATOM     23  N   UNL d   1      28.313 -13.912   0.589  0.00  0.00    -0.351 N 
ATOM     24  H   UNL d   1      28.747 -14.525  -0.099  0.00  0.00     0.163 HD
BRANCH  23  25
ATOM     25  C   UNL d   1      28.794 -13.998   1.977  0.00  0.00     0.022 C 
ATOM     26  C   UNL d   1      30.226 -14.417   2.122  0.00  0.00     0.037 C 
ATOM     27  C   UNL d   1      28.900 -12.627   2.547  0.00  0.00     0.037 C 
ATOM     28  C   UNL d   1      27.780 -14.786   2.838  0.00  0.00     0.037 C 
ENDBRANCH  23  25
ENDBRANCH   1  21
BRANCH   1  29
ATOM     29  C   UNL d   1      27.893 -12.630  -1.845  0.00  0.00     0.019 A 
ATOM     30  C   UNL d   1      27.796 -11.247  -2.225  0.00  0.00    -0.014 A 
ATOM     31  C   UNL d   1      26.655 -10.416  -2.033  0.00  0.00     0.013 A 
ATOM     32  C   UNL d   1      28.954 -10.630  -2.745  0.00  0.00    -0.025 A 
ATOM     33  C   UNL d   1      26.659  -9.053  -2.317  0.00  0.00     0.001 A 
ATOM     34  C   UNL d   1      27.800  -8.477  -2.843  0.00  0.00     0.001 A 
ATOM     35  C   UNL d   1      28.934  -9.260  -3.059  0.00  0.00     0.012 A 
ATOM     36  C   UNL d   1      30.131 -11.377  -2.925  0.00  0.00     0.015 A 
ATOM     37  C   UNL d   1      30.195 -12.735  -2.625  0.00  0.00     0.038 A 
ATOM     38  C   UNL d   1      29.089 -13.363  -2.083  0.00  0.00     0.077 A 
BRANCH  38  39
ATOM     39  O   UNL d   1      29.041 -14.718  -1.880  0.00  0.00    -0.355 OA
ATOM     40  C   UNL d   1      29.799 -15.538  -2.756  0.00  0.00     0.210 C 
ENDBRANCH  38  39
ENDBRANCH   1  29
TORSDOF 9
ENDMDL
MODEL 9
REMARK VINA RESULT:    -6.500      1.542      4.263
REMARK INTER + INTRA:         -15.047
REMARK INTER:                  -9.185
REMARK INTRA:                  -5.862
REMARK CONF_INDEPENDENT:        2.685
REMARK UNBOUND:                -5.862
REMARK  9 active torsions:
REMARK  status: ('A' for Active; 'I' for Inactive)
REMARK    1  A    between atoms: O_2  and  C_3 
REMARK    2  A    between atoms: C_13  and  C_12 
REMARK    3  A    between atoms: C_13  and  N_21 
REMARK    4  A    between atoms: C_13  and  C_14 
REMARK       I    between atoms: C_14  and  N_16 
REMARK    5  A    between atoms: N_16  and  C_17 
REMARK       I    between atoms: N_21  and  C_22 
REMARK    6  A    between atoms: N_21  and  C_32 
REMARK    7  A    between atoms: C_22  and  C_24 
REMARK    8  A    between atoms: C_28  and  O_29 
REMARK    9  A    between atoms: C_30  and  O_31 
ROOT
ATOM      1  C   UNL d   1      28.477 -14.305  -2.046  0.00  0.00     0.222 C 
ENDROOT
BRANCH   1   2
ATOM      2  N   UNL d   1      27.179 -14.955  -2.428  0.00  0.00    -0.295 N 
ATOM      3  C   UNL d   1      26.319 -14.569  -3.521  0.00  0.00     0.262 C 
ATOM      4  O   UNL d   1      25.156 -14.993  -3.604  0.00  0.00    -0.267 OA
BRANCH   3   5
ATOM      5  C   UNL d   1      26.630 -13.631  -4.651  0.00  0.00     0.068 A 
ATOM      6  C   UNL d   1      27.608 -13.902  -5.625  0.00  0.00     0.020 A 
ATOM      7  C   UNL d   1      27.834 -12.991  -6.700  0.00  0.00     0.004 A 
ATOM      8  C   UNL d   1      27.103 -11.768  -6.797  0.00  0.00     0.039 A 
ATOM      9  C   UNL d   1      26.130 -11.495  -5.827  0.00  0.00     0.099 A 
ATOM     10  C   UNL d   1      25.876 -12.431  -4.790  0.00  0.00     0.114 A 
BRANCH   9  11
ATOM     11  O   UNL d   1      25.617 -10.223  -5.665  0.00  0.00    -0.358 OA
ATOM     12  H   UNL d   1      24.782 -10.255  -5.159  0.00  0.00     0.217 HD
ENDBRANCH   9  11
BRANCH  10  13
ATOM     13  O   UNL d   1      25.027 -12.041  -3.776  0.00  0.00    -0.357 OA
ATOM     14  H   UNL d   1      24.747 -11.130  -3.987  0.00  0.00     0.217 HD
ENDBRANCH  10  13
ENDBRANCH   3   5
BRANCH   2  15
ATOM     15  C   UNL d   1      26.731 -16.108  -1.597  0.00  0.00     0.038 C 
ATOM     16  C   UNL d   1      25.402 -16.202  -1.176  0.00  0.00     0.030 C 
ATOM     17  C   UNL d   1      25.013 -17.072  -0.146  0.00  0.00     0.002 C 
ATOM     18  C   UNL d   1      25.926 -17.939   0.441  0.00  0.00     0.000 C 
ATOM     19  C   UNL d   1      27.218 -17.960  -0.036  0.00  0.00     0.002 C 
ATOM     20  C   UNL d   1      27.582 -17.104  -1.082  0.00  0.00     0.030 C 
ENDBRANCH   2  15
ENDBRANCH   1   2
BRANCH   1  21
ATOM     21  C   UNL d   1      28.710 -12.815  -2.303  0.00  0.00     0.246 C 
ATOM     22  O   UNL d   1      29.875 -12.387  -2.444  0.00  0.00    -0.271 OA
ATOM     23  N   UNL d   1      27.585 -12.006  -2.260  0.00  0.00    -0.351 N 
ATOM     24  H   UNL d   1      26.693 -12.485  -2.374  0.00  0.00     0.163 HD
BRANCH  23  25
ATOM     25  C   UNL d   1      27.618 -10.558  -2.519  0.00  0.00     0.022 C 
ATOM     26  C   UNL d   1      26.285  -9.875  -2.450  0.00  0.00     0.037 C 
ATOM     27  C   UNL d   1      28.285  -9.869  -1.380  0.00  0.00     0.037 C 
ATOM     28  C   UNL d   1      28.448 -10.270  -3.792  0.00  0.00     0.037 C 
ENDBRANCH  23  25
ENDBRANCH   1  21
BRANCH   1  29
ATOM     29  C   UNL d   1      29.017 -14.455  -0.613  0.00  0.00     0.019 A 
ATOM     30  C   UNL d   1      28.341 -13.948   0.550  0.00  0.00    -0.014 A 
ATOM     31  C   UNL d   1      27.062 -13.320   0.554  0.00  0.00     0.013 A 
ATOM     32  C   UNL d   1      28.944 -14.173   1.806  0.00  0.00    -0.025 A 
ATOM     33  C   UNL d   1      26.407 -12.954   1.726  0.00  0.00     0.001 A 
ATOM     34  C   UNL d   1      27.028 -13.167   2.942  0.00  0.00     0.001 A 
ATOM     35  C   UNL d   1      28.287 -13.767   2.979  0.00  0.00     0.012 A 
ATOM     36  C   UNL d   1      30.188 -14.824   1.885  0.00  0.00     0.015 A 
ATOM     37  C   UNL d   1      30.873 -15.244   0.747  0.00  0.00     0.038 A 
ATOM     38  C   UNL d   1      30.295 -15.069  -0.497  0.00  0.00     0.077 A 
BRANCH  38  39
ATOM     39  O   UNL d   1      30.963 -15.345  -1.661  0.00  0.00    -0.355 OA
ATOM     40  C   UNL d   1      31.056 -16.706  -2.055  0.00  0.00     0.210 C 
ENDBRANCH  38  39
ENDBRANCH   1  29
TORSDOF 9
ENDMDL
