MODEL 1
REMARK VINA RESULT:    -8.753      0.000      0.000
REMARK INTER + INTRA:         -13.136
REMARK INTER:                 -11.139
REMARK INTRA:                  -1.997
REMARK CONF_INDEPENDENT:        2.386
REMARK UNBOUND:                -1.997
REMARK  8 active torsions:
REMARK  status: ('A' for Active; 'I' for Inactive)
REMARK    1  A    between atoms: C_3  and  O_4 
REMARK    2  A    between atoms: C_5  and  N_6 
REMARK    3  A    between atoms: N_6  and  C_7 
REMARK    4  A    between atoms: C_8  and  C_7 
REMARK    5  A    between atoms: C_11  and  C_12 
REMARK       I    between atoms: C_12  and  N_14 
REMARK    6  A    between atoms: N_14  and  C_15 
REMARK    7  A    between atoms: C_15  and  C_16 
REMARK    8  A    between atoms: C_16  and  C_17 
ROOT
ATOM      1  C   UNL d   1      30.345 -16.255  -4.699  0.00  0.00     0.003 C 
ATOM      2  C   UNL d   1      29.699 -15.169  -3.848  0.00  0.00     0.007 C 
ATOM      3  C   UNL d   1      30.404 -15.073  -2.495  0.00  0.00     0.014 C 
ATOM      4  C   UNL d   1      30.371 -16.417  -1.752  0.00  0.00     0.078 C 
ATOM      5  C   UNL d   1      31.072 -17.477  -2.609  0.00  0.00     0.014 C 
ATOM      6  C   UNL d   1      30.403 -17.608  -3.962  0.00  0.00     0.007 C 
ENDROOT
BRANCH   1   7
ATOM      7  C   UNL d   1      29.655 -16.571  -5.998  0.00  0.00     0.124 C 
BRANCH   7   8
ATOM      8  N   UNL d   1      29.588 -15.608  -7.051  0.00  0.00    -0.385 N 
ATOM      9  H   UNL d   1      29.939 -15.928  -7.959  0.00  0.00     0.159 HD
BRANCH   8  10
ATOM     10  C   UNL d   1      29.360 -14.329  -6.845  0.00  0.00     0.097 A 
ATOM     11  C   UNL d   1      29.953 -13.192  -7.324  0.00  0.00     0.147 A 
ATOM     12  C   UNL d   1      28.955 -12.349  -6.640  0.00  0.00     0.236 A 
ATOM     13  O   UNL d   1      28.724 -11.168  -6.504  0.00  0.00    -0.283 OA
ATOM     14  C   UNL d   1      28.296 -13.559  -6.096  0.00  0.00     0.113 A 
ATOM     15  N   UNL d   1      27.231 -13.755  -5.362  0.00  0.00    -0.376 N 
ATOM     16  C   UNL d   1      26.090 -12.743  -5.228  0.00  0.00     0.123 C 
ATOM     17  C   UNL d   1      26.849 -15.124  -4.804  0.00  0.00     0.123 C 
ATOM     18  C   UNL d   1      25.369 -12.844  -3.872  0.00  0.00     0.020 C 
ATOM     19  C   UNL d   1      24.889 -14.261  -3.587  0.00  0.00     0.003 C 
ATOM     20  C   UNL d   1      26.127 -15.107  -3.470  0.00  0.00     0.020 C 
BRANCH  11  21
ATOM     21  O   UNL d   1      30.962 -13.033  -8.109  0.00  0.00    -0.355 OA
ATOM     22  H   UNL d   1      30.777 -13.327  -9.023  0.00  0.00     0.218 HD
ENDBRANCH  11  21
ENDBRANCH   8  10
ENDBRANCH   7   8
ENDBRANCH   1   7
BRANCH   4  23
ATOM     23  C   UNL d   1      28.938 -16.846  -1.423  0.00  0.00     0.221 C 
ATOM     24  O   UNL d   1      28.008 -16.768  -2.224  0.00  0.00    -0.273 OA
ATOM     25  N   UNL d   1      28.739 -17.307  -0.145  0.00  0.00    -0.360 N 
ATOM     26  H   UNL d   1      29.516 -17.471   0.481  0.00  0.00     0.162 HD
BRANCH  25  27
ATOM     27  C   UNL d   1      27.405 -17.698   0.231  0.00  0.00     0.127 C 
BRANCH  27  28
ATOM     28  C   UNL d   1      26.350 -16.621   0.019  0.00  0.00     0.058 C 
BRANCH  28  29
ATOM     29  C   UNL d   1      24.970 -17.191  -0.229  0.00  0.00    -0.057 A 
ATOM     30  C   UNL d   1      23.875 -16.374  -0.561  0.00  0.00     0.009 A 
ATOM     31  C   UNL d   1      22.610 -16.913  -0.768  0.00  0.00     0.024 A 
ATOM     32  C   UNL d   1      22.425 -18.284  -0.660  0.00  0.00     0.034 A 
ATOM     33 CL   UNL d   1      20.855 -18.940  -0.895  0.00  0.00    -0.084 Cl
ATOM     34  C   UNL d   1      23.500 -19.118  -0.359  0.00  0.00     0.024 A 
ATOM     35  C   UNL d   1      24.770 -18.575  -0.145  0.00  0.00     0.009 A 
ENDBRANCH  28  29
ENDBRANCH  27  28
ENDBRANCH  25  27
ENDBRANCH   4  23
TORSDOF 8
ENDMDL
MODEL 2
REMARK VINA RESULT:    -8.599      5.721      7.517
REMARK INTER + INTRA:         -12.982
REMARK INTER:                 -10.986
REMARK INTRA:                  -1.996
REMARK CONF_INDEPENDENT:        2.386
REMARK UNBOUND:                -1.996
REMARK  8 active torsions:
REMARK  status: ('A' for Active; 'I' for Inactive)
REMARK    1  A    between atoms: C_3  and  O_4 
REMARK    2  A    between atoms: C_5  and  N_6 
REMARK    3  A    between atoms: N_6  and  C_7 
REMARK    4  A    between atoms: C_8  and  C_7 
REMARK    5  A    between atoms: C_11  and  C_12 
REMARK       I    between atoms: C_12  and  N_14 
REMARK    6  A    between atoms: N_14  and  C_15 
REMARK    7  A    between atoms: C_15  and  C_16 
REMARK    8  A    between atoms: C_16  and  C_17 
ROOT
ATOM      1  C   UNL d   1      29.116 -12.111   5.375  0.00  0.00     0.003 C 
ATOM      2  C   UNL d   1      27.756 -12.784   5.506  0.00  0.00     0.007 C 
ATOM      3  C   UNL d   1      27.918 -14.304   5.483  0.00  0.00     0.014 C 
ATOM      4  C   UNL d   1      28.617 -14.771   4.198  0.00  0.00     0.078 C 
ATOM      5  C   UNL d   1      30.002 -14.118   4.118  0.00  0.00     0.014 C 
ATOM      6  C   UNL d   1      29.888 -12.607   4.136  0.00  0.00     0.007 C 
ENDROOT
BRANCH   1   7
ATOM      7  C   UNL d   1      29.097 -10.614   5.224  0.00  0.00     0.124 C 
BRANCH   7   8
ATOM      8  N   UNL d   1      29.151 -10.001   3.934  0.00  0.00    -0.385 N 
ATOM      9  H   UNL d   1      30.083  -9.695   3.635  0.00  0.00     0.159 HD
BRANCH   8  10
ATOM     10  C   UNL d   1      28.082  -9.599   3.282  0.00  0.00     0.097 A 
ATOM     11  C   UNL d   1      27.054  -8.759   3.614  0.00  0.00     0.147 A 
ATOM     12  C   UNL d   1      26.489  -8.867   2.257  0.00  0.00     0.236 A 
ATOM     13  O   UNL d   1      25.530  -8.444   1.650  0.00  0.00    -0.283 OA
ATOM     14  C   UNL d   1      27.582  -9.787   1.868  0.00  0.00     0.113 A 
ATOM     15  N   UNL d   1      27.908 -10.382   0.748  0.00  0.00    -0.376 N 
ATOM     16  C   UNL d   1      27.451  -9.907  -0.633  0.00  0.00     0.123 C 
ATOM     17  C   UNL d   1      29.023 -11.421   0.655  0.00  0.00     0.123 C 
ATOM     18  C   UNL d   1      27.340 -11.061  -1.646  0.00  0.00     0.020 C 
ATOM     19  C   UNL d   1      28.630 -11.865  -1.736  0.00  0.00     0.003 C 
ATOM     20  C   UNL d   1      28.820 -12.504  -0.388  0.00  0.00     0.020 C 
BRANCH  11  21
ATOM     21  O   UNL d   1      26.801  -8.127   4.708  0.00  0.00    -0.355 OA
ATOM     22  H   UNL d   1      26.740  -8.723   5.480  0.00  0.00     0.218 HD
ENDBRANCH  11  21
ENDBRANCH   8  10
ENDBRANCH   7   8
ENDBRANCH   1   7
BRANCH   4  23
ATOM     23  C   UNL d   1      27.789 -14.442   2.952  0.00  0.00     0.221 C 
ATOM     24  O   UNL d   1      26.915 -13.577   2.931  0.00  0.00    -0.273 OA
ATOM     25  N   UNL d   1      28.064 -15.203   1.843  0.00  0.00    -0.360 N 
ATOM     26  H   UNL d   1      28.850 -15.839   1.825  0.00  0.00     0.162 HD
BRANCH  25  27
ATOM     27  C   UNL d   1      27.298 -14.958   0.649  0.00  0.00     0.127 C 
BRANCH  27  28
ATOM     28  C   UNL d   1      27.265 -16.126  -0.327  0.00  0.00     0.058 C 
BRANCH  28  29
ATOM     29  C   UNL d   1      25.895 -16.759  -0.440  0.00  0.00    -0.057 A 
ATOM     30  C   UNL d   1      24.861 -16.173  -1.191  0.00  0.00     0.009 A 
ATOM     31  C   UNL d   1      23.604 -16.761  -1.270  0.00  0.00     0.024 A 
ATOM     32  C   UNL d   1      23.365 -17.956  -0.607  0.00  0.00     0.034 A 
ATOM     33 CL   UNL d   1      21.802 -18.665  -0.690  0.00  0.00    -0.084 Cl
ATOM     34  C   UNL d   1      24.381 -18.572   0.121  0.00  0.00     0.024 A 
ATOM     35  C   UNL d   1      25.644 -17.978   0.205  0.00  0.00     0.009 A 
ENDBRANCH  28  29
ENDBRANCH  27  28
ENDBRANCH  25  27
ENDBRANCH   4  23
TORSDOF 8
ENDMDL
MODEL 3
REMARK VINA RESULT:    -8.563      1.986      4.537
REMARK INTER + INTRA:         -13.056
REMARK INTER:                 -10.949
REMARK INTRA:                  -2.107
REMARK CONF_INDEPENDENT:        2.386
REMARK UNBOUND:                -2.107
REMARK  8 active torsions:
REMARK  status: ('A' for Active; 'I' for Inactive)
REMARK    1  A    between atoms: C_3  and  O_4 
REMARK    2  A    between atoms: C_5  and  N_6 
REMARK    3  A    between atoms: N_6  and  C_7 
REMARK    4  A    between atoms: C_8  and  C_7 
REMARK    5  A    between atoms: C_11  and  C_12 
REMARK       I    between atoms: C_12  and  N_14 
REMARK    6  A    between atoms: N_14  and  C_15 
REMARK    7  A    between atoms: C_15  and  C_16 
REMARK    8  A    between atoms: C_16  and  C_17 
ROOT
ATOM      1  C   UNL d   1      27.795 -14.449  -5.759  0.00  0.00     0.003 C 
ATOM      2  C   UNL d   1      27.029 -15.559  -5.050  0.00  0.00     0.007 C 
ATOM      3  C   UNL d   1      25.547 -15.196  -4.955  0.00  0.00     0.014 C 
ATOM      4  C   UNL d   1      25.345 -13.863  -4.221  0.00  0.00     0.078 C 
ATOM      5  C   UNL d   1      26.083 -12.757  -4.984  0.00  0.00     0.014 C 
ATOM      6  C   UNL d   1      27.560 -13.075  -5.100  0.00  0.00     0.007 C 
ENDROOT
BRANCH   1   7
ATOM      7  C   UNL d   1      29.292 -14.596  -5.785  0.00  0.00     0.124 C 
BRANCH   7   8
ATOM      8  N   UNL d   1      29.923 -15.581  -6.605  0.00  0.00    -0.385 N 
ATOM      9  H   UNL d   1      29.921 -15.380  -7.610  0.00  0.00     0.159 HD
BRANCH   8  10
ATOM     10  C   UNL d   1      30.240 -16.782  -6.173  0.00  0.00     0.097 A 
ATOM     11  C   UNL d   1      30.697 -17.906  -6.807  0.00  0.00     0.147 A 
ATOM     12  C   UNL d   1      30.854 -18.605  -5.518  0.00  0.00     0.236 A 
ATOM     13  O   UNL d   1      31.202 -19.697  -5.129  0.00  0.00    -0.283 OA
ATOM     14  C   UNL d   1      30.353 -17.409  -4.802  0.00  0.00     0.113 A 
ATOM     15  N   UNL d   1      30.191 -17.116  -3.537  0.00  0.00    -0.376 N 
ATOM     16  C   UNL d   1      30.921 -17.829  -2.396  0.00  0.00     0.123 C 
ATOM     17  C   UNL d   1      29.500 -15.839  -3.064  0.00  0.00     0.123 C 
ATOM     18  C   UNL d   1      30.108 -17.836  -1.089  0.00  0.00     0.020 C 
ATOM     19  C   UNL d   1      29.676 -16.433  -0.680  0.00  0.00     0.003 C 
ATOM     20  C   UNL d   1      28.741 -15.953  -1.756  0.00  0.00     0.020 C 
BRANCH  11  21
ATOM     21  O   UNL d   1      30.918 -18.140  -8.055  0.00  0.00    -0.355 OA
ATOM     22  H   UNL d   1      31.165 -19.069  -8.225  0.00  0.00     0.218 HD
ENDBRANCH  11  21
ENDBRANCH   8  10
ENDBRANCH   7   8
ENDBRANCH   1   7
BRANCH   4  23
ATOM     23  C   UNL d   1      25.829 -13.936  -2.770  0.00  0.00     0.221 C 
ATOM     24  O   UNL d   1      26.529 -13.072  -2.246  0.00  0.00    -0.273 OA
ATOM     25  N   UNL d   1      25.452 -15.061  -2.079  0.00  0.00    -0.360 N 
ATOM     26  H   UNL d   1      24.793 -15.721  -2.469  0.00  0.00     0.162 HD
BRANCH  25  27
ATOM     27  C   UNL d   1      25.901 -15.199  -0.717  0.00  0.00     0.127 C 
BRANCH  27  28
ATOM     28  C   UNL d   1      25.898 -16.630  -0.197  0.00  0.00     0.058 C 
BRANCH  28  29
ATOM     29  C   UNL d   1      24.557 -17.313  -0.361  0.00  0.00    -0.057 A 
ATOM     30  C   UNL d   1      24.426 -18.712  -0.348  0.00  0.00     0.009 A 
ATOM     31  C   UNL d   1      23.188 -19.323  -0.517  0.00  0.00     0.024 A 
ATOM     32  C   UNL d   1      22.057 -18.538  -0.688  0.00  0.00     0.034 A 
ATOM     33 CL   UNL d   1      20.534 -19.299  -0.919  0.00  0.00    -0.084 Cl
ATOM     34  C   UNL d   1      22.156 -17.148  -0.677  0.00  0.00     0.024 A 
ATOM     35  C   UNL d   1      23.402 -16.535  -0.513  0.00  0.00     0.009 A 
ENDBRANCH  28  29
ENDBRANCH  27  28
ENDBRANCH  25  27
ENDBRANCH   4  23
TORSDOF 8
ENDMDL
MODEL 4
REMARK VINA RESULT:    -8.529      1.933      2.980
REMARK INTER + INTRA:         -13.230
REMARK INTER:                 -10.916
REMARK INTRA:                  -2.315
REMARK CONF_INDEPENDENT:        2.386
REMARK UNBOUND:                -2.315
REMARK  8 active torsions:
REMARK  status: ('A' for Active; 'I' for Inactive)
REMARK    1  A    between atoms: C_3  and  O_4 
REMARK    2  A    between atoms: C_5  and  N_6 
REMARK    3  A    between atoms: N_6  and  C_7 
REMARK    4  A    between atoms: C_8  and  C_7 
REMARK    5  A    between atoms: C_11  and  C_12 
REMARK       I    between atoms: C_12  and  N_14 
REMARK    6  A    between atoms: N_14  and  C_15 
REMARK    7  A    between atoms: C_15  and  C_16 
REMARK    8  A    between atoms: C_16  and  C_17 
ROOT
ATOM      1  C   UNL d   1      29.842 -15.173  -4.562  0.00  0.00     0.003 C 
ATOM      2  C   UNL d   1      29.346 -14.417  -3.336  0.00  0.00     0.007 C 
ATOM      3  C   UNL d   1      30.141 -14.843  -2.100  0.00  0.00     0.014 C 
ATOM      4  C   UNL d   1      30.037 -16.357  -1.866  0.00  0.00     0.078 C 
ATOM      5  C   UNL d   1      30.589 -17.091  -3.094  0.00  0.00     0.014 C 
ATOM      6  C   UNL d   1      29.827 -16.699  -4.344  0.00  0.00     0.007 C 
ENDROOT
BRANCH   1   7
ATOM      7  C   UNL d   1      29.046 -14.972  -5.824  0.00  0.00     0.124 C 
BRANCH   7   8
ATOM      8  N   UNL d   1      28.184 -13.844  -5.981  0.00  0.00    -0.385 N 
ATOM      9  H   UNL d   1      28.613 -13.024  -6.422  0.00  0.00     0.159 HD
BRANCH   8  10
ATOM     10  C   UNL d   1      27.022 -13.736  -5.375  0.00  0.00     0.097 A 
ATOM     11  C   UNL d   1      26.138 -14.663  -4.891  0.00  0.00     0.147 A 
ATOM     12  C   UNL d   1      25.286 -13.599  -4.329  0.00  0.00     0.236 A 
ATOM     13  O   UNL d   1      24.241 -13.516  -3.722  0.00  0.00    -0.283 OA
ATOM     14  C   UNL d   1      26.216 -12.570  -4.848  0.00  0.00     0.113 A 
ATOM     15  N   UNL d   1      26.258 -11.265  -4.766  0.00  0.00    -0.376 N 
ATOM     16  C   UNL d   1      25.536 -10.456  -3.685  0.00  0.00     0.123 C 
ATOM     17  C   UNL d   1      27.267 -10.417  -5.536  0.00  0.00     0.123 C 
ATOM     18  C   UNL d   1      25.145  -9.047  -4.166  0.00  0.00     0.020 C 
ATOM     19  C   UNL d   1      26.340  -8.284  -4.725  0.00  0.00     0.003 C 
ATOM     20  C   UNL d   1      26.784  -9.039  -5.947  0.00  0.00     0.020 C 
BRANCH  11  21
ATOM     21  O   UNL d   1      26.163 -15.950  -4.924  0.00  0.00    -0.355 OA
ATOM     22  H   UNL d   1      26.447 -16.342  -4.075  0.00  0.00     0.218 HD
ENDBRANCH  11  21
ENDBRANCH   8  10
ENDBRANCH   7   8
ENDBRANCH   1   7
BRANCH   4  23
ATOM     23  C   UNL d   1      28.596 -16.788  -1.578  0.00  0.00     0.221 C 
ATOM     24  O   UNL d   1      27.684 -16.687  -2.397  0.00  0.00    -0.273 OA
ATOM     25  N   UNL d   1      28.367 -17.278  -0.317  0.00  0.00    -0.360 N 
ATOM     26  H   UNL d   1      29.130 -17.460   0.322  0.00  0.00     0.162 HD
BRANCH  25  27
ATOM     27  C   UNL d   1      27.024 -17.673   0.021  0.00  0.00     0.127 C 
BRANCH  27  28
ATOM     28  C   UNL d   1      25.969 -16.608  -0.248  0.00  0.00     0.058 C 
BRANCH  28  29
ATOM     29  C   UNL d   1      24.582 -17.186  -0.428  0.00  0.00    -0.057 A 
ATOM     30  C   UNL d   1      23.461 -16.373  -0.667  0.00  0.00     0.009 A 
ATOM     31  C   UNL d   1      22.191 -16.921  -0.813  0.00  0.00     0.024 A 
ATOM     32  C   UNL d   1      22.026 -18.296  -0.735  0.00  0.00     0.034 A 
ATOM     33 CL   UNL d   1      20.451 -18.964  -0.894  0.00  0.00    -0.084 Cl
ATOM     34  C   UNL d   1      23.126 -19.126  -0.527  0.00  0.00     0.024 A 
ATOM     35  C   UNL d   1      24.402 -18.575  -0.374  0.00  0.00     0.009 A 
ENDBRANCH  28  29
ENDBRANCH  27  28
ENDBRANCH  25  27
ENDBRANCH   4  23
TORSDOF 8
ENDMDL
MODEL 5
REMARK VINA RESULT:    -8.433      2.414      4.494
REMARK INTER + INTRA:         -13.285
REMARK INTER:                 -10.819
REMARK INTRA:                  -2.466
REMARK CONF_INDEPENDENT:        2.386
REMARK UNBOUND:                -2.466
REMARK  8 active torsions:
REMARK  status: ('A' for Active; 'I' for Inactive)
REMARK    1  A    between atoms: C_3  and  O_4 
REMARK    2  A    between atoms: C_5  and  N_6 
REMARK    3  A    between atoms: N_6  and  C_7 
REMARK    4  A    between atoms: C_8  and  C_7 
REMARK    5  A    between atoms: C_11  and  C_12 
REMARK       I    between atoms: C_12  and  N_14 
REMARK    6  A    between atoms: N_14  and  C_15 
REMARK    7  A    between atoms: C_15  and  C_16 
REMARK    8  A    between atoms: C_16  and  C_17 
ROOT
ATOM      1  C   UNL d   1      27.476 -10.652  -3.235  0.00  0.00     0.003 C 
ATOM      2  C   UNL d   1      26.602 -11.290  -2.161  0.00  0.00     0.007 C 
ATOM      3  C   UNL d   1      27.426 -11.544  -0.898  0.00  0.00     0.014 C 
ATOM      4  C   UNL d   1      28.638 -12.439  -1.194  0.00  0.00     0.078 C 
ATOM      5  C   UNL d   1      29.523 -11.749  -2.238  0.00  0.00     0.014 C 
ATOM      6  C   UNL d   1      28.747 -11.479  -3.511  0.00  0.00     0.007 C 
ENDROOT
BRANCH   1   7
ATOM      7  C   UNL d   1      26.839 -10.489  -4.589  0.00  0.00     0.124 C 
BRANCH   7   8
ATOM      8  N   UNL d   1      25.857 -11.413  -5.059  0.00  0.00    -0.385 N 
ATOM      9  H   UNL d   1      24.932 -11.012  -5.243  0.00  0.00     0.159 HD
BRANCH   8  10
ATOM     10  C   UNL d   1      26.012 -12.718  -5.005  0.00  0.00     0.097 A 
ATOM     11  C   UNL d   1      25.196 -13.733  -4.582  0.00  0.00     0.147 A 
ATOM     12  C   UNL d   1      26.175 -14.743  -5.024  0.00  0.00     0.236 A 
ATOM     13  O   UNL d   1      26.281 -15.949  -5.019  0.00  0.00    -0.283 OA
ATOM     14  C   UNL d   1      27.086 -13.669  -5.483  0.00  0.00     0.113 A 
ATOM     15  N   UNL d   1      28.248 -13.665  -6.084  0.00  0.00    -0.376 N 
ATOM     16  C   UNL d   1      28.793 -14.845  -6.892  0.00  0.00     0.123 C 
ATOM     17  C   UNL d   1      29.059 -12.391  -6.314  0.00  0.00     0.123 C 
ATOM     18  C   UNL d   1      30.332 -14.903  -6.885  0.00  0.00     0.020 C 
ATOM     19  C   UNL d   1      30.953 -13.588  -7.337  0.00  0.00     0.003 C 
ATOM     20  C   UNL d   1      30.566 -12.565  -6.304  0.00  0.00     0.020 C 
BRANCH  11  21
ATOM     21  O   UNL d   1      24.019 -13.707  -4.060  0.00  0.00    -0.355 OA
ATOM     22  H   UNL d   1      23.351 -13.316  -4.656  0.00  0.00     0.218 HD
ENDBRANCH  11  21
ENDBRANCH   8  10
ENDBRANCH   7   8
ENDBRANCH   1   7
BRANCH   4  23
ATOM     23  C   UNL d   1      28.212 -13.829  -1.676  0.00  0.00     0.221 C 
ATOM     24  O   UNL d   1      28.813 -14.456  -2.546  0.00  0.00    -0.273 OA
ATOM     25  N   UNL d   1      27.079 -14.335  -1.089  0.00  0.00    -0.360 N 
ATOM     26  H   UNL d   1      26.643 -13.871  -0.303  0.00  0.00     0.162 HD
BRANCH  25  27
ATOM     27  C   UNL d   1      26.613 -15.627  -1.523  0.00  0.00     0.127 C 
BRANCH  27  28
ATOM     28  C   UNL d   1      26.294 -16.592  -0.389  0.00  0.00     0.058 C 
BRANCH  28  29
ATOM     29  C   UNL d   1      24.908 -17.190  -0.499  0.00  0.00    -0.057 A 
ATOM     30  C   UNL d   1      24.682 -18.574  -0.401  0.00  0.00     0.009 A 
ATOM     31  C   UNL d   1      23.404 -19.107  -0.521  0.00  0.00     0.024 A 
ATOM     32  C   UNL d   1      22.326 -18.258  -0.727  0.00  0.00     0.034 A 
ATOM     33 CL   UNL d   1      20.752 -18.925  -0.897  0.00  0.00    -0.084 Cl
ATOM     34  C   UNL d   1      22.519 -16.879  -0.800  0.00  0.00     0.024 A 
ATOM     35  C   UNL d   1      23.806 -16.345  -0.685  0.00  0.00     0.009 A 
ENDBRANCH  28  29
ENDBRANCH  27  28
ENDBRANCH  25  27
ENDBRANCH   4  23
TORSDOF 8
ENDMDL
MODEL 6
REMARK VINA RESULT:    -8.192      2.472      5.328
REMARK INTER + INTRA:         -12.838
REMARK INTER:                 -10.578
REMARK INTRA:                  -2.260
REMARK CONF_INDEPENDENT:        2.386
REMARK UNBOUND:                -2.260
REMARK  8 active torsions:
REMARK  status: ('A' for Active; 'I' for Inactive)
REMARK    1  A    between atoms: C_3  and  O_4 
REMARK    2  A    between atoms: C_5  and  N_6 
REMARK    3  A    between atoms: N_6  and  C_7 
REMARK    4  A    between atoms: C_8  and  C_7 
REMARK    5  A    between atoms: C_11  and  C_12 
REMARK       I    between atoms: C_12  and  N_14 
REMARK    6  A    between atoms: N_14  and  C_15 
REMARK    7  A    between atoms: C_15  and  C_16 
REMARK    8  A    between atoms: C_16  and  C_17 
ROOT
ATOM      1  C   UNL d   1      28.293 -12.013  -5.289  0.00  0.00     0.003 C 
ATOM      2  C   UNL d   1      27.024 -12.491  -5.982  0.00  0.00     0.007 C 
ATOM      3  C   UNL d   1      25.793 -12.026  -5.204  0.00  0.00     0.014 C 
ATOM      4  C   UNL d   1      25.826 -12.531  -3.754  0.00  0.00     0.078 C 
ATOM      5  C   UNL d   1      27.087 -11.993  -3.067  0.00  0.00     0.014 C 
ATOM      6  C   UNL d   1      28.334 -12.433  -3.806  0.00  0.00     0.007 C 
ENDROOT
BRANCH   1   7
ATOM      7  C   UNL d   1      29.587 -12.530  -5.856  0.00  0.00     0.124 C 
BRANCH   7   8
ATOM      8  N   UNL d   1      29.601 -13.583  -6.822  0.00  0.00    -0.385 N 
ATOM      9  H   UNL d   1      29.229 -13.334  -7.744  0.00  0.00     0.159 HD
BRANCH   8  10
ATOM     10  C   UNL d   1      29.807 -14.844  -6.510  0.00  0.00     0.097 A 
ATOM     11  C   UNL d   1      29.116 -15.731  -5.730  0.00  0.00     0.147 A 
ATOM     12  C   UNL d   1      30.031 -16.823  -6.110  0.00  0.00     0.236 A 
ATOM     13  O   UNL d   1      30.176 -17.998  -5.858  0.00  0.00    -0.283 OA
ATOM     14  C   UNL d   1      30.806 -15.887  -6.956  0.00  0.00     0.113 A 
ATOM     15  N   UNL d   1      31.839 -16.027  -7.748  0.00  0.00    -0.376 N 
ATOM     16  C   UNL d   1      32.266 -17.363  -8.361  0.00  0.00     0.123 C 
ATOM     17  C   UNL d   1      32.551 -14.845  -8.400  0.00  0.00     0.123 C 
ATOM     18  C   UNL d   1      33.781 -17.432  -8.627  0.00  0.00     0.020 C 
ATOM     19  C   UNL d   1      34.266 -16.256  -9.466  0.00  0.00     0.003 C 
ATOM     20  C   UNL d   1      34.039 -15.025  -8.632  0.00  0.00     0.020 C 
BRANCH  11  21
ATOM     21  O   UNL d   1      28.054 -15.578  -5.017  0.00  0.00    -0.355 OA
ATOM     22  H   UNL d   1      27.278 -15.318  -5.550  0.00  0.00     0.218 HD
ENDBRANCH  11  21
ENDBRANCH   8  10
ENDBRANCH   7   8
ENDBRANCH   1   7
BRANCH   4  23
ATOM     23  C   UNL d   1      25.783 -14.060  -3.687  0.00  0.00     0.221 C 
ATOM     24  O   UNL d   1      25.399 -14.767  -4.617  0.00  0.00    -0.273 OA
ATOM     25  N   UNL d   1      26.178 -14.610  -2.492  0.00  0.00    -0.360 N 
ATOM     26  H   UNL d   1      26.592 -14.043  -1.765  0.00  0.00     0.162 HD
BRANCH  25  27
ATOM     27  C   UNL d   1      26.131 -16.043  -2.360  0.00  0.00     0.127 C 
BRANCH  27  28
ATOM     28  C   UNL d   1      25.853 -16.535  -0.947  0.00  0.00     0.058 C 
BRANCH  28  29
ATOM     29  C   UNL d   1      24.515 -17.230  -0.819  0.00  0.00    -0.057 A 
ATOM     30  C   UNL d   1      24.410 -18.597  -0.506  0.00  0.00     0.009 A 
ATOM     31  C   UNL d   1      23.173 -19.223  -0.409  0.00  0.00     0.024 A 
ATOM     32  C   UNL d   1      22.016 -18.484  -0.611  0.00  0.00     0.034 A 
ATOM     33 CL   UNL d   1      20.490 -19.269  -0.512  0.00  0.00    -0.084 Cl
ATOM     34  C   UNL d   1      22.090 -17.122  -0.895  0.00  0.00     0.024 A 
ATOM     35  C   UNL d   1      23.336 -16.494  -0.998  0.00  0.00     0.009 A 
ENDBRANCH  28  29
ENDBRANCH  27  28
ENDBRANCH  25  27
ENDBRANCH   4  23
TORSDOF 8
ENDMDL
MODEL 7
REMARK VINA RESULT:    -8.033      2.244      4.996
REMARK INTER + INTRA:         -12.925
REMARK INTER:                 -10.419
REMARK INTRA:                  -2.506
REMARK CONF_INDEPENDENT:        2.386
REMARK UNBOUND:                -2.506
REMARK  8 active torsions:
REMARK  status: ('A' for Active; 'I' for Inactive)
REMARK    1  A    between atoms: C_3  and  O_4 
REMARK    2  A    between atoms: C_5  and  N_6 
REMARK    3  A    between atoms: N_6  and  C_7 
REMARK    4  A    between atoms: C_8  and  C_7 
REMARK    5  A    between atoms: C_11  and  C_12 
REMARK       I    between atoms: C_12  and  N_14 
REMARK    6  A    between atoms: N_14  and  C_15 
REMARK    7  A    between atoms: C_15  and  C_16 
REMARK    8  A    between atoms: C_16  and  C_17 
ROOT
ATOM      1  C   UNL d   1      30.414 -15.153  -4.046  0.00  0.00     0.003 C 
ATOM      2  C   UNL d   1      29.766 -15.864  -5.228  0.00  0.00     0.007 C 
ATOM      3  C   UNL d   1      29.155 -14.841  -6.186  0.00  0.00     0.014 C 
ATOM      4  C   UNL d   1      28.125 -13.954  -5.473  0.00  0.00     0.078 C 
ATOM      5  C   UNL d   1      28.816 -13.213  -4.323  0.00  0.00     0.014 C 
ATOM      6  C   UNL d   1      29.435 -14.191  -3.345  0.00  0.00     0.007 C 
ENDROOT
BRANCH   1   7
ATOM      7  C   UNL d   1      30.918 -16.040  -2.941  0.00  0.00     0.124 C 
BRANCH   7   8
ATOM      8  N   UNL d   1      30.668 -15.725  -1.570  0.00  0.00    -0.385 N 
ATOM      9  H   UNL d   1      31.450 -15.289  -1.072  0.00  0.00     0.159 HD
BRANCH   8  10
ATOM     10  C   UNL d   1      29.636 -16.192  -0.901  0.00  0.00     0.097 A 
ATOM     11  C   UNL d   1      29.236 -17.462  -0.580  0.00  0.00     0.147 A 
ATOM     12  C   UNL d   1      28.122 -16.936   0.231  0.00  0.00     0.236 A 
ATOM     13  O   UNL d   1      27.208 -17.380   0.890  0.00  0.00    -0.283 OA
ATOM     14  C   UNL d   1      28.522 -15.551  -0.105  0.00  0.00     0.113 A 
ATOM     15  N   UNL d   1      28.077 -14.371   0.245  0.00  0.00    -0.376 N 
ATOM     16  C   UNL d   1      27.244 -14.114   1.503  0.00  0.00     0.123 C 
ATOM     17  C   UNL d   1      28.586 -13.073  -0.378  0.00  0.00     0.123 C 
ATOM     18  C   UNL d   1      26.292 -12.914   1.345  0.00  0.00     0.020 C 
ATOM     19  C   UNL d   1      27.031 -11.657   0.903  0.00  0.00     0.003 C 
ATOM     20  C   UNL d   1      27.571 -11.950  -0.470  0.00  0.00     0.020 C 
BRANCH  11  21
ATOM     21  O   UNL d   1      29.742 -18.607  -0.881  0.00  0.00    -0.355 OA
ATOM     22  H   UNL d   1      29.979 -19.132  -0.092  0.00  0.00     0.218 HD
ENDBRANCH  11  21
ENDBRANCH   8  10
ENDBRANCH   7   8
ENDBRANCH   1   7
BRANCH   4  23
ATOM     23  C   UNL d   1      26.937 -14.771  -4.956  0.00  0.00     0.221 C 
ATOM     24  O   UNL d   1      26.317 -15.575  -5.649  0.00  0.00    -0.273 OA
ATOM     25  N   UNL d   1      26.576 -14.528  -3.654  0.00  0.00    -0.360 N 
ATOM     26  H   UNL d   1      27.144 -13.949  -3.051  0.00  0.00     0.162 HD
BRANCH  25  27
ATOM     27  C   UNL d   1      25.447 -15.247  -3.121  0.00  0.00     0.127 C 
BRANCH  27  28
ATOM     28  C   UNL d   1      25.641 -15.755  -1.699  0.00  0.00     0.058 C 
BRANCH  28  29
ATOM     29  C   UNL d   1      24.508 -16.644  -1.233  0.00  0.00    -0.057 A 
ATOM     30  C   UNL d   1      23.183 -16.181  -1.147  0.00  0.00     0.009 A 
ATOM     31  C   UNL d   1      22.157 -17.006  -0.701  0.00  0.00     0.024 A 
ATOM     32  C   UNL d   1      22.441 -18.317  -0.346  0.00  0.00     0.034 A 
ATOM     33 CL   UNL d   1      21.172 -19.325   0.226  0.00  0.00    -0.084 Cl
ATOM     34  C   UNL d   1      23.741 -18.810  -0.448  0.00  0.00     0.024 A 
ATOM     35  C   UNL d   1      24.773 -17.977  -0.891  0.00  0.00     0.009 A 
ENDBRANCH  28  29
ENDBRANCH  27  28
ENDBRANCH  25  27
ENDBRANCH   4  23
TORSDOF 8
ENDMDL
MODEL 8
REMARK VINA RESULT:    -7.976      1.965      4.664
REMARK INTER + INTRA:         -13.576
REMARK INTER:                 -10.363
REMARK INTRA:                  -3.213
REMARK CONF_INDEPENDENT:        2.386
REMARK UNBOUND:                -3.213
REMARK  8 active torsions:
REMARK  status: ('A' for Active; 'I' for Inactive)
REMARK    1  A    between atoms: C_3  and  O_4 
REMARK    2  A    between atoms: C_5  and  N_6 
REMARK    3  A    between atoms: N_6  and  C_7 
REMARK    4  A    between atoms: C_8  and  C_7 
REMARK    5  A    between atoms: C_11  and  C_12 
REMARK       I    between atoms: C_12  and  N_14 
REMARK    6  A    between atoms: N_14  and  C_15 
REMARK    7  A    between atoms: C_15  and  C_16 
REMARK    8  A    between atoms: C_16  and  C_17 
ROOT
ATOM      1  C   UNL d   1      27.317 -13.746  -5.726  0.00  0.00     0.003 C 
ATOM      2  C   UNL d   1      26.986 -15.198  -5.402  0.00  0.00     0.007 C 
ATOM      3  C   UNL d   1      25.535 -15.314  -4.936  0.00  0.00     0.014 C 
ATOM      4  C   UNL d   1      25.268 -14.424  -3.713  0.00  0.00     0.078 C 
ATOM      5  C   UNL d   1      25.560 -12.966  -4.084  0.00  0.00     0.014 C 
ATOM      6  C   UNL d   1      26.993 -12.804  -4.550  0.00  0.00     0.007 C 
ENDROOT
BRANCH   1   7
ATOM      7  C   UNL d   1      28.758 -13.455  -6.047  0.00  0.00     0.124 C 
BRANCH   7   8
ATOM      8  N   UNL d   1      29.772 -13.560  -5.046  0.00  0.00    -0.385 N 
ATOM      9  H   UNL d   1      30.540 -12.886  -5.130  0.00  0.00     0.159 HD
BRANCH   8  10
ATOM     10  C   UNL d   1      29.886 -14.594  -4.241  0.00  0.00     0.097 A 
ATOM     11  C   UNL d   1      29.710 -14.742  -2.891  0.00  0.00     0.147 A 
ATOM     12  C   UNL d   1      29.933 -16.196  -2.994  0.00  0.00     0.236 A 
ATOM     13  O   UNL d   1      29.980 -17.149  -2.248  0.00  0.00    -0.283 OA
ATOM     14  C   UNL d   1      30.139 -16.069  -4.455  0.00  0.00     0.113 A 
ATOM     15  N   UNL d   1      30.364 -16.930  -5.414  0.00  0.00    -0.376 N 
ATOM     16  C   UNL d   1      30.030 -18.420  -5.317  0.00  0.00     0.123 C 
ATOM     17  C   UNL d   1      30.694 -16.510  -6.845  0.00  0.00     0.123 C 
ATOM     18  C   UNL d   1      30.966 -19.291  -6.175  0.00  0.00     0.020 C 
ATOM     19  C   UNL d   1      31.006 -18.825  -7.625  0.00  0.00     0.003 C 
ATOM     20  C   UNL d   1      31.611 -17.449  -7.606  0.00  0.00     0.020 C 
BRANCH  11  21
ATOM     21  O   UNL d   1      29.414 -13.882  -1.980  0.00  0.00    -0.355 OA
ATOM     22  H   UNL d   1      28.779 -14.232  -1.325  0.00  0.00     0.218 HD
ENDBRANCH  11  21
ENDBRANCH   8  10
ENDBRANCH   7   8
ENDBRANCH   1   7
BRANCH   4  23
ATOM     23  C   UNL d   1      26.107 -14.856  -2.506  0.00  0.00     0.221 C 
ATOM     24  O   UNL d   1      26.673 -14.062  -1.758  0.00  0.00    -0.273 OA
ATOM     25  N   UNL d   1      26.217 -16.212  -2.319  0.00  0.00    -0.360 N 
ATOM     26  H   UNL d   1      25.671 -16.863  -2.866  0.00  0.00     0.162 HD
BRANCH  25  27
ATOM     27  C   UNL d   1      27.017 -16.678  -1.216  0.00  0.00     0.127 C 
BRANCH  27  28
ATOM     28  C   UNL d   1      26.234 -16.934   0.064  0.00  0.00     0.058 C 
BRANCH  28  29
ATOM     29  C   UNL d   1      24.827 -17.426  -0.196  0.00  0.00    -0.057 A 
ATOM     30  C   UNL d   1      23.775 -16.548  -0.509  0.00  0.00     0.009 A 
ATOM     31  C   UNL d   1      22.484 -17.017  -0.728  0.00  0.00     0.024 A 
ATOM     32  C   UNL d   1      22.230 -18.378  -0.652  0.00  0.00     0.034 A 
ATOM     33 CL   UNL d   1      20.628 -18.949  -0.902  0.00  0.00    -0.084 Cl
ATOM     34  C   UNL d   1      23.261 -19.273  -0.372  0.00  0.00     0.024 A 
ATOM     35  C   UNL d   1      24.557 -18.801  -0.145  0.00  0.00     0.009 A 
ENDBRANCH  28  29
ENDBRANCH  27  28
ENDBRANCH  25  27
ENDBRANCH   4  23
TORSDOF 8
ENDMDL
MODEL 9
REMARK VINA RESULT:    -7.337      2.606      4.715
REMARK INTER + INTRA:         -13.218
REMARK INTER:                  -9.724
REMARK INTRA:                  -3.494
REMARK CONF_INDEPENDENT:        2.386
REMARK UNBOUND:                -3.494
REMARK  8 active torsions:
REMARK  status: ('A' for Active; 'I' for Inactive)
REMARK    1  A    between atoms: C_3  and  O_4 
REMARK    2  A    between atoms: C_5  and  N_6 
REMARK    3  A    between atoms: N_6  and  C_7 
REMARK    4  A    between atoms: C_8  and  C_7 
REMARK    5  A    between atoms: C_11  and  C_12 
REMARK       I    between atoms: C_12  and  N_14 
REMARK    6  A    between atoms: N_14  and  C_15 
REMARK    7  A    between atoms: C_15  and  C_16 
REMARK    8  A    between atoms: C_16  and  C_17 
ROOT
ATOM      1  C   UNL d   1      27.029 -11.752  -1.197  0.00  0.00     0.003 C 
ATOM      2  C   UNL d   1      26.518 -13.155  -0.895  0.00  0.00     0.007 C 
ATOM      3  C   UNL d   1      26.845 -13.533   0.550  0.00  0.00     0.014 C 
ATOM      4  C   UNL d   1      28.355 -13.450   0.820  0.00  0.00     0.078 C 
ATOM      5  C   UNL d   1      28.831 -12.017   0.556  0.00  0.00     0.014 C 
ATOM      6  C   UNL d   1      28.528 -11.601  -0.868  0.00  0.00     0.007 C 
ENDROOT
BRANCH   1   7
ATOM      7  C   UNL d   1      26.918 -11.306  -2.630  0.00  0.00     0.124 C 
BRANCH   7   8
ATOM      8  N   UNL d   1      25.892 -11.815  -3.483  0.00  0.00    -0.385 N 
ATOM      9  H   UNL d   1      25.030 -11.260  -3.509  0.00  0.00     0.159 HD
BRANCH   8  10
ATOM     10  C   UNL d   1      25.911 -13.029  -3.989  0.00  0.00     0.097 A 
ATOM     11  C   UNL d   1      24.920 -13.920  -4.302  0.00  0.00     0.147 A 
ATOM     12  C   UNL d   1      25.903 -14.854  -4.880  0.00  0.00     0.236 A 
ATOM     13  O   UNL d   1      25.900 -15.950  -5.396  0.00  0.00    -0.283 OA
ATOM     14  C   UNL d   1      27.000 -13.917  -4.546  0.00  0.00     0.113 A 
ATOM     15  N   UNL d   1      28.292 -13.928  -4.753  0.00  0.00    -0.376 N 
ATOM     16  C   UNL d   1      28.975 -14.769  -5.834  0.00  0.00     0.123 C 
ATOM     17  C   UNL d   1      29.236 -12.884  -4.160  0.00  0.00     0.123 C 
ATOM     18  C   UNL d   1      30.413 -15.165  -5.453  0.00  0.00     0.020 C 
ATOM     19  C   UNL d   1      31.256 -13.952  -5.079  0.00  0.00     0.003 C 
ATOM     20  C   UNL d   1      30.634 -13.376  -3.837  0.00  0.00     0.020 C 
BRANCH  11  21
ATOM     21  O   UNL d   1      23.642 -13.847  -4.152  0.00  0.00    -0.355 OA
ATOM     22  H   UNL d   1      23.178 -13.631  -4.984  0.00  0.00     0.218 HD
ENDBRANCH  11  21
ENDBRANCH   8  10
ENDBRANCH   7   8
ENDBRANCH   1   7
BRANCH   4  23
ATOM     23  C   UNL d   1      29.138 -14.449  -0.038  0.00  0.00     0.221 C 
ATOM     24  O   UNL d   1      29.388 -14.267  -1.228  0.00  0.00    -0.273 OA
ATOM     25  N   UNL d   1      29.529 -15.598   0.603  0.00  0.00    -0.360 N 
ATOM     26  H   UNL d   1      29.418 -15.705   1.603  0.00  0.00     0.162 HD
BRANCH  25  27
ATOM     27  C   UNL d   1      30.245 -16.587  -0.160  0.00  0.00     0.127 C 
BRANCH  27  28
ATOM     28  C   UNL d   1      29.400 -17.778  -0.594  0.00  0.00     0.058 C 
BRANCH  28  29
ATOM     29  C   UNL d   1      27.926 -17.449  -0.691  0.00  0.00    -0.057 A 
ATOM     30  C   UNL d   1      27.413 -16.612  -1.697  0.00  0.00     0.009 A 
ATOM     31  C   UNL d   1      26.058 -16.307  -1.761  0.00  0.00     0.024 A 
ATOM     32  C   UNL d   1      25.191 -16.849  -0.824  0.00  0.00     0.034 A 
ATOM     33 CL   UNL d   1      23.521 -16.451  -0.896  0.00  0.00    -0.084 Cl
ATOM     34  C   UNL d   1      25.669 -17.705   0.167  0.00  0.00     0.024 A 
ATOM     35  C   UNL d   1      27.033 -18.006   0.234  0.00  0.00     0.009 A 
ENDBRANCH  28  29
ENDBRANCH  27  28
ENDBRANCH  25  27
ENDBRANCH   4  23
TORSDOF 8
ENDMDL
