MODEL 1
REMARK VINA RESULT:   -29.120      0.000      0.000
REMARK INTER + INTRA:         -33.263
REMARK INTER:                 -32.103
REMARK INTRA:                  -1.160
REMARK CONF_INDEPENDENT:        2.983
REMARK UNBOUND:                -1.160
REMARK  10 active torsions:
REMARK  status: ('A' for Active; 'I' for Inactive)
REMARK    1  A    between atoms: C_2  and  N_3 
REMARK    2  A    between atoms: N_3  and  C_4 
REMARK    3  A    between atoms: N_3  and  C_6 
REMARK    4  A    between atoms: C_9  and  N_10 
REMARK       I    between atoms: N_10  and  C_11 
REMARK    5  A    between atoms: C_11  and  C_13 
REMARK    6  A    between atoms: C_13  and  S_14 
REMARK    7  A    between atoms: S_14  and  C_15 
REMARK    8  A    between atoms: C_18  and  N_19 
REMARK    9  A    between atoms: N_19  and  N_20 
REMARK   10  A    between atoms: C_21  and  C_23 
ROOT
ATOM      1  S   UNL d   1      25.916 -12.413  -5.003  0.00  0.00    -0.079 SA
ENDROOT
BRANCH   1   2
ATOM      2  C   UNL d   1      27.423 -13.165  -5.741  0.00  0.00     0.185 C 
BRANCH   2   3
ATOM      3  C   UNL d   1      27.885 -14.291  -4.782  0.00  0.00     0.231 C 
ATOM      4  N   UNL d   1      28.691 -13.931  -3.688  0.00  0.00    -0.327 N 
ATOM      5  H   UNL d   1      28.984 -12.964  -3.599  0.00  0.00     0.169 HD
ATOM      6  O   UNL d   1      27.557 -15.451  -4.994  0.00  0.00    -0.272 OA
BRANCH   4   7
ATOM      7  C   UNL d   1      29.222 -14.875  -2.743  0.00  0.00     0.034 A 
ATOM      8  C   UNL d   1      30.519 -14.732  -2.239  0.00  0.00     0.032 A 
ATOM      9  C   UNL d   1      31.094 -15.739  -1.421  0.00  0.00     0.039 A 
ATOM     10  C   UNL d   1      30.365 -16.866  -1.009  0.00  0.00     0.134 A 
ATOM     11  C   UNL d   1      29.051 -16.969  -1.446  0.00  0.00     0.039 A 
ATOM     12  C   UNL d   1      28.507 -15.995  -2.301  0.00  0.00     0.032 A 
BRANCH  10  13
ATOM     13  N   UNL d   1      31.055 -17.921  -0.162  0.00  0.00    -0.042 N 
ATOM     14  H   UNL d   1      30.278 -18.268   0.411  0.00  0.00     0.286 HD
BRANCH  13  15
ATOM     15  C   UNL d   1      31.961 -17.310   0.910  0.00  0.00     0.237 C 
ATOM     16  C   UNL d   1      33.450 -17.515   0.721  0.00  0.00     0.035 C 
ENDBRANCH  13  15
BRANCH  13  17
ATOM     17  C   UNL d   1      31.403 -19.136  -1.028  0.00  0.00     0.237 C 
ATOM     18  C   UNL d   1      30.980 -20.483  -0.477  0.00  0.00     0.035 C 
ENDBRANCH  13  17
ENDBRANCH  10  13
ENDBRANCH   4   7
ENDBRANCH   2   3
ENDBRANCH   1   2
BRANCH   1  19
ATOM     19  C   UNL d   1      25.551 -13.397  -3.631  0.00  0.00     0.226 A 
ATOM     20  N   UNL d   1      26.318 -13.364  -2.537  0.00  0.00    -0.132 NA
ATOM     21  N   UNL d   1      25.824 -14.403  -1.843  0.00  0.00    -0.103 N 
ATOM     22  C   UNL d   1      24.797 -15.017  -2.513  0.00  0.00     0.739 A 
ATOM     23  H   UNL d   1      26.218 -14.621  -0.936  0.00  0.00     0.208 HD
ATOM     24  N   UNL d   1      24.607 -14.380  -3.648  0.00  0.00    -0.034 NA
BRANCH  22  25
ATOM     25  N   UNL d   1      24.149 -16.086  -1.986  0.00  0.00    -0.106 N 
ATOM     26  H   UNL d   1      23.164 -16.220  -2.199  0.00  0.00     0.208 HD
BRANCH  25  27
ATOM     27  N   UNL d   1      24.743 -16.901  -1.062  0.00  0.00    -0.164 NA
ATOM     28  C   UNL d   1      24.043 -17.756  -0.370  0.00  0.00     0.061 C 
ATOM     29  C   UNL d   1      24.787 -18.576   0.673  0.00  0.00     0.073 C 
BRANCH  28  30
ATOM     30  C   UNL d   1      22.588 -18.032  -0.524  0.00  0.00    -0.007 A 
ATOM     31  C   UNL d   1      22.076 -19.265  -0.120  0.00  0.00     0.032 A 
ATOM     32  C   UNL d   1      20.743 -19.531  -0.364  0.00  0.00     0.117 A 
ATOM     33  N   UNL d   1      19.905 -18.646  -0.938  0.00  0.00    -0.273 NA
ATOM     34  C   UNL d   1      20.410 -17.439  -1.270  0.00  0.00     0.117 A 
ATOM     35  C   UNL d   1      21.735 -17.083  -1.087  0.00  0.00     0.032 A 
ENDBRANCH  28  30
ENDBRANCH  25  27
ENDBRANCH  22  25
ENDBRANCH   1  19
TORSDOF 10
ENDMDL
MODEL 2
REMARK VINA RESULT:   -28.444      3.202      3.773
REMARK INTER + INTRA:         -33.167
REMARK INTER:                 -31.427
REMARK INTRA:                  -1.740
REMARK CONF_INDEPENDENT:        2.983
REMARK UNBOUND:                -1.740
REMARK  10 active torsions:
REMARK  status: ('A' for Active; 'I' for Inactive)
REMARK    1  A    between atoms: C_2  and  N_3 
REMARK    2  A    between atoms: N_3  and  C_4 
REMARK    3  A    between atoms: N_3  and  C_6 
REMARK    4  A    between atoms: C_9  and  N_10 
REMARK       I    between atoms: N_10  and  C_11 
REMARK    5  A    between atoms: C_11  and  C_13 
REMARK    6  A    between atoms: C_13  and  S_14 
REMARK    7  A    between atoms: S_14  and  C_15 
REMARK    8  A    between atoms: C_18  and  N_19 
REMARK    9  A    between atoms: N_19  and  N_20 
REMARK   10  A    between atoms: C_21  and  C_23 
ROOT
ATOM      1  S   UNL d   1      26.307 -12.868  -4.994  0.00  0.00    -0.079 SA
ENDROOT
BRANCH   1   2
ATOM      2  C   UNL d   1      26.182 -11.409  -3.882  0.00  0.00     0.185 C 
BRANCH   2   3
ATOM      3  C   UNL d   1      26.934 -11.768  -2.576  0.00  0.00     0.231 C 
ATOM      4  N   UNL d   1      26.316 -12.670  -1.690  0.00  0.00    -0.327 N 
ATOM      5  H   UNL d   1      25.386 -13.006  -1.912  0.00  0.00     0.169 HD
ATOM      6  O   UNL d   1      28.022 -11.264  -2.336  0.00  0.00    -0.272 OA
BRANCH   4   7
ATOM      7  C   UNL d   1      26.881 -13.061  -0.427  0.00  0.00     0.034 A 
ATOM      8  C   UNL d   1      27.634 -12.159   0.331  0.00  0.00     0.032 A 
ATOM      9  C   UNL d   1      28.311 -12.585   1.503  0.00  0.00     0.039 A 
ATOM     10  C   UNL d   1      28.181 -13.892   2.000  0.00  0.00     0.134 A 
ATOM     11  C   UNL d   1      27.370 -14.766   1.290  0.00  0.00     0.039 A 
ATOM     12  C   UNL d   1      26.748 -14.352   0.099  0.00  0.00     0.032 A 
BRANCH  10  13
ATOM     13  N   UNL d   1      28.962 -14.289   3.242  0.00  0.00    -0.042 N 
ATOM     14  H   UNL d   1      29.331 -15.207   2.969  0.00  0.00     0.286 HD
BRANCH  13  15
ATOM     15  C   UNL d   1      28.048 -14.673   4.408  0.00  0.00     0.237 C 
ATOM     16  C   UNL d   1      28.739 -15.158   5.665  0.00  0.00     0.035 C 
ENDBRANCH  13  15
BRANCH  13  17
ATOM     17  C   UNL d   1      30.229 -13.435   3.352  0.00  0.00     0.237 C 
ATOM     18  C   UNL d   1      30.190 -12.328   4.388  0.00  0.00     0.035 C 
ENDBRANCH  13  17
ENDBRANCH  10  13
ENDBRANCH   4   7
ENDBRANCH   2   3
ENDBRANCH   1   2
BRANCH   1  19
ATOM     19  C   UNL d   1      26.134 -14.239  -3.956  0.00  0.00     0.226 A 
ATOM     20  N   UNL d   1      27.103 -15.152  -3.857  0.00  0.00    -0.132 NA
ATOM     21  N   UNL d   1      26.482 -16.113  -3.152  0.00  0.00    -0.103 N 
ATOM     22  C   UNL d   1      25.191 -15.764  -2.847  0.00  0.00     0.739 A 
ATOM     23  H   UNL d   1      26.992 -16.954  -2.911  0.00  0.00     0.208 HD
ATOM     24  N   UNL d   1      24.961 -14.568  -3.346  0.00  0.00    -0.034 NA
BRANCH  22  25
ATOM     25  N   UNL d   1      24.386 -16.588  -2.132  0.00  0.00    -0.106 N 
ATOM     26  H   UNL d   1      23.396 -16.632  -2.361  0.00  0.00     0.208 HD
BRANCH  25  27
ATOM     27  N   UNL d   1      24.837 -17.246  -1.022  0.00  0.00    -0.164 NA
ATOM     28  C   UNL d   1      24.022 -17.925  -0.263  0.00  0.00     0.061 C 
ATOM     29  C   UNL d   1      24.612 -18.573   0.980  0.00  0.00     0.073 C 
BRANCH  28  30
ATOM     30  C   UNL d   1      22.573 -18.155  -0.515  0.00  0.00    -0.007 A 
ATOM     31  C   UNL d   1      22.031 -19.422  -0.298  0.00  0.00     0.032 A 
ATOM     32  C   UNL d   1      20.708 -19.633  -0.631  0.00  0.00     0.117 A 
ATOM     33  N   UNL d   1      19.905 -18.668  -1.120  0.00  0.00    -0.273 NA
ATOM     34  C   UNL d   1      20.436 -17.435  -1.269  0.00  0.00     0.117 A 
ATOM     35  C   UNL d   1      21.756 -17.127  -0.984  0.00  0.00     0.032 A 
ENDBRANCH  28  30
ENDBRANCH  25  27
ENDBRANCH  22  25
ENDBRANCH   1  19
TORSDOF 10
ENDMDL
MODEL 3
REMARK VINA RESULT:   -28.170      2.537      3.298
REMARK INTER + INTRA:         -32.210
REMARK INTER:                 -31.153
REMARK INTRA:                  -1.057
REMARK CONF_INDEPENDENT:        2.983
REMARK UNBOUND:                -1.057
REMARK  10 active torsions:
REMARK  status: ('A' for Active; 'I' for Inactive)
REMARK    1  A    between atoms: C_2  and  N_3 
REMARK    2  A    between atoms: N_3  and  C_4 
REMARK    3  A    between atoms: N_3  and  C_6 
REMARK    4  A    between atoms: C_9  and  N_10 
REMARK       I    between atoms: N_10  and  C_11 
REMARK    5  A    between atoms: C_11  and  C_13 
REMARK    6  A    between atoms: C_13  and  S_14 
REMARK    7  A    between atoms: S_14  and  C_15 
REMARK    8  A    between atoms: C_18  and  N_19 
REMARK    9  A    between atoms: N_19  and  N_20 
REMARK   10  A    between atoms: C_21  and  C_23 
ROOT
ATOM      1  S   UNL d   1      27.411 -14.243  -5.407  0.00  0.00    -0.079 SA
ENDROOT
BRANCH   1   2
ATOM      2  C   UNL d   1      28.554 -15.654  -5.125  0.00  0.00     0.185 C 
BRANCH   2   3
ATOM      3  C   UNL d   1      28.773 -15.763  -3.594  0.00  0.00     0.231 C 
ATOM      4  N   UNL d   1      28.828 -14.569  -2.854  0.00  0.00    -0.327 N 
ATOM      5  H   UNL d   1      28.779 -13.687  -3.352  0.00  0.00     0.169 HD
ATOM      6  O   UNL d   1      28.902 -16.860  -3.069  0.00  0.00    -0.272 OA
BRANCH   4   7
ATOM      7  C   UNL d   1      29.064 -14.519  -1.436  0.00  0.00     0.034 A 
ATOM      8  C   UNL d   1      29.221 -15.694  -0.694  0.00  0.00     0.032 A 
ATOM      9  C   UNL d   1      29.308 -15.652   0.722  0.00  0.00     0.039 A 
ATOM     10  C   UNL d   1      29.333 -14.438   1.426  0.00  0.00     0.134 A 
ATOM     11  C   UNL d   1      29.256 -13.267   0.683  0.00  0.00     0.039 A 
ATOM     12  C   UNL d   1      29.114 -13.320  -0.714  0.00  0.00     0.032 A 
BRANCH  10  13
ATOM     13  N   UNL d   1      29.394 -14.468   2.944  0.00  0.00    -0.042 N 
ATOM     14  H   UNL d   1      29.694 -15.433   3.121  0.00  0.00     0.286 HD
BRANCH  13  15
ATOM     15  C   UNL d   1      28.003 -14.470   3.584  0.00  0.00     0.237 C 
ATOM     16  C   UNL d   1      27.180 -13.212   3.395  0.00  0.00     0.035 C 
ENDBRANCH  13  15
BRANCH  13  17
ATOM     17  C   UNL d   1      30.592 -13.647   3.431  0.00  0.00     0.237 C 
ATOM     18  C   UNL d   1      31.883 -13.845   2.662  0.00  0.00     0.035 C 
ENDBRANCH  13  17
ENDBRANCH  10  13
ENDBRANCH   4   7
ENDBRANCH   2   3
ENDBRANCH   1   2
BRANCH   1  19
ATOM     19  C   UNL d   1      26.189 -14.407  -4.197  0.00  0.00     0.226 A 
ATOM     20  N   UNL d   1      25.858 -13.379  -3.410  0.00  0.00    -0.132 NA
ATOM     21  N   UNL d   1      25.069 -13.987  -2.508  0.00  0.00    -0.103 N 
ATOM     22  C   UNL d   1      24.943 -15.328  -2.767  0.00  0.00     0.739 A 
ATOM     23  H   UNL d   1      24.651 -13.435  -1.769  0.00  0.00     0.208 HD
ATOM     24  N   UNL d   1      25.644 -15.605  -3.846  0.00  0.00    -0.034 NA
BRANCH  22  25
ATOM     25  N   UNL d   1      24.183 -16.131  -1.982  0.00  0.00    -0.106 N 
ATOM     26  H   UNL d   1      23.170 -16.092  -2.069  0.00  0.00     0.208 HD
BRANCH  25  27
ATOM     27  N   UNL d   1      24.731 -16.878  -0.977  0.00  0.00    -0.164 NA
ATOM     28  C   UNL d   1      24.017 -17.747  -0.316  0.00  0.00     0.061 C 
ATOM     29  C   UNL d   1      24.705 -18.487   0.821  0.00  0.00     0.073 C 
BRANCH  28  30
ATOM     30  C   UNL d   1      22.599 -18.109  -0.589  0.00  0.00    -0.007 A 
ATOM     31  C   UNL d   1      21.735 -17.149  -1.118  0.00  0.00     0.032 A 
ATOM     32  C   UNL d   1      20.404 -17.481  -1.270  0.00  0.00     0.117 A 
ATOM     33  N   UNL d   1      19.905 -18.695  -0.969  0.00  0.00    -0.273 NA
ATOM     34  C   UNL d   1      20.770 -19.626  -0.511  0.00  0.00     0.117 A 
ATOM     35  C   UNL d   1      22.118 -19.386  -0.304  0.00  0.00     0.032 A 
ENDBRANCH  28  30
ENDBRANCH  25  27
ENDBRANCH  22  25
ENDBRANCH   1  19
TORSDOF 10
ENDMDL
MODEL 4
REMARK VINA RESULT:   -27.437      2.991      3.830
REMARK INTER + INTRA:         -31.413
REMARK INTER:                 -30.420
REMARK INTRA:                  -0.993
REMARK CONF_INDEPENDENT:        2.983
REMARK UNBOUND:                -0.993
REMARK  10 active torsions:
REMARK  status: ('A' for Active; 'I' for Inactive)
REMARK    1  A    between atoms: C_2  and  N_3 
REMARK    2  A    between atoms: N_3  and  C_4 
REMARK    3  A    between atoms: N_3  and  C_6 
REMARK    4  A    between atoms: C_9  and  N_10 
REMARK       I    between atoms: N_10  and  C_11 
REMARK    5  A    between atoms: C_11  and  C_13 
REMARK    6  A    between atoms: C_13  and  S_14 
REMARK    7  A    between atoms: S_14  and  C_15 
REMARK    8  A    between atoms: C_18  and  N_19 
REMARK    9  A    between atoms: N_19  and  N_20 
REMARK   10  A    between atoms: C_21  and  C_23 
ROOT
ATOM      1  S   UNL d   1      25.746 -12.270  -4.951  0.00  0.00    -0.079 SA
ENDROOT
BRANCH   1   2
ATOM      2  C   UNL d   1      27.518 -11.830  -4.735  0.00  0.00     0.185 C 
BRANCH   2   3
ATOM      3  C   UNL d   1      28.349 -12.932  -5.439  0.00  0.00     0.231 C 
ATOM      4  N   UNL d   1      28.440 -14.187  -4.811  0.00  0.00    -0.327 N 
ATOM      5  H   UNL d   1      28.008 -14.306  -3.901  0.00  0.00     0.169 HD
ATOM      6  O   UNL d   1      28.909 -12.694  -6.501  0.00  0.00    -0.272 OA
BRANCH   4   7
ATOM      7  C   UNL d   1      29.207 -15.286  -5.331  0.00  0.00     0.034 A 
ATOM      8  C   UNL d   1      29.512 -16.390  -4.529  0.00  0.00     0.032 A 
ATOM      9  C   UNL d   1      30.388 -17.405  -4.993  0.00  0.00     0.039 A 
ATOM     10  C   UNL d   1      30.910 -17.393  -6.297  0.00  0.00     0.134 A 
ATOM     11  C   UNL d   1      30.545 -16.337  -7.120  0.00  0.00     0.039 A 
ATOM     12  C   UNL d   1      29.721 -15.307  -6.633  0.00  0.00     0.032 A 
BRANCH  10  13
ATOM     13  N   UNL d   1      31.870 -18.494  -6.716  0.00  0.00    -0.042 N 
ATOM     14  H   UNL d   1      32.105 -18.210  -7.673  0.00  0.00     0.286 HD
BRANCH  13  15
ATOM     15  C   UNL d   1      31.158 -19.825  -6.970  0.00  0.00     0.237 C 
ATOM     16  C   UNL d   1      31.042 -20.253  -8.419  0.00  0.00     0.035 C 
ENDBRANCH  13  15
BRANCH  13  17
ATOM     17  C   UNL d   1      33.202 -18.329  -5.977  0.00  0.00     0.237 C 
ATOM     18  C   UNL d   1      33.625 -16.902  -5.691  0.00  0.00     0.035 C 
ENDBRANCH  13  17
ENDBRANCH  10  13
ENDBRANCH   4   7
ENDBRANCH   2   3
ENDBRANCH   1   2
BRANCH   1  19
ATOM     19  C   UNL d   1      25.536 -13.735  -4.060  0.00  0.00     0.226 A 
ATOM     20  N   UNL d   1      26.044 -14.888  -4.503  0.00  0.00    -0.132 NA
ATOM     21  N   UNL d   1      25.473 -15.764  -3.659  0.00  0.00    -0.103 N 
ATOM     22  C   UNL d   1      24.662 -15.136  -2.749  0.00  0.00     0.739 A 
ATOM     23  H   UNL d   1      25.688 -16.749  -3.753  0.00  0.00     0.208 HD
ATOM     24  N   UNL d   1      24.702 -13.843  -2.988  0.00  0.00    -0.034 NA
BRANCH  22  25
ATOM     25  N   UNL d   1      23.994 -15.834  -1.798  0.00  0.00    -0.106 N 
ATOM     26  H   UNL d   1      23.008 -15.637  -1.641  0.00  0.00     0.208 HD
BRANCH  25  27
ATOM     27  N   UNL d   1      24.641 -16.686  -0.945  0.00  0.00    -0.164 NA
ATOM     28  C   UNL d   1      24.011 -17.675  -0.375  0.00  0.00     0.061 C 
ATOM     29  C   UNL d   1      24.805 -18.531   0.600  0.00  0.00     0.073 C 
BRANCH  28  30
ATOM     30  C   UNL d   1      22.594 -18.069  -0.611  0.00  0.00    -0.007 A 
ATOM     31  C   UNL d   1      21.705 -17.140  -1.152  0.00  0.00     0.032 A 
ATOM     32  C   UNL d   1      20.377 -17.499  -1.270  0.00  0.00     0.117 A 
ATOM     33  N   UNL d   1      19.905 -18.712  -0.924  0.00  0.00    -0.273 NA
ATOM     34  C   UNL d   1      20.794 -19.613  -0.454  0.00  0.00     0.117 A 
ATOM     35  C   UNL d   1      22.141 -19.345  -0.279  0.00  0.00     0.032 A 
ENDBRANCH  28  30
ENDBRANCH  25  27
ENDBRANCH  22  25
ENDBRANCH   1  19
TORSDOF 10
ENDMDL
MODEL 5
REMARK VINA RESULT:   -26.685      2.017      2.277
REMARK INTER + INTRA:         -30.821
REMARK INTER:                 -29.668
REMARK INTRA:                  -1.153
REMARK CONF_INDEPENDENT:        2.983
REMARK UNBOUND:                -1.153
REMARK  10 active torsions:
REMARK  status: ('A' for Active; 'I' for Inactive)
REMARK    1  A    between atoms: C_2  and  N_3 
REMARK    2  A    between atoms: N_3  and  C_4 
REMARK    3  A    between atoms: N_3  and  C_6 
REMARK    4  A    between atoms: C_9  and  N_10 
REMARK       I    between atoms: N_10  and  C_11 
REMARK    5  A    between atoms: C_11  and  C_13 
REMARK    6  A    between atoms: C_13  and  S_14 
REMARK    7  A    between atoms: S_14  and  C_15 
REMARK    8  A    between atoms: C_18  and  N_19 
REMARK    9  A    between atoms: N_19  and  N_20 
REMARK   10  A    between atoms: C_21  and  C_23 
ROOT
ATOM      1  S   UNL d   1      26.433 -12.159  -4.165  0.00  0.00    -0.079 SA
ENDROOT
BRANCH   1   2
ATOM      2  C   UNL d   1      27.691 -12.431  -5.477  0.00  0.00     0.185 C 
BRANCH   2   3
ATOM      3  C   UNL d   1      28.723 -13.442  -4.914  0.00  0.00     0.231 C 
ATOM      4  N   UNL d   1      28.549 -14.801  -5.229  0.00  0.00    -0.327 N 
ATOM      5  H   UNL d   1      27.731 -15.074  -5.762  0.00  0.00     0.169 HD
ATOM      6  O   UNL d   1      29.645 -13.050  -4.212  0.00  0.00    -0.272 OA
BRANCH   4   7
ATOM      7  C   UNL d   1      29.406 -15.849  -4.744  0.00  0.00     0.034 A 
ATOM      8  C   UNL d   1      30.250 -16.545  -5.615  0.00  0.00     0.032 A 
ATOM      9  C   UNL d   1      30.986 -17.672  -5.166  0.00  0.00     0.039 A 
ATOM     10  C   UNL d   1      30.972 -18.078  -3.822  0.00  0.00     0.134 A 
ATOM     11  C   UNL d   1      30.195 -17.339  -2.940  0.00  0.00     0.039 A 
ATOM     12  C   UNL d   1      29.425 -16.259  -3.405  0.00  0.00     0.032 A 
BRANCH  10  13
ATOM     13  N   UNL d   1      31.757 -19.315  -3.418  0.00  0.00    -0.042 N 
ATOM     14  H   UNL d   1      31.019 -19.909  -3.024  0.00  0.00     0.286 HD
BRANCH  13  15
ATOM     15  C   UNL d   1      32.632 -19.074  -2.185  0.00  0.00     0.237 C 
ATOM     16  C   UNL d   1      32.304 -19.907  -0.962  0.00  0.00     0.035 C 
ENDBRANCH  13  15
BRANCH  13  17
ATOM     17  C   UNL d   1      32.183 -20.090  -4.669  0.00  0.00     0.237 C 
ATOM     18  C   UNL d   1      31.058 -20.703  -5.480  0.00  0.00     0.035 C 
ENDBRANCH  13  17
ENDBRANCH  10  13
ENDBRANCH   4   7
ENDBRANCH   2   3
ENDBRANCH   1   2
BRANCH   1  19
ATOM     19  C   UNL d   1      25.905 -13.741  -3.715  0.00  0.00     0.226 A 
ATOM     20  N   UNL d   1      25.995 -14.765  -4.568  0.00  0.00    -0.132 NA
ATOM     21  N   UNL d   1      25.293 -15.708  -3.917  0.00  0.00    -0.103 N 
ATOM     22  C   UNL d   1      24.815 -15.246  -2.718  0.00  0.00     0.739 A 
ATOM     23  H   UNL d   1      25.196 -16.625  -4.335  0.00  0.00     0.208 HD
ATOM     24  N   UNL d   1      25.206 -13.997  -2.574  0.00  0.00    -0.034 NA
BRANCH  22  25
ATOM     25  N   UNL d   1      24.085 -16.039  -1.895  0.00  0.00    -0.106 N 
ATOM     26  H   UNL d   1      23.073 -15.940  -1.883  0.00  0.00     0.208 HD
BRANCH  25  27
ATOM     27  N   UNL d   1      24.680 -16.860  -0.977  0.00  0.00    -0.164 NA
ATOM     28  C   UNL d   1      23.991 -17.759  -0.331  0.00  0.00     0.061 C 
ATOM     29  C   UNL d   1      24.733 -18.583   0.710  0.00  0.00     0.073 C 
BRANCH  28  30
ATOM     30  C   UNL d   1      22.552 -18.081  -0.539  0.00  0.00    -0.007 A 
ATOM     31  C   UNL d   1      22.089 -19.367  -0.259  0.00  0.00     0.032 A 
ATOM     32  C   UNL d   1      20.773 -19.666  -0.552  0.00  0.00     0.117 A 
ATOM     33  N   UNL d   1      19.905 -18.768  -1.058  0.00  0.00    -0.273 NA
ATOM     34  C   UNL d   1      20.362 -17.515  -1.269  0.00  0.00     0.117 A 
ATOM     35  C   UNL d   1      21.667 -17.121  -1.028  0.00  0.00     0.032 A 
ENDBRANCH  28  30
ENDBRANCH  25  27
ENDBRANCH  22  25
ENDBRANCH   1  19
TORSDOF 10
ENDMDL
