MODEL 1
REMARK VINA RESULT:    -8.844      0.000      0.000
REMARK INTER + INTRA:         -12.294
REMARK INTER:                 -10.932
REMARK INTRA:                  -1.362
REMARK CONF_INDEPENDENT:        2.088
REMARK UNBOUND:                -1.362
REMARK  7 active torsions:
REMARK  status: ('A' for Active; 'I' for Inactive)
REMARK    1  A    between atoms: C_2  and  C_3 
REMARK       I    between atoms: C_2  and  N_20 
REMARK    2  A    between atoms: C_3  and  N_4 
REMARK    3  A    between atoms: N_4  and  C_5 
REMARK    4  A    between atoms: C_8  and  C_9 
REMARK       I    between atoms: C_9  and  N_11 
REMARK    5  A    between atoms: N_11  and  C_12 
REMARK    6  A    between atoms: C_12  and  C_13 
REMARK    7  A    between atoms: N_20  and  C_21 
ROOT
ATOM      1  C   UNL d   1      26.631 -16.668   0.243  0.00  0.00     0.028 A 
ATOM      2  C   UNL d   1      25.751 -15.987  -0.604  0.00  0.00     0.030 A 
ATOM      3  C   UNL d   1      24.519 -16.569  -0.979  0.00  0.00     0.019 A 
ATOM      4  C   UNL d   1      24.188 -17.879  -0.587  0.00  0.00     0.032 A 
ATOM      5  C   UNL d   1      25.081 -18.564   0.232  0.00  0.00     0.019 A 
ATOM      6  C   UNL d   1      26.282 -17.968   0.617  0.00  0.00     0.030 A 
ENDROOT
BRANCH   1   7
ATOM      7  N   UNL d   1      27.835 -16.133   0.679  0.00  0.00    -0.381 N 
ATOM      8  H   UNL d   1      28.352 -16.535   1.454  0.00  0.00     0.160 HD
BRANCH   7   9
ATOM      9  C   UNL d   1      28.138 -14.749   0.318  0.00  0.00     0.223 C 
BRANCH   9  10
ATOM     10  C   UNL d   1      27.135 -13.724   0.873  0.00  0.00     0.239 C 
ATOM     11  O   UNL d   1      26.292 -13.171   0.160  0.00  0.00    -0.271 OA
ATOM     12  N   UNL d   1      27.099 -13.514   2.242  0.00  0.00    -0.323 N 
ATOM     13  H   UNL d   1      26.285 -12.999   2.559  0.00  0.00     0.169 HD
BRANCH  12  14
ATOM     14  C   UNL d   1      28.027 -13.948   3.211  0.00  0.00     0.073 A 
ATOM     15  C   UNL d   1      27.568 -14.421   4.446  0.00  0.00     0.033 A 
ATOM     16  C   UNL d   1      28.487 -14.823   5.427  0.00  0.00     0.002 A 
ATOM     17  C   UNL d   1      29.858 -14.820   5.161  0.00  0.00     0.003 A 
ATOM     18  C   UNL d   1      30.320 -14.333   3.947  0.00  0.00     0.044 A 
ATOM     19  C   UNL d   1      29.409 -13.853   3.018  0.00  0.00     0.143 A 
ATOM     20  F   UNL d   1      29.909 -13.175   1.978  0.00  0.00    -0.204 F 
ENDBRANCH  12  14
ENDBRANCH   9  10
ENDBRANCH   7   9
ENDBRANCH   1   7
BRANCH   4  21
ATOM     21  C   UNL d   1      22.935 -18.526  -1.095  0.00  0.00     0.251 C 
ATOM     22  O   UNL d   1      22.978 -19.225  -2.113  0.00  0.00    -0.268 OA
ATOM     23  N   UNL d   1      21.762 -18.348  -0.381  0.00  0.00    -0.351 N 
ATOM     24  H   UNL d   1      21.708 -17.783   0.454  0.00  0.00     0.163 HD
BRANCH  23  25
ATOM     25  C   UNL d   1      20.536 -18.976  -0.813  0.00  0.00     0.187 C 
BRANCH  25  26
ATOM     26  C   UNL d   1      19.815 -19.686   0.284  0.00  0.00     0.070 A 
ATOM     27  C   UNL d   1      18.820 -20.642   0.232  0.00  0.00     0.036 A 
ATOM     28  C   UNL d   1      18.446 -20.922   1.565  0.00  0.00     0.027 A 
ATOM     29  C   UNL d   1      19.241 -20.126   2.356  0.00  0.00     0.142 A 
ATOM     30  O   UNL d   1      20.082 -19.372   1.591  0.00  0.00    -0.325 OA
ENDBRANCH  25  26
ENDBRANCH  23  25
ENDBRANCH   4  21
TORSDOF 7
ENDMDL
MODEL 2
REMARK VINA RESULT:    -8.622      1.081      1.497
REMARK INTER + INTRA:         -11.835
REMARK INTER:                 -10.710
REMARK INTRA:                  -1.125
REMARK CONF_INDEPENDENT:        2.088
REMARK UNBOUND:                -1.125
REMARK  7 active torsions:
REMARK  status: ('A' for Active; 'I' for Inactive)
REMARK    1  A    between atoms: C_2  and  C_3 
REMARK       I    between atoms: C_2  and  N_20 
REMARK    2  A    between atoms: C_3  and  N_4 
REMARK    3  A    between atoms: N_4  and  C_5 
REMARK    4  A    between atoms: C_8  and  C_9 
REMARK       I    between atoms: C_9  and  N_11 
REMARK    5  A    between atoms: N_11  and  C_12 
REMARK    6  A    between atoms: C_12  and  C_13 
REMARK    7  A    between atoms: N_20  and  C_21 
ROOT
ATOM      1  C   UNL d   1      26.192 -17.034  -0.448  0.00  0.00     0.028 A 
ATOM      2  C   UNL d   1      25.631 -18.107   0.252  0.00  0.00     0.030 A 
ATOM      3  C   UNL d   1      24.274 -18.455   0.065  0.00  0.00     0.019 A 
ATOM      4  C   UNL d   1      23.434 -17.680  -0.755  0.00  0.00     0.032 A 
ATOM      5  C   UNL d   1      23.991 -16.596  -1.425  0.00  0.00     0.019 A 
ATOM      6  C   UNL d   1      25.338 -16.278  -1.254  0.00  0.00     0.030 A 
ENDROOT
BRANCH   1   7
ATOM      7  N   UNL d   1      27.527 -16.669  -0.338  0.00  0.00    -0.381 N 
ATOM      8  H   UNL d   1      28.256 -17.133  -0.869  0.00  0.00     0.160 HD
BRANCH   7   9
ATOM      9  C   UNL d   1      27.936 -15.924   0.853  0.00  0.00     0.223 C 
BRANCH   9  10
ATOM     10  C   UNL d   1      27.485 -14.454   0.857  0.00  0.00     0.239 C 
ATOM     11  O   UNL d   1      26.942 -13.928  -0.120  0.00  0.00    -0.271 OA
ATOM     12  N   UNL d   1      27.578 -13.741   2.040  0.00  0.00    -0.323 N 
ATOM     13  H   UNL d   1      27.073 -12.862   2.033  0.00  0.00     0.169 HD
BRANCH  12  14
ATOM     14  C   UNL d   1      28.256 -14.105   3.222  0.00  0.00     0.073 A 
ATOM     15  C   UNL d   1      27.522 -14.450   4.362  0.00  0.00     0.033 A 
ATOM     16  C   UNL d   1      28.189 -14.782   5.552  0.00  0.00     0.002 A 
ATOM     17  C   UNL d   1      29.584 -14.837   5.592  0.00  0.00     0.003 A 
ATOM     18  C   UNL d   1      30.317 -14.476   4.471  0.00  0.00     0.044 A 
ATOM     19  C   UNL d   1      29.650 -14.062   3.328  0.00  0.00     0.143 A 
ATOM     20  F   UNL d   1      30.392 -13.496   2.368  0.00  0.00    -0.204 F 
ENDBRANCH  12  14
ENDBRANCH   9  10
ENDBRANCH   7   9
ENDBRANCH   1   7
BRANCH   4  21
ATOM     21  C   UNL d   1      21.970 -17.990  -0.844  0.00  0.00     0.251 C 
ATOM     22  O   UNL d   1      21.151 -17.066  -0.884  0.00  0.00    -0.268 OA
ATOM     23  N   UNL d   1      21.578 -19.316  -0.914  0.00  0.00    -0.351 N 
ATOM     24  H   UNL d   1      22.232 -20.085  -0.885  0.00  0.00     0.163 HD
BRANCH  23  25
ATOM     25  C   UNL d   1      20.182 -19.665  -1.032  0.00  0.00     0.187 C 
BRANCH  25  26
ATOM     26  C   UNL d   1      19.563 -20.077   0.262  0.00  0.00     0.070 A 
ATOM     27  C   UNL d   1      19.882 -19.729   1.561  0.00  0.00     0.036 A 
ATOM     28  C   UNL d   1      19.022 -20.462   2.408  0.00  0.00     0.027 A 
ATOM     29  C   UNL d   1      18.220 -21.209   1.577  0.00  0.00     0.142 A 
ATOM     30  O   UNL d   1      18.535 -20.982   0.270  0.00  0.00    -0.325 OA
ENDBRANCH  25  26
ENDBRANCH  23  25
ENDBRANCH   4  21
TORSDOF 7
ENDMDL
MODEL 3
REMARK VINA RESULT:    -8.488      3.282      4.629
REMARK INTER + INTRA:         -12.164
REMARK INTER:                 -10.576
REMARK INTRA:                  -1.588
REMARK CONF_INDEPENDENT:        2.088
REMARK UNBOUND:                -1.588
REMARK  7 active torsions:
REMARK  status: ('A' for Active; 'I' for Inactive)
REMARK    1  A    between atoms: C_2  and  C_3 
REMARK       I    between atoms: C_2  and  N_20 
REMARK    2  A    between atoms: C_3  and  N_4 
REMARK    3  A    between atoms: N_4  and  C_5 
REMARK    4  A    between atoms: C_8  and  C_9 
REMARK       I    between atoms: C_9  and  N_11 
REMARK    5  A    between atoms: N_11  and  C_12 
REMARK    6  A    between atoms: C_12  and  C_13 
REMARK    7  A    between atoms: N_20  and  C_21 
ROOT
ATOM      1  C   UNL d   1      26.704 -17.595  -0.370  0.00  0.00     0.028 A 
ATOM      2  C   UNL d   1      25.902 -18.176   0.617  0.00  0.00     0.030 A 
ATOM      3  C   UNL d   1      24.504 -18.275   0.439  0.00  0.00     0.019 A 
ATOM      4  C   UNL d   1      23.874 -17.713  -0.686  0.00  0.00     0.032 A 
ATOM      5  C   UNL d   1      24.675 -17.110  -1.652  0.00  0.00     0.019 A 
ATOM      6  C   UNL d   1      26.057 -17.041  -1.478  0.00  0.00     0.030 A 
ENDROOT
BRANCH   1   7
ATOM      7  N   UNL d   1      28.086 -17.505  -0.273  0.00  0.00    -0.381 N 
ATOM      8  H   UNL d   1      28.576 -17.681   0.597  0.00  0.00     0.160 HD
BRANCH   7   9
ATOM      9  C   UNL d   1      28.794 -16.735  -1.296  0.00  0.00     0.223 C 
BRANCH   9  10
ATOM     10  C   UNL d   1      29.067 -15.274  -0.903  0.00  0.00     0.239 C 
ATOM     11  O   UNL d   1      29.847 -14.970   0.005  0.00  0.00    -0.271 OA
ATOM     12  N   UNL d   1      28.514 -14.270  -1.679  0.00  0.00    -0.323 N 
ATOM     13  H   UNL d   1      28.902 -13.350  -1.500  0.00  0.00     0.169 HD
BRANCH  12  14
ATOM     14  C   UNL d   1      27.523 -14.388  -2.676  0.00  0.00     0.073 A 
ATOM     15  C   UNL d   1      26.222 -13.948  -2.413  0.00  0.00     0.033 A 
ATOM     16  C   UNL d   1      25.222 -14.092  -3.388  0.00  0.00     0.002 A 
ATOM     17  C   UNL d   1      25.529 -14.610  -4.648  0.00  0.00     0.003 A 
ATOM     18  C   UNL d   1      26.813 -15.067  -4.907  0.00  0.00     0.044 A 
ATOM     19  C   UNL d   1      27.771 -15.004  -3.907  0.00  0.00     0.143 A 
ATOM     20  F   UNL d   1      28.911 -15.673  -4.120  0.00  0.00    -0.204 F 
ENDBRANCH  12  14
ENDBRANCH   9  10
ENDBRANCH   7   9
ENDBRANCH   1   7
BRANCH   4  21
ATOM     21  C   UNL d   1      22.379 -17.718  -0.798  0.00  0.00     0.251 C 
ATOM     22  O   UNL d   1      21.770 -16.648  -0.895  0.00  0.00    -0.268 OA
ATOM     23  N   UNL d   1      21.723 -18.937  -0.824  0.00  0.00    -0.351 N 
ATOM     24  H   UNL d   1      22.203 -19.821  -0.749  0.00  0.00     0.163 HD
BRANCH  23  25
ATOM     25  C   UNL d   1      20.286 -18.995  -0.961  0.00  0.00     0.187 C 
BRANCH  25  26
ATOM     26  C   UNL d   1      19.615 -19.733   0.149  0.00  0.00     0.070 A 
ATOM     27  C   UNL d   1      19.837 -19.700   1.512  0.00  0.00     0.036 A 
ATOM     28  C   UNL d   1      18.968 -20.649   2.095  0.00  0.00     0.027 A 
ATOM     29  C   UNL d   1      18.259 -21.202   1.054  0.00  0.00     0.142 A 
ATOM     30  O   UNL d   1      18.638 -20.651  -0.135  0.00  0.00    -0.325 OA
ENDBRANCH  25  26
ENDBRANCH  23  25
ENDBRANCH   4  21
TORSDOF 7
ENDMDL
MODEL 4
REMARK VINA RESULT:    -8.312      2.788      4.527
REMARK INTER + INTRA:         -11.975
REMARK INTER:                 -10.400
REMARK INTRA:                  -1.575
REMARK CONF_INDEPENDENT:        2.088
REMARK UNBOUND:                -1.575
REMARK  7 active torsions:
REMARK  status: ('A' for Active; 'I' for Inactive)
REMARK    1  A    between atoms: C_2  and  C_3 
REMARK       I    between atoms: C_2  and  N_20 
REMARK    2  A    between atoms: C_3  and  N_4 
REMARK    3  A    between atoms: N_4  and  C_5 
REMARK    4  A    between atoms: C_8  and  C_9 
REMARK       I    between atoms: C_9  and  N_11 
REMARK    5  A    between atoms: N_11  and  C_12 
REMARK    6  A    between atoms: C_12  and  C_13 
REMARK    7  A    between atoms: N_20  and  C_21 
ROOT
ATOM      1  C   UNL d   1      26.638 -17.090  -0.040  0.00  0.00     0.028 A 
ATOM      2  C   UNL d   1      25.906 -17.927   0.808  0.00  0.00     0.030 A 
ATOM      3  C   UNL d   1      24.686 -18.496   0.377  0.00  0.00     0.019 A 
ATOM      4  C   UNL d   1      24.132 -18.163  -0.872  0.00  0.00     0.032 A 
ATOM      5  C   UNL d   1      24.850 -17.305  -1.700  0.00  0.00     0.019 A 
ATOM      6  C   UNL d   1      26.067 -16.771  -1.275  0.00  0.00     0.030 A 
ENDROOT
BRANCH   1   7
ATOM      7  N   UNL d   1      27.861 -16.535   0.308  0.00  0.00    -0.381 N 
ATOM      8  H   UNL d   1      28.363 -16.822   1.142  0.00  0.00     0.160 HD
BRANCH   7   9
ATOM      9  C   UNL d   1      28.214 -15.240  -0.275  0.00  0.00     0.223 C 
BRANCH   9  10
ATOM     10  C   UNL d   1      27.139 -14.157  -0.092  0.00  0.00     0.239 C 
ATOM     11  O   UNL d   1      26.837 -13.707   1.018  0.00  0.00    -0.271 OA
ATOM     12  N   UNL d   1      26.586 -13.582  -1.224  0.00  0.00    -0.323 N 
ATOM     13  H   UNL d   1      26.052 -12.740  -1.040  0.00  0.00     0.169 HD
BRANCH  12  14
ATOM     14  C   UNL d   1      26.702 -14.012  -2.562  0.00  0.00     0.073 A 
ATOM     15  C   UNL d   1      27.963 -14.061  -3.166  0.00  0.00     0.033 A 
ATOM     16  C   UNL d   1      28.083 -14.458  -4.507  0.00  0.00     0.002 A 
ATOM     17  C   UNL d   1      26.961 -14.869  -5.229  0.00  0.00     0.003 A 
ATOM     18  C   UNL d   1      25.706 -14.803  -4.642  0.00  0.00     0.044 A 
ATOM     19  C   UNL d   1      25.587 -14.325  -3.347  0.00  0.00     0.143 A 
ATOM     20  F   UNL d   1      24.349 -14.050  -2.916  0.00  0.00    -0.204 F 
ENDBRANCH  12  14
ENDBRANCH   9  10
ENDBRANCH   7   9
ENDBRANCH   1   7
BRANCH   4  21
ATOM     21  C   UNL d   1      22.778 -18.677  -1.260  0.00  0.00     0.251 C 
ATOM     22  O   UNL d   1      22.647 -19.326  -2.303  0.00  0.00    -0.268 OA
ATOM     23  N   UNL d   1      21.712 -18.437  -0.411  0.00  0.00    -0.351 N 
ATOM     24  H   UNL d   1      21.799 -17.912   0.446  0.00  0.00     0.163 HD
BRANCH  23  25
ATOM     25  C   UNL d   1      20.394 -18.938  -0.725  0.00  0.00     0.187 C 
BRANCH  25  26
ATOM     26  C   UNL d   1      19.780 -19.726   0.383  0.00  0.00     0.070 A 
ATOM     27  C   UNL d   1      18.748 -20.644   0.366  0.00  0.00     0.036 A 
ATOM     28  C   UNL d   1      18.523 -21.036   1.705  0.00  0.00     0.027 A 
ATOM     29  C   UNL d   1      19.437 -20.341   2.461  0.00  0.00     0.142 A 
ATOM     30  O   UNL d   1      20.211 -19.544   1.670  0.00  0.00    -0.325 OA
ENDBRANCH  25  26
ENDBRANCH  23  25
ENDBRANCH   4  21
TORSDOF 7
ENDMDL
MODEL 5
REMARK VINA RESULT:    -8.248      2.512      4.300
REMARK INTER + INTRA:         -12.255
REMARK INTER:                 -10.336
REMARK INTRA:                  -1.919
REMARK CONF_INDEPENDENT:        2.088
REMARK UNBOUND:                -1.919
REMARK  7 active torsions:
REMARK  status: ('A' for Active; 'I' for Inactive)
REMARK    1  A    between atoms: C_2  and  C_3 
REMARK       I    between atoms: C_2  and  N_20 
REMARK    2  A    between atoms: C_3  and  N_4 
REMARK    3  A    between atoms: N_4  and  C_5 
REMARK    4  A    between atoms: C_8  and  C_9 
REMARK       I    between atoms: C_9  and  N_11 
REMARK    5  A    between atoms: N_11  and  C_12 
REMARK    6  A    between atoms: C_12  and  C_13 
REMARK    7  A    between atoms: N_20  and  C_21 
ROOT
ATOM      1  C   UNL d   1      26.645 -16.586   0.183  0.00  0.00     0.028 A 
ATOM      2  C   UNL d   1      25.607 -15.824  -0.363  0.00  0.00     0.030 A 
ATOM      3  C   UNL d   1      24.376 -16.427  -0.703  0.00  0.00     0.019 A 
ATOM      4  C   UNL d   1      24.195 -17.818  -0.590  0.00  0.00     0.032 A 
ATOM      5  C   UNL d   1      25.242 -18.575  -0.075  0.00  0.00     0.019 A 
ATOM      6  C   UNL d   1      26.444 -17.964   0.284  0.00  0.00     0.030 A 
ENDROOT
BRANCH   1   7
ATOM      7  N   UNL d   1      27.862 -16.044   0.575  0.00  0.00    -0.381 N 
ATOM      8  H   UNL d   1      28.379 -16.406   1.369  0.00  0.00     0.160 HD
BRANCH   7   9
ATOM      9  C   UNL d   1      28.183 -14.689   0.127  0.00  0.00     0.223 C 
BRANCH   9  10
ATOM     10  C   UNL d   1      29.288 -14.629  -0.939  0.00  0.00     0.239 C 
ATOM     11  O   UNL d   1      30.488 -14.698  -0.651  0.00  0.00    -0.271 OA
ATOM     12  N   UNL d   1      28.916 -14.625  -2.273  0.00  0.00    -0.323 N 
ATOM     13  H   UNL d   1      29.682 -14.801  -2.915  0.00  0.00     0.169 HD
BRANCH  12  14
ATOM     14  C   UNL d   1      27.628 -14.436  -2.815  0.00  0.00     0.073 A 
ATOM     15  C   UNL d   1      27.156 -15.311  -3.800  0.00  0.00     0.033 A 
ATOM     16  C   UNL d   1      25.888 -15.109  -4.367  0.00  0.00     0.002 A 
ATOM     17  C   UNL d   1      25.061 -14.081  -3.910  0.00  0.00     0.003 A 
ATOM     18  C   UNL d   1      25.532 -13.198  -2.949  0.00  0.00     0.044 A 
ATOM     19  C   UNL d   1      26.820 -13.351  -2.460  0.00  0.00     0.143 A 
ATOM     20  F   UNL d   1      27.311 -12.344  -1.727  0.00  0.00    -0.204 F 
ENDBRANCH  12  14
ENDBRANCH   9  10
ENDBRANCH   7   9
ENDBRANCH   1   7
BRANCH   4  21
ATOM     21  C   UNL d   1      22.927 -18.457  -1.072  0.00  0.00     0.251 C 
ATOM     22  O   UNL d   1      22.930 -19.102  -2.125  0.00  0.00    -0.268 OA
ATOM     23  N   UNL d   1      21.788 -18.333  -0.295  0.00  0.00    -0.351 N 
ATOM     24  H   UNL d   1      21.766 -17.813   0.569  0.00  0.00     0.163 HD
BRANCH  23  25
ATOM     25  C   UNL d   1      20.550 -18.956  -0.702  0.00  0.00     0.187 C 
BRANCH  25  26
ATOM     26  C   UNL d   1      19.863 -19.686   0.404  0.00  0.00     0.070 A 
ATOM     27  C   UNL d   1      18.790 -20.555   0.375  0.00  0.00     0.036 A 
ATOM     28  C   UNL d   1      18.503 -20.902   1.714  0.00  0.00     0.027 A 
ATOM     29  C   UNL d   1      19.425 -20.231   2.484  0.00  0.00     0.142 A 
ATOM     30  O   UNL d   1      20.261 -19.492   1.701  0.00  0.00    -0.325 OA
ENDBRANCH  25  26
ENDBRANCH  23  25
ENDBRANCH   4  21
TORSDOF 7
ENDMDL
MODEL 6
REMARK VINA RESULT:    -7.814      3.868      5.430
REMARK INTER + INTRA:         -11.223
REMARK INTER:                  -9.902
REMARK INTRA:                  -1.322
REMARK CONF_INDEPENDENT:        2.088
REMARK UNBOUND:                -1.322
REMARK  7 active torsions:
REMARK  status: ('A' for Active; 'I' for Inactive)
REMARK    1  A    between atoms: C_2  and  C_3 
REMARK       I    between atoms: C_2  and  N_20 
REMARK    2  A    between atoms: C_3  and  N_4 
REMARK    3  A    between atoms: N_4  and  C_5 
REMARK    4  A    between atoms: C_8  and  C_9 
REMARK       I    between atoms: C_9  and  N_11 
REMARK    5  A    between atoms: N_11  and  C_12 
REMARK    6  A    between atoms: C_12  and  C_13 
REMARK    7  A    between atoms: N_20  and  C_21 
ROOT
ATOM      1  C   UNL d   1      26.737 -17.239  -0.256  0.00  0.00     0.028 A 
ATOM      2  C   UNL d   1      25.969 -16.284  -0.930  0.00  0.00     0.030 A 
ATOM      3  C   UNL d   1      24.567 -16.430  -1.029  0.00  0.00     0.019 A 
ATOM      4  C   UNL d   1      23.922 -17.579  -0.537  0.00  0.00     0.032 A 
ATOM      5  C   UNL d   1      24.695 -18.541   0.106  0.00  0.00     0.019 A 
ATOM      6  C   UNL d   1      26.075 -18.373   0.222  0.00  0.00     0.030 A 
ENDROOT
BRANCH   1   7
ATOM      7  N   UNL d   1      28.111 -17.131  -0.089  0.00  0.00    -0.381 N 
ATOM      8  H   UNL d   1      28.522 -16.786   0.771  0.00  0.00     0.160 HD
BRANCH   7   9
ATOM      9  C   UNL d   1      28.944 -17.095  -1.291  0.00  0.00     0.223 C 
BRANCH   9  10
ATOM     10  C   UNL d   1      30.449 -16.968  -1.005  0.00  0.00     0.239 C 
ATOM     11  O   UNL d   1      30.883 -16.546   0.071  0.00  0.00    -0.271 OA
ATOM     12  N   UNL d   1      31.341 -17.464  -1.942  0.00  0.00    -0.323 N 
ATOM     13  H   UNL d   1      32.293 -17.544  -1.602  0.00  0.00     0.169 HD
BRANCH  12  14
ATOM     14  C   UNL d   1      31.071 -17.878  -3.263  0.00  0.00     0.073 A 
ATOM     15  C   UNL d   1      31.156 -19.235  -3.593  0.00  0.00     0.033 A 
ATOM     16  C   UNL d   1      30.921 -19.652  -4.913  0.00  0.00     0.002 A 
ATOM     17  C   UNL d   1      30.537 -18.731  -5.890  0.00  0.00     0.003 A 
ATOM     18  C   UNL d   1      30.472 -17.382  -5.574  0.00  0.00     0.044 A 
ATOM     19  C   UNL d   1      30.794 -16.970  -4.289  0.00  0.00     0.143 A 
ATOM     20  F   UNL d   1      30.954 -15.654  -4.100  0.00  0.00    -0.204 F 
ENDBRANCH  12  14
ENDBRANCH   9  10
ENDBRANCH   7   9
ENDBRANCH   1   7
BRANCH   4  21
ATOM     21  C   UNL d   1      22.452 -17.775  -0.761  0.00  0.00     0.251 C 
ATOM     22  O   UNL d   1      21.719 -16.791  -0.897  0.00  0.00    -0.268 OA
ATOM     23  N   UNL d   1      21.963 -19.068  -0.844  0.00  0.00    -0.351 N 
ATOM     24  H   UNL d   1      22.546 -19.884  -0.738  0.00  0.00     0.163 HD
BRANCH  23  25
ATOM     25  C   UNL d   1      20.560 -19.308  -1.089  0.00  0.00     0.187 C 
BRANCH  25  26
ATOM     26  C   UNL d   1      19.832 -19.833   0.103  0.00  0.00     0.070 A 
ATOM     27  C   UNL d   1      20.100 -19.693   1.451  0.00  0.00     0.036 A 
ATOM     28  C   UNL d   1      19.131 -20.452   2.145  0.00  0.00     0.027 A 
ATOM     29  C   UNL d   1      18.321 -21.004   1.180  0.00  0.00     0.142 A 
ATOM     30  O   UNL d   1      18.733 -20.633  -0.066  0.00  0.00    -0.325 OA
ENDBRANCH  25  26
ENDBRANCH  23  25
ENDBRANCH   4  21
TORSDOF 7
ENDMDL
MODEL 7
REMARK VINA RESULT:    -7.504      2.075      2.881
REMARK INTER + INTRA:         -11.218
REMARK INTER:                  -9.592
REMARK INTRA:                  -1.626
REMARK CONF_INDEPENDENT:        2.088
REMARK UNBOUND:                -1.626
REMARK  7 active torsions:
REMARK  status: ('A' for Active; 'I' for Inactive)
REMARK    1  A    between atoms: C_2  and  C_3 
REMARK       I    between atoms: C_2  and  N_20 
REMARK    2  A    between atoms: C_3  and  N_4 
REMARK    3  A    between atoms: N_4  and  C_5 
REMARK    4  A    between atoms: C_8  and  C_9 
REMARK       I    between atoms: C_9  and  N_11 
REMARK    5  A    between atoms: N_11  and  C_12 
REMARK    6  A    between atoms: C_12  and  C_13 
REMARK    7  A    between atoms: N_20  and  C_21 
ROOT
ATOM      1  C   UNL d   1      27.022 -17.477  -0.342  0.00  0.00     0.028 A 
ATOM      2  C   UNL d   1      26.368 -16.745  -1.338  0.00  0.00     0.030 A 
ATOM      3  C   UNL d   1      24.957 -16.692  -1.381  0.00  0.00     0.019 A 
ATOM      4  C   UNL d   1      24.176 -17.446  -0.485  0.00  0.00     0.032 A 
ATOM      5  C   UNL d   1      24.832 -18.196   0.485  0.00  0.00     0.019 A 
ATOM      6  C   UNL d   1      26.226 -18.219   0.535  0.00  0.00     0.030 A 
ENDROOT
BRANCH   1   7
ATOM      7  N   UNL d   1      28.403 -17.534  -0.221  0.00  0.00    -0.381 N 
ATOM      8  H   UNL d   1      28.856 -17.856   0.628  0.00  0.00     0.160 HD
BRANCH   7   9
ATOM      9  C   UNL d   1      29.203 -16.725  -1.141  0.00  0.00     0.223 C 
BRANCH   9  10
ATOM     10  C   UNL d   1      30.376 -15.992  -0.471  0.00  0.00     0.239 C 
ATOM     11  O   UNL d   1      31.550 -16.347  -0.624  0.00  0.00    -0.271 OA
ATOM     12  N   UNL d   1      30.112 -14.821   0.220  0.00  0.00    -0.323 N 
ATOM     13  H   UNL d   1      30.940 -14.282   0.448  0.00  0.00     0.169 HD
BRANCH  12  14
ATOM     14  C   UNL d   1      28.858 -14.304   0.605  0.00  0.00     0.073 A 
ATOM     15  C   UNL d   1      27.975 -13.832  -0.373  0.00  0.00     0.033 A 
ATOM     16  C   UNL d   1      26.738 -13.287   0.004  0.00  0.00     0.002 A 
ATOM     17  C   UNL d   1      26.348 -13.270   1.346  0.00  0.00     0.003 A 
ATOM     18  C   UNL d   1      27.228 -13.718   2.320  0.00  0.00     0.044 A 
ATOM     19  C   UNL d   1      28.483 -14.171   1.946  0.00  0.00     0.143 A 
ATOM     20  F   UNL d   1      29.375 -14.358   2.926  0.00  0.00    -0.204 F 
ENDBRANCH  12  14
ENDBRANCH   9  10
ENDBRANCH   7   9
ENDBRANCH   1   7
BRANCH   4  21
ATOM     21  C   UNL d   1      22.683 -17.476  -0.625  0.00  0.00     0.251 C 
ATOM     22  O   UNL d   1      22.051 -16.415  -0.651  0.00  0.00    -0.268 OA
ATOM     23  N   UNL d   1      22.056 -18.703  -0.756  0.00  0.00    -0.351 N 
ATOM     24  H   UNL d   1      22.556 -19.580  -0.740  0.00  0.00     0.163 HD
BRANCH  23  25
ATOM     25  C   UNL d   1      20.624 -18.782  -0.924  0.00  0.00     0.187 C 
BRANCH  25  26
ATOM     26  C   UNL d   1      19.944 -19.555   0.156  0.00  0.00     0.070 A 
ATOM     27  C   UNL d   1      19.874 -19.326   1.516  0.00  0.00     0.036 A 
ATOM     28  C   UNL d   1      19.162 -20.407   2.081  0.00  0.00     0.027 A 
ATOM     29  C   UNL d   1      18.830 -21.231   1.031  0.00  0.00     0.142 A 
ATOM     30  O   UNL d   1      19.295 -20.724  -0.146  0.00  0.00    -0.325 OA
ENDBRANCH  25  26
ENDBRANCH  23  25
ENDBRANCH   4  21
TORSDOF 7
ENDMDL
MODEL 8
REMARK VINA RESULT:    -7.396      5.978      7.616
REMARK INTER + INTRA:         -10.863
REMARK INTER:                  -9.484
REMARK INTRA:                  -1.379
REMARK CONF_INDEPENDENT:        2.088
REMARK UNBOUND:                -1.379
REMARK  7 active torsions:
REMARK  status: ('A' for Active; 'I' for Inactive)
REMARK    1  A    between atoms: C_2  and  C_3 
REMARK       I    between atoms: C_2  and  N_20 
REMARK    2  A    between atoms: C_3  and  N_4 
REMARK    3  A    between atoms: N_4  and  C_5 
REMARK    4  A    between atoms: C_8  and  C_9 
REMARK       I    between atoms: C_9  and  N_11 
REMARK    5  A    between atoms: N_11  and  C_12 
REMARK    6  A    between atoms: C_12  and  C_13 
REMARK    7  A    between atoms: N_20  and  C_21 
ROOT
ATOM      1  C   UNL d   1      26.097 -14.171  -3.839  0.00  0.00     0.028 A 
ATOM      2  C   UNL d   1      24.775 -14.260  -3.395  0.00  0.00     0.030 A 
ATOM      3  C   UNL d   1      24.415 -15.190  -2.393  0.00  0.00     0.019 A 
ATOM      4  C   UNL d   1      25.354 -16.108  -1.886  0.00  0.00     0.032 A 
ATOM      5  C   UNL d   1      26.662 -16.034  -2.355  0.00  0.00     0.019 A 
ATOM      6  C   UNL d   1      27.011 -15.093  -3.324  0.00  0.00     0.030 A 
ENDROOT
BRANCH   1   7
ATOM      7  N   UNL d   1      26.520 -13.251  -4.789  0.00  0.00    -0.381 N 
ATOM      8  H   UNL d   1      25.866 -12.756  -5.386  0.00  0.00     0.160 HD
BRANCH   7   9
ATOM      9  C   UNL d   1      27.912 -13.318  -5.232  0.00  0.00     0.223 C 
BRANCH   9  10
ATOM     10  C   UNL d   1      28.163 -14.337  -6.355  0.00  0.00     0.239 C 
ATOM     11  O   UNL d   1      27.884 -15.534  -6.235  0.00  0.00    -0.271 OA
ATOM     12  N   UNL d   1      28.598 -13.868  -7.584  0.00  0.00    -0.323 N 
ATOM     13  H   UNL d   1      28.536 -14.552  -8.331  0.00  0.00     0.169 HD
BRANCH  12  14
ATOM     14  C   UNL d   1      29.076 -12.580  -7.902  0.00  0.00     0.073 A 
ATOM     15  C   UNL d   1      30.366 -12.205  -7.512  0.00  0.00     0.033 A 
ATOM     16  C   UNL d   1      30.836 -10.914  -7.797  0.00  0.00     0.002 A 
ATOM     17  C   UNL d   1      30.053 -10.017  -8.527  0.00  0.00     0.003 A 
ATOM     18  C   UNL d   1      28.765 -10.376  -8.898  0.00  0.00     0.044 A 
ATOM     19  C   UNL d   1      28.276 -11.621  -8.534  0.00  0.00     0.143 A 
ATOM     20  F   UNL d   1      26.963 -11.826  -8.697  0.00  0.00    -0.204 F 
ENDBRANCH  12  14
ENDBRANCH   9  10
ENDBRANCH   7   9
ENDBRANCH   1   7
BRANCH   4  21
ATOM     21  C   UNL d   1      24.927 -17.168  -0.916  0.00  0.00     0.251 C 
ATOM     22  O   UNL d   1      25.776 -17.748  -0.231  0.00  0.00    -0.268 OA
ATOM     23  N   UNL d   1      23.576 -17.444  -0.791  0.00  0.00    -0.351 N 
ATOM     24  H   UNL d   1      22.867 -16.980  -1.339  0.00  0.00     0.163 HD
BRANCH  23  25
ATOM     25  C   UNL d   1      23.112 -18.435   0.152  0.00  0.00     0.187 C 
BRANCH  25  26
ATOM     26  C   UNL d   1      21.702 -18.863  -0.084  0.00  0.00     0.070 A 
ATOM     27  C   UNL d   1      20.761 -19.371   0.790  0.00  0.00     0.036 A 
ATOM     28  C   UNL d   1      19.611 -19.675   0.027  0.00  0.00     0.027 A 
ATOM     29  C   UNL d   1      19.914 -19.326  -1.268  0.00  0.00     0.142 A 
ATOM     30  O   UNL d   1      21.180 -18.827  -1.350  0.00  0.00    -0.325 OA
ENDBRANCH  25  26
ENDBRANCH  23  25
ENDBRANCH   4  21
TORSDOF 7
ENDMDL
MODEL 9
REMARK VINA RESULT:    -7.121      5.034      6.741
REMARK INTER + INTRA:         -10.800
REMARK INTER:                  -9.209
REMARK INTRA:                  -1.591
REMARK CONF_INDEPENDENT:        2.088
REMARK UNBOUND:                -1.591
REMARK  7 active torsions:
REMARK  status: ('A' for Active; 'I' for Inactive)
REMARK    1  A    between atoms: C_2  and  C_3 
REMARK       I    between atoms: C_2  and  N_20 
REMARK    2  A    between atoms: C_3  and  N_4 
REMARK    3  A    between atoms: N_4  and  C_5 
REMARK    4  A    between atoms: C_8  and  C_9 
REMARK       I    between atoms: C_9  and  N_11 
REMARK    5  A    between atoms: N_11  and  C_12 
REMARK    6  A    between atoms: C_12  and  C_13 
REMARK    7  A    between atoms: N_20  and  C_21 
ROOT
ATOM      1  C   UNL d   1      26.381 -14.310  -2.817  0.00  0.00     0.028 A 
ATOM      2  C   UNL d   1      27.221 -15.225  -2.175  0.00  0.00     0.030 A 
ATOM      3  C   UNL d   1      26.683 -16.351  -1.512  0.00  0.00     0.019 A 
ATOM      4  C   UNL d   1      25.292 -16.531  -1.401  0.00  0.00     0.032 A 
ATOM      5  C   UNL d   1      24.460 -15.600  -2.017  0.00  0.00     0.019 A 
ATOM      6  C   UNL d   1      25.003 -14.508  -2.692  0.00  0.00     0.030 A 
ENDROOT
BRANCH   1   7
ATOM      7  N   UNL d   1      26.850 -13.209  -3.520  0.00  0.00    -0.381 N 
ATOM      8  H   UNL d   1      26.975 -12.304  -3.079  0.00  0.00     0.160 HD
BRANCH   7   9
ATOM      9  C   UNL d   1      26.746 -13.235  -4.979  0.00  0.00     0.223 C 
BRANCH   9  10
ATOM     10  C   UNL d   1      27.045 -14.608  -5.603  0.00  0.00     0.239 C 
ATOM     11  O   UNL d   1      26.334 -15.596  -5.396  0.00  0.00    -0.271 OA
ATOM     12  N   UNL d   1      28.073 -14.701  -6.527  0.00  0.00    -0.323 N 
ATOM     13  H   UNL d   1      28.077 -15.568  -7.052  0.00  0.00     0.169 HD
BRANCH  12  14
ATOM     14  C   UNL d   1      29.064 -13.741  -6.823  0.00  0.00     0.073 A 
ATOM     15  C   UNL d   1      28.738 -12.631  -7.610  0.00  0.00     0.033 A 
ATOM     16  C   UNL d   1      29.727 -11.689  -7.936  0.00  0.00     0.002 A 
ATOM     17  C   UNL d   1      31.021 -11.813  -7.427  0.00  0.00     0.003 A 
ATOM     18  C   UNL d   1      31.354 -12.922  -6.663  0.00  0.00     0.044 A 
ATOM     19  C   UNL d   1      30.395 -13.893  -6.422  0.00  0.00     0.143 A 
ATOM     20  F   UNL d   1      30.823 -15.048  -5.897  0.00  0.00    -0.204 F 
ENDBRANCH  12  14
ENDBRANCH   9  10
ENDBRANCH   7   9
ENDBRANCH   1   7
BRANCH   4  21
ATOM     21  C   UNL d   1      24.739 -17.662  -0.588  0.00  0.00     0.251 C 
ATOM     22  O   UNL d   1      25.385 -18.099   0.370  0.00  0.00    -0.268 OA
ATOM     23  N   UNL d   1      23.491 -18.165  -0.918  0.00  0.00    -0.351 N 
ATOM     24  H   UNL d   1      22.948 -17.819  -1.694  0.00  0.00     0.163 HD
BRANCH  23  25
ATOM     25  C   UNL d   1      22.902 -19.234  -0.146  0.00  0.00     0.187 C 
BRANCH  25  26
ATOM     26  C   UNL d   1      21.411 -19.250  -0.198  0.00  0.00     0.070 A 
ATOM     27  C   UNL d   1      20.501 -20.082   0.423  0.00  0.00     0.036 A 
ATOM     28  C   UNL d   1      19.217 -19.700  -0.028  0.00  0.00     0.027 A 
ATOM     29  C   UNL d   1      19.418 -18.650  -0.893  0.00  0.00     0.142 A 
ATOM     30  O   UNL d   1      20.746 -18.363  -1.003  0.00  0.00    -0.325 OA
ENDBRANCH  25  26
ENDBRANCH  23  25
ENDBRANCH   4  21
TORSDOF 7
ENDMDL
