MODEL 1
REMARK VINA RESULT:    -8.935      0.000      0.000
REMARK INTER + INTRA:         -11.110
REMARK INTER:                 -10.128
REMARK INTRA:                  -0.982
REMARK CONF_INDEPENDENT:        1.193
REMARK UNBOUND:                -0.982
REMARK  4 active torsions:
REMARK  status: ('A' for Active; 'I' for Inactive)
REMARK       I    between atoms: C_2  and  N_3 
REMARK    1  A    between atoms: C_2  and  C_15 
REMARK    2  A    between atoms: N_3  and  N_4 
REMARK       I    between atoms: N_4  and  C_5 
REMARK    3  A    between atoms: C_5  and  C_7 
REMARK    4  A    between atoms: C_19  and  O_20 
ROOT
ATOM      1  O   UNL d   1      20.444 -18.003  -1.270  0.00  0.00    -0.266 OA
ATOM      2  C   UNL d   1      20.931 -18.710  -0.385  0.00  0.00     0.270 C 
ATOM      3  N   UNL d   1      22.294 -18.757  -0.131  0.00  0.00    -0.263 N 
ATOM      4  H   UNL d   1      22.725 -19.426   0.507  0.00  0.00     0.190 HD
ENDROOT
BRANCH   3   5
ATOM      5  N   UNL d   1      23.190 -17.997  -0.938  0.00  0.00    -0.263 N 
ATOM      6  C   UNL d   1      24.480 -17.782  -0.470  0.00  0.00     0.271 C 
ATOM      7  O   UNL d   1      24.844 -18.200   0.629  0.00  0.00    -0.266 OA
ATOM      8  H   UNL d   1      22.841 -17.713  -1.853  0.00  0.00     0.190 HD
BRANCH   6   9
ATOM      9  C   UNL d   1      25.426 -16.989  -1.324  0.00  0.00     0.055 A 
ATOM     10  C   UNL d   1      24.933 -16.215  -2.391  0.00  0.00     0.020 A 
ATOM     11  C   UNL d   1      25.792 -15.373  -3.121  0.00  0.00     0.025 A 
ATOM     12  C   UNL d   1      27.145 -15.299  -2.799  0.00  0.00     0.035 A 
ATOM     13 CL   UNL d   1      28.189 -14.258  -3.689  0.00  0.00    -0.084 Cl
ATOM     14  C   UNL d   1      27.653 -16.064  -1.755  0.00  0.00     0.048 A 
ATOM     15  C   UNL d   1      26.800 -16.903  -1.017  0.00  0.00     0.051 A 
ATOM     16 CL   UNL d   1      27.548 -17.840   0.230  0.00  0.00    -0.083 Cl
ENDBRANCH   6   9
ENDBRANCH   3   5
BRANCH   2  17
ATOM     17  C   UNL d   1      20.046 -19.593   0.442  0.00  0.00     0.036 A 
ATOM     18  C   UNL d   1      20.237 -19.646   1.833  0.00  0.00     0.017 A 
ATOM     19  C   UNL d   1      19.415 -20.450   2.638  0.00  0.00     0.004 A 
ATOM     20  C   UNL d   1      18.408 -21.223   2.060  0.00  0.00     0.036 A 
ATOM     21  C   UNL d   1      18.244 -21.193   0.678  0.00  0.00     0.066 A 
ATOM     22  C   UNL d   1      19.056 -20.395  -0.135  0.00  0.00     0.053 A 
BRANCH  21  23
ATOM     23  O   UNL d   1      17.280 -21.939   0.060  0.00  0.00    -0.361 OA
ATOM     24  H   UNL d   1      17.425 -22.881   0.252  0.00  0.00     0.217 HD
ENDBRANCH  21  23
ENDBRANCH   2  17
TORSDOF 4
ENDMDL
MODEL 2
REMARK VINA RESULT:    -8.623      1.243      1.658
REMARK INTER + INTRA:         -10.806
REMARK INTER:                  -9.816
REMARK INTRA:                  -0.990
REMARK CONF_INDEPENDENT:        1.193
REMARK UNBOUND:                -0.990
REMARK  4 active torsions:
REMARK  status: ('A' for Active; 'I' for Inactive)
REMARK       I    between atoms: C_2  and  N_3 
REMARK    1  A    between atoms: C_2  and  C_15 
REMARK    2  A    between atoms: N_3  and  N_4 
REMARK       I    between atoms: N_4  and  C_5 
REMARK    3  A    between atoms: C_5  and  C_7 
REMARK    4  A    between atoms: C_19  and  O_20 
ROOT
ATOM      1  O   UNL d   1      21.009 -17.823  -1.270  0.00  0.00    -0.266 OA
ATOM      2  C   UNL d   1      21.323 -18.632  -0.395  0.00  0.00     0.270 C 
ATOM      3  N   UNL d   1      22.640 -18.859  -0.024  0.00  0.00    -0.263 N 
ATOM      4  H   UNL d   1      22.928 -19.609   0.605  0.00  0.00     0.190 HD
ENDROOT
BRANCH   3   5
ATOM      5  N   UNL d   1      23.692 -18.168  -0.694  0.00  0.00    -0.263 N 
ATOM      6  C   UNL d   1      24.878 -17.942  -0.006  0.00  0.00     0.271 C 
ATOM      7  O   UNL d   1      25.018 -18.291   1.166  0.00  0.00    -0.266 OA
ATOM      8  H   UNL d   1      23.529 -17.943  -1.674  0.00  0.00     0.190 HD
BRANCH   6   9
ATOM      9  C   UNL d   1      25.989 -17.225  -0.715  0.00  0.00     0.055 A 
ATOM     10  C   UNL d   1      27.324 -17.623  -0.520  0.00  0.00     0.020 A 
ATOM     11  C   UNL d   1      28.362 -17.041  -1.270  0.00  0.00     0.025 A 
ATOM     12  C   UNL d   1      28.080 -16.058  -2.214  0.00  0.00     0.035 A 
ATOM     13 CL   UNL d   1      29.354 -15.357  -3.138  0.00  0.00    -0.084 Cl
ATOM     14  C   UNL d   1      26.769 -15.642  -2.415  0.00  0.00     0.048 A 
ATOM     15  C   UNL d   1      25.726 -16.224  -1.674  0.00  0.00     0.051 A 
ATOM     16 CL   UNL d   1      24.140 -15.601  -1.976  0.00  0.00    -0.083 Cl
ENDBRANCH   6   9
ENDBRANCH   3   5
BRANCH   2  17
ATOM     17  C   UNL d   1      20.266 -19.445   0.289  0.00  0.00     0.036 A 
ATOM     18  C   UNL d   1      20.322 -19.612   1.683  0.00  0.00     0.017 A 
ATOM     19  C   UNL d   1      19.339 -20.354   2.356  0.00  0.00     0.004 A 
ATOM     20  C   UNL d   1      18.301 -20.953   1.640  0.00  0.00     0.036 A 
ATOM     21  C   UNL d   1      18.268 -20.814   0.256  0.00  0.00     0.066 A 
ATOM     22  C   UNL d   1      19.241 -20.075  -0.425  0.00  0.00     0.053 A 
BRANCH  21  23
ATOM     23  O   UNL d   1      17.280 -21.389  -0.492  0.00  0.00    -0.361 OA
ATOM     24  H   UNL d   1      17.085 -22.275  -0.146  0.00  0.00     0.217 HD
ENDBRANCH  21  23
ENDBRANCH   2  17
TORSDOF 4
ENDMDL
MODEL 3
REMARK VINA RESULT:    -6.899      4.492      9.647
REMARK INTER + INTRA:          -9.440
REMARK INTER:                  -8.092
REMARK INTRA:                  -1.348
REMARK CONF_INDEPENDENT:        1.193
REMARK UNBOUND:                -1.348
REMARK  4 active torsions:
REMARK  status: ('A' for Active; 'I' for Inactive)
REMARK       I    between atoms: C_2  and  N_3 
REMARK    1  A    between atoms: C_2  and  C_15 
REMARK    2  A    between atoms: N_3  and  N_4 
REMARK       I    between atoms: N_4  and  C_5 
REMARK    3  A    between atoms: C_5  and  C_7 
REMARK    4  A    between atoms: C_19  and  O_20 
ROOT
ATOM      1  O   UNL d   1      26.516 -15.582  -5.599  0.00  0.00    -0.266 OA
ATOM      2  C   UNL d   1      27.209 -14.961  -4.791  0.00  0.00     0.270 C 
ATOM      3  N   UNL d   1      27.006 -15.036  -3.420  0.00  0.00    -0.263 N 
ATOM      4  H   UNL d   1      27.483 -14.436  -2.746  0.00  0.00     0.190 HD
ENDROOT
BRANCH   3   5
ATOM      5  N   UNL d   1      25.936 -15.825  -2.906  0.00  0.00    -0.263 N 
ATOM      6  C   UNL d   1      25.710 -15.819  -1.535  0.00  0.00     0.271 C 
ATOM      7  O   UNL d   1      26.431 -15.182  -0.767  0.00  0.00    -0.266 OA
ATOM      8  H   UNL d   1      25.353 -16.296  -3.596  0.00  0.00     0.190 HD
BRANCH   6   9
ATOM      9  C   UNL d   1      24.577 -16.642  -0.995  0.00  0.00     0.055 A 
ATOM     10  C   UNL d   1      23.246 -16.276  -1.270  0.00  0.00     0.020 A 
ATOM     11  C   UNL d   1      22.179 -17.104  -0.875  0.00  0.00     0.025 A 
ATOM     12  C   UNL d   1      22.429 -18.297  -0.201  0.00  0.00     0.035 A 
ATOM     13 CL   UNL d   1      21.120 -19.312   0.270  0.00  0.00    -0.084 Cl
ATOM     14  C   UNL d   1      23.736 -18.671   0.089  0.00  0.00     0.048 A 
ATOM     15  C   UNL d   1      24.807 -17.852  -0.308  0.00  0.00     0.051 A 
ATOM     16 CL   UNL d   1      26.387 -18.394   0.142  0.00  0.00    -0.083 Cl
ENDBRANCH   6   9
ENDBRANCH   3   5
BRANCH   2  17
ATOM     17  C   UNL d   1      28.297 -14.052  -5.276  0.00  0.00     0.036 A 
ATOM     18  C   UNL d   1      29.061 -13.334  -4.340  0.00  0.00     0.017 A 
ATOM     19  C   UNL d   1      30.098 -12.488  -4.761  0.00  0.00     0.004 A 
ATOM     20  C   UNL d   1      30.370 -12.335  -6.121  0.00  0.00     0.036 A 
ATOM     21  C   UNL d   1      29.590 -13.022  -7.046  0.00  0.00     0.066 A 
ATOM     22  C   UNL d   1      28.554 -13.870  -6.639  0.00  0.00     0.053 A 
BRANCH  21  23
ATOM     23  O   UNL d   1      29.808 -12.899  -8.389  0.00  0.00    -0.361 OA
ATOM     24  H   UNL d   1      29.444 -13.674  -8.850  0.00  0.00     0.217 HD
ENDBRANCH  21  23
ENDBRANCH   2  17
TORSDOF 4
ENDMDL
MODEL 4
REMARK VINA RESULT:    -6.586      2.238      2.924
REMARK INTER + INTRA:          -9.080
REMARK INTER:                  -7.779
REMARK INTRA:                  -1.300
REMARK CONF_INDEPENDENT:        1.193
REMARK UNBOUND:                -1.300
REMARK  4 active torsions:
REMARK  status: ('A' for Active; 'I' for Inactive)
REMARK       I    between atoms: C_2  and  N_3 
REMARK    1  A    between atoms: C_2  and  C_15 
REMARK    2  A    between atoms: N_3  and  N_4 
REMARK       I    between atoms: N_4  and  C_5 
REMARK    3  A    between atoms: C_5  and  C_7 
REMARK    4  A    between atoms: C_19  and  O_20 
ROOT
ATOM      1  O   UNL d   1      22.915 -19.398  -2.396  0.00  0.00    -0.266 OA
ATOM      2  C   UNL d   1      22.555 -18.649  -1.486  0.00  0.00     0.270 C 
ATOM      3  N   UNL d   1      23.232 -17.480  -1.168  0.00  0.00    -0.263 N 
ATOM      4  H   UNL d   1      23.026 -16.915  -0.344  0.00  0.00     0.190 HD
ENDROOT
BRANCH   3   5
ATOM      5  N   UNL d   1      24.415 -17.132  -1.884  0.00  0.00    -0.263 N 
ATOM      6  C   UNL d   1      25.339 -16.298  -1.267  0.00  0.00     0.271 C 
ATOM      7  O   UNL d   1      25.138 -15.834  -0.145  0.00  0.00    -0.266 OA
ATOM      8  H   UNL d   1      24.541 -17.581  -2.790  0.00  0.00     0.190 HD
BRANCH   6   9
ATOM      9  C   UNL d   1      26.589 -15.940  -2.016  0.00  0.00     0.055 A 
ATOM     10  C   UNL d   1      27.811 -16.555  -1.685  0.00  0.00     0.020 A 
ATOM     11  C   UNL d   1      28.963 -16.320  -2.457  0.00  0.00     0.025 A 
ATOM     12  C   UNL d   1      28.909 -15.471  -3.559  0.00  0.00     0.035 A 
ATOM     13 CL   UNL d   1      30.320 -15.197  -4.508  0.00  0.00    -0.084 Cl
ATOM     14  C   UNL d   1      27.714 -14.845  -3.897  0.00  0.00     0.048 A 
ATOM     15  C   UNL d   1      26.558 -15.079  -3.133  0.00  0.00     0.051 A 
ATOM     16 CL   UNL d   1      25.139 -14.217  -3.619  0.00  0.00    -0.083 Cl
ENDBRANCH   6   9
ENDBRANCH   3   5
BRANCH   2  17
ATOM     17  C   UNL d   1      21.366 -19.004  -0.647  0.00  0.00     0.036 A 
ATOM     18  C   UNL d   1      20.157 -19.346  -1.277  0.00  0.00     0.017 A 
ATOM     19  C   UNL d   1      19.030 -19.700  -0.520  0.00  0.00     0.004 A 
ATOM     20  C   UNL d   1      19.092 -19.697   0.874  0.00  0.00     0.036 A 
ATOM     21  C   UNL d   1      20.281 -19.325   1.495  0.00  0.00     0.066 A 
ATOM     22  C   UNL d   1      21.412 -18.972   0.751  0.00  0.00     0.053 A 
BRANCH  21  23
ATOM     23  O   UNL d   1      20.392 -19.295   2.856  0.00  0.00    -0.361 OA
ATOM     24  H   UNL d   1      20.315 -18.379   3.169  0.00  0.00     0.217 HD
ENDBRANCH  21  23
ENDBRANCH   2  17
TORSDOF 4
ENDMDL
MODEL 5
REMARK VINA RESULT:    -6.457      6.895      8.913
REMARK INTER + INTRA:          -8.710
REMARK INTER:                  -7.650
REMARK INTRA:                  -1.059
REMARK CONF_INDEPENDENT:        1.193
REMARK UNBOUND:                -1.059
REMARK  4 active torsions:
REMARK  status: ('A' for Active; 'I' for Inactive)
REMARK       I    between atoms: C_2  and  N_3 
REMARK    1  A    between atoms: C_2  and  C_15 
REMARK    2  A    between atoms: N_3  and  N_4 
REMARK       I    between atoms: N_4  and  C_5 
REMARK    3  A    between atoms: C_5  and  C_7 
REMARK    4  A    between atoms: C_19  and  O_20 
ROOT
ATOM      1  O   UNL d   1      27.386 -16.534  -0.212  0.00  0.00    -0.266 OA
ATOM      2  C   UNL d   1      27.319 -15.387  -0.660  0.00  0.00     0.270 C 
ATOM      3  N   UNL d   1      27.571 -14.266   0.116  0.00  0.00    -0.263 N 
ATOM      4  H   UNL d   1      27.399 -13.311  -0.200  0.00  0.00     0.190 HD
ENDROOT
BRANCH   3   5
ATOM      5  N   UNL d   1      27.883 -14.419   1.499  0.00  0.00    -0.263 N 
ATOM      6  C   UNL d   1      27.576 -13.377   2.366  0.00  0.00     0.271 C 
ATOM      7  O   UNL d   1      27.080 -12.327   1.958  0.00  0.00    -0.266 OA
ATOM      8  H   UNL d   1      28.255 -15.325   1.778  0.00  0.00     0.190 HD
BRANCH   6   9
ATOM      9  C   UNL d   1      27.896 -13.542   3.822  0.00  0.00     0.055 A 
ATOM     10  C   UNL d   1      28.130 -14.825   4.352  0.00  0.00     0.020 A 
ATOM     11  C   UNL d   1      28.550 -14.984   5.685  0.00  0.00     0.025 A 
ATOM     12  C   UNL d   1      28.736 -13.870   6.500  0.00  0.00     0.035 A 
ATOM     13 CL   UNL d   1      29.262 -14.070   8.128  0.00  0.00    -0.084 Cl
ATOM     14  C   UNL d   1      28.500 -12.594   5.999  0.00  0.00     0.048 A 
ATOM     15  C   UNL d   1      28.086 -12.428   4.666  0.00  0.00     0.051 A 
ATOM     16 CL   UNL d   1      27.781 -10.801   4.163  0.00  0.00    -0.083 Cl
ENDBRANCH   6   9
ENDBRANCH   3   5
BRANCH   2  17
ATOM     17  C   UNL d   1      26.916 -15.160  -2.085  0.00  0.00     0.036 A 
ATOM     18  C   UNL d   1      27.852 -15.389  -3.108  0.00  0.00     0.017 A 
ATOM     19  C   UNL d   1      27.501 -15.201  -4.454  0.00  0.00     0.004 A 
ATOM     20  C   UNL d   1      26.218 -14.766  -4.791  0.00  0.00     0.036 A 
ATOM     21  C   UNL d   1      25.305 -14.510  -3.772  0.00  0.00     0.066 A 
ATOM     22  C   UNL d   1      25.642 -14.694  -2.427  0.00  0.00     0.053 A 
BRANCH  21  23
ATOM     23  O   UNL d   1      24.040 -14.072  -4.047  0.00  0.00    -0.361 OA
ATOM     24  H   UNL d   1      23.971 -13.849  -4.990  0.00  0.00     0.217 HD
ENDBRANCH  21  23
ENDBRANCH   2  17
TORSDOF 4
ENDMDL
MODEL 6
REMARK VINA RESULT:    -6.451      5.861     10.098
REMARK INTER + INTRA:          -9.025
REMARK INTER:                  -7.644
REMARK INTRA:                  -1.381
REMARK CONF_INDEPENDENT:        1.193
REMARK UNBOUND:                -1.381
REMARK  4 active torsions:
REMARK  status: ('A' for Active; 'I' for Inactive)
REMARK       I    between atoms: C_2  and  N_3 
REMARK    1  A    between atoms: C_2  and  C_15 
REMARK    2  A    between atoms: N_3  and  N_4 
REMARK       I    between atoms: N_4  and  C_5 
REMARK    3  A    between atoms: C_5  and  C_7 
REMARK    4  A    between atoms: C_19  and  O_20 
ROOT
ATOM      1  O   UNL d   1      26.580 -10.167  -2.847  0.00  0.00    -0.266 OA
ATOM      2  C   UNL d   1      25.838 -10.492  -3.776  0.00  0.00     0.270 C 
ATOM      3  N   UNL d   1      25.290 -11.762  -3.886  0.00  0.00    -0.263 N 
ATOM      4  H   UNL d   1      24.780 -12.087  -4.707  0.00  0.00     0.190 HD
ENDROOT
BRANCH   3   5
ATOM      5  N   UNL d   1      25.616 -12.758  -2.918  0.00  0.00    -0.263 N 
ATOM      6  C   UNL d   1      25.243 -14.072  -3.172  0.00  0.00     0.271 C 
ATOM      7  O   UNL d   1      24.615 -14.378  -4.186  0.00  0.00    -0.266 OA
ATOM      8  H   UNL d   1      26.170 -12.447  -2.122  0.00  0.00     0.190 HD
BRANCH   6   9
ATOM      9  C   UNL d   1      25.594 -15.122  -2.159  0.00  0.00     0.055 A 
ATOM     10  C   UNL d   1      24.591 -15.958  -1.633  0.00  0.00     0.020 A 
ATOM     11  C   UNL d   1      24.923 -17.023  -0.777  0.00  0.00     0.025 A 
ATOM     12  C   UNL d   1      26.252 -17.262  -0.435  0.00  0.00     0.035 A 
ATOM     13 CL   UNL d   1      26.654 -18.575   0.604  0.00  0.00    -0.084 Cl
ATOM     14  C   UNL d   1      27.257 -16.441  -0.936  0.00  0.00     0.048 A 
ATOM     15  C   UNL d   1      26.933 -15.378  -1.797  0.00  0.00     0.051 A 
ATOM     16 CL   UNL d   1      28.257 -14.398  -2.325  0.00  0.00    -0.083 Cl
ENDBRANCH   6   9
ENDBRANCH   3   5
BRANCH   2  17
ATOM     17  C   UNL d   1      25.525  -9.512  -4.865  0.00  0.00     0.036 A 
ATOM     18  C   UNL d   1      26.453  -9.321  -5.904  0.00  0.00     0.017 A 
ATOM     19  C   UNL d   1      26.183  -8.423  -6.948  0.00  0.00     0.004 A 
ATOM     20  C   UNL d   1      24.994  -7.693  -6.956  0.00  0.00     0.036 A 
ATOM     21  C   UNL d   1      24.093  -7.861  -5.908  0.00  0.00     0.066 A 
ATOM     22  C   UNL d   1      24.350  -8.754  -4.863  0.00  0.00     0.053 A 
BRANCH  21  23
ATOM     23  O   UNL d   1      22.919  -7.163  -5.863  0.00  0.00    -0.361 OA
ATOM     24  H   UNL d   1      22.176  -7.783  -5.771  0.00  0.00     0.217 HD
ENDBRANCH  21  23
ENDBRANCH   2  17
TORSDOF 4
ENDMDL
MODEL 7
REMARK VINA RESULT:    -6.418      3.879      6.030
REMARK INTER + INTRA:          -8.988
REMARK INTER:                  -7.611
REMARK INTRA:                  -1.376
REMARK CONF_INDEPENDENT:        1.193
REMARK UNBOUND:                -1.376
REMARK  4 active torsions:
REMARK  status: ('A' for Active; 'I' for Inactive)
REMARK       I    between atoms: C_2  and  N_3 
REMARK    1  A    between atoms: C_2  and  C_15 
REMARK    2  A    between atoms: N_3  and  N_4 
REMARK       I    between atoms: N_4  and  C_5 
REMARK    3  A    between atoms: C_5  and  C_7 
REMARK    4  A    between atoms: C_19  and  O_20 
ROOT
ATOM      1  O   UNL d   1      25.912 -14.636  -0.957  0.00  0.00    -0.266 OA
ATOM      2  C   UNL d   1      25.462 -15.559  -1.638  0.00  0.00     0.270 C 
ATOM      3  N   UNL d   1      25.738 -15.693  -2.992  0.00  0.00    -0.263 N 
ATOM      4  H   UNL d   1      25.277 -16.373  -3.596  0.00  0.00     0.190 HD
ENDROOT
BRANCH   3   5
ATOM      5  N   UNL d   1      26.539 -14.714  -3.650  0.00  0.00    -0.263 N 
ATOM      6  C   UNL d   1      26.662 -14.781  -5.032  0.00  0.00     0.271 C 
ATOM      7  O   UNL d   1      26.127 -15.680  -5.682  0.00  0.00    -0.266 OA
ATOM      8  H   UNL d   1      26.921 -13.976  -3.060  0.00  0.00     0.190 HD
BRANCH   6   9
ATOM      9  C   UNL d   1      27.497 -13.746  -5.725  0.00  0.00     0.055 A 
ATOM     10  C   UNL d   1      28.558 -14.140  -6.563  0.00  0.00     0.020 A 
ATOM     11  C   UNL d   1      29.270 -13.187  -7.314  0.00  0.00     0.025 A 
ATOM     12  C   UNL d   1      28.936 -11.837  -7.233  0.00  0.00     0.035 A 
ATOM     13 CL   UNL d   1      29.804 -10.676  -8.163  0.00  0.00    -0.084 Cl
ATOM     14  C   UNL d   1      27.898 -11.426  -6.403  0.00  0.00     0.048 A 
ATOM     15  C   UNL d   1      27.179 -12.373  -5.655  0.00  0.00     0.051 A 
ATOM     16 CL   UNL d   1      25.938 -11.746  -4.626  0.00  0.00    -0.083 Cl
ENDBRANCH   6   9
ENDBRANCH   3   5
BRANCH   2  17
ATOM     17  C   UNL d   1      24.548 -16.572  -1.020  0.00  0.00     0.036 A 
ATOM     18  C   UNL d   1      25.091 -17.582  -0.207  0.00  0.00     0.017 A 
ATOM     19  C   UNL d   1      24.261 -18.537   0.400  0.00  0.00     0.004 A 
ATOM     20  C   UNL d   1      22.882 -18.504   0.187  0.00  0.00     0.036 A 
ATOM     21  C   UNL d   1      22.352 -17.522  -0.645  0.00  0.00     0.066 A 
ATOM     22  C   UNL d   1      23.169 -16.564  -1.255  0.00  0.00     0.053 A 
BRANCH  21  23
ATOM     23  O   UNL d   1      21.010 -17.452  -0.895  0.00  0.00    -0.361 OA
ATOM     24  H   UNL d   1      20.849 -16.846  -1.637  0.00  0.00     0.217 HD
ENDBRANCH  21  23
ENDBRANCH   2  17
TORSDOF 4
ENDMDL
MODEL 8
REMARK VINA RESULT:    -6.304      9.383     10.388
REMARK INTER + INTRA:          -8.895
REMARK INTER:                  -7.497
REMARK INTRA:                  -1.398
REMARK CONF_INDEPENDENT:        1.193
REMARK UNBOUND:                -1.398
REMARK  4 active torsions:
REMARK  status: ('A' for Active; 'I' for Inactive)
REMARK       I    between atoms: C_2  and  N_3 
REMARK    1  A    between atoms: C_2  and  C_15 
REMARK    2  A    between atoms: N_3  and  N_4 
REMARK       I    between atoms: N_4  and  C_5 
REMARK    3  A    between atoms: C_5  and  C_7 
REMARK    4  A    between atoms: C_19  and  O_20 
ROOT
ATOM      1  O   UNL d   1      30.187 -22.065   1.866  0.00  0.00    -0.266 OA
ATOM      2  C   UNL d   1      31.157 -21.344   2.111  0.00  0.00     0.270 C 
ATOM      3  N   UNL d   1      31.761 -20.551   1.146  0.00  0.00    -0.263 N 
ATOM      4  H   UNL d   1      32.636 -20.048   1.297  0.00  0.00     0.190 HD
ENDROOT
BRANCH   3   5
ATOM      5  N   UNL d   1      31.282 -20.582  -0.197  0.00  0.00    -0.263 N 
ATOM      6  C   UNL d   1      32.026 -19.939  -1.179  0.00  0.00     0.271 C 
ATOM      7  O   UNL d   1      33.055 -19.322  -0.905  0.00  0.00    -0.266 OA
ATOM      8  H   UNL d   1      30.448 -21.142  -0.363  0.00  0.00     0.190 HD
BRANCH   6   9
ATOM      9  C   UNL d   1      31.527 -19.981  -2.593  0.00  0.00     0.055 A 
ATOM     10  C   UNL d   1      31.314 -18.783  -3.302  0.00  0.00     0.020 A 
ATOM     11  C   UNL d   1      30.964 -18.810  -4.664  0.00  0.00     0.025 A 
ATOM     12  C   UNL d   1      30.821 -20.025  -5.329  0.00  0.00     0.035 A 
ATOM     13 CL   UNL d   1      30.405 -20.051  -7.000  0.00  0.00    -0.084 Cl
ATOM     14  C   UNL d   1      31.017 -21.219  -4.644  0.00  0.00     0.048 A 
ATOM     15  C   UNL d   1      31.372 -21.200  -3.284  0.00  0.00     0.051 A 
ATOM     16 CL   UNL d   1      31.549 -22.744  -2.524  0.00  0.00    -0.083 Cl
ENDBRANCH   6   9
ENDBRANCH   3   5
BRANCH   2  17
ATOM     17  C   UNL d   1      31.755 -21.331   3.484  0.00  0.00     0.036 A 
ATOM     18  C   UNL d   1      33.147 -21.199   3.627  0.00  0.00     0.017 A 
ATOM     19  C   UNL d   1      33.736 -21.166   4.900  0.00  0.00     0.004 A 
ATOM     20  C   UNL d   1      32.944 -21.285   6.043  0.00  0.00     0.036 A 
ATOM     21  C   UNL d   1      31.570 -21.449   5.896  0.00  0.00     0.066 A 
ATOM     22  C   UNL d   1      30.970 -21.481   4.633  0.00  0.00     0.053 A 
BRANCH  21  23
ATOM     23  O   UNL d   1      30.751 -21.580   6.982  0.00  0.00    -0.361 OA
ATOM     24  H   UNL d   1      30.122 -22.304   6.830  0.00  0.00     0.217 HD
ENDBRANCH  21  23
ENDBRANCH   2  17
TORSDOF 4
ENDMDL
MODEL 9
REMARK VINA RESULT:    -6.095      5.704      8.316
REMARK INTER + INTRA:          -8.632
REMARK INTER:                  -7.288
REMARK INTRA:                  -1.344
REMARK CONF_INDEPENDENT:        1.193
REMARK UNBOUND:                -1.344
REMARK  4 active torsions:
REMARK  status: ('A' for Active; 'I' for Inactive)
REMARK       I    between atoms: C_2  and  N_3 
REMARK    1  A    between atoms: C_2  and  C_15 
REMARK    2  A    between atoms: N_3  and  N_4 
REMARK       I    between atoms: N_4  and  C_5 
REMARK    3  A    between atoms: C_5  and  C_7 
REMARK    4  A    between atoms: C_19  and  O_20 
ROOT
ATOM      1  O   UNL d   1      25.155 -15.030  -4.337  0.00  0.00    -0.266 OA
ATOM      2  C   UNL d   1      25.451 -14.666  -3.197  0.00  0.00     0.270 C 
ATOM      3  N   UNL d   1      25.514 -13.329  -2.831  0.00  0.00    -0.263 N 
ATOM      4  H   UNL d   1      25.877 -13.006  -1.934  0.00  0.00     0.190 HD
ENDROOT
BRANCH   3   5
ATOM      5  N   UNL d   1      25.267 -12.318  -3.806  0.00  0.00    -0.263 N 
ATOM      6  C   UNL d   1      25.781 -11.046  -3.583  0.00  0.00     0.271 C 
ATOM      7  O   UNL d   1      26.405 -10.775  -2.557  0.00  0.00    -0.266 OA
ATOM      8  H   UNL d   1      24.780 -12.616  -4.649  0.00  0.00     0.190 HD
BRANCH   6   9
ATOM      9  C   UNL d   1      25.530  -9.984  -4.613  0.00  0.00     0.055 A 
ATOM     10  C   UNL d   1      24.809  -8.825  -4.270  0.00  0.00     0.020 A 
ATOM     11  C   UNL d   1      24.671  -7.769  -5.189  0.00  0.00     0.025 A 
ATOM     12  C   UNL d   1      25.245  -7.860  -6.455  0.00  0.00     0.035 A 
ATOM     13 CL   UNL d   1      25.083  -6.559  -7.572  0.00  0.00    -0.084 Cl
ATOM     14  C   UNL d   1      25.953  -9.001  -6.817  0.00  0.00     0.048 A 
ATOM     15  C   UNL d   1      26.099 -10.058  -5.902  0.00  0.00     0.051 A 
ATOM     16 CL   UNL d   1      26.962 -11.444  -6.473  0.00  0.00    -0.083 Cl
ENDBRANCH   6   9
ENDBRANCH   3   5
BRANCH   2  17
ATOM     17  C   UNL d   1      25.800 -15.681  -2.152  0.00  0.00     0.036 A 
ATOM     18  C   UNL d   1      24.768 -16.375  -1.497  0.00  0.00     0.017 A 
ATOM     19  C   UNL d   1      25.061 -17.345  -0.525  0.00  0.00     0.004 A 
ATOM     20  C   UNL d   1      26.387 -17.616  -0.184  0.00  0.00     0.036 A 
ATOM     21  C   UNL d   1      27.405 -16.903  -0.811  0.00  0.00     0.066 A 
ATOM     22  C   UNL d   1      27.125 -15.936  -1.782  0.00  0.00     0.053 A 
BRANCH  21  23
ATOM     23  O   UNL d   1      28.718 -17.124  -0.506  0.00  0.00    -0.361 OA
ATOM     24  H   UNL d   1      28.779 -17.765   0.222  0.00  0.00     0.217 HD
ENDBRANCH  21  23
ENDBRANCH   2  17
TORSDOF 4
ENDMDL
