MODEL 1
REMARK VINA RESULT:    -8.298      0.000      0.000
REMARK INTER + INTRA:         -14.222
REMARK INTER:                 -11.878
REMARK INTRA:                  -2.344
REMARK CONF_INDEPENDENT:        3.580
REMARK UNBOUND:                -2.344
REMARK  12 active torsions:
REMARK  status: ('A' for Active; 'I' for Inactive)
REMARK    1  A    between atoms: C_2  and  C_4 
REMARK    2  A    between atoms: C_4  and  C_5 
REMARK    3  A    between atoms: C_5  and  C_6 
REMARK    4  A    between atoms: C_6  and  C_7 
REMARK    5  A    between atoms: C_7  and  N_9 
REMARK       I    between atoms: N_9  and  C_10 
REMARK    6  A    between atoms: C_10  and  C_12 
REMARK    7  A    between atoms: C_12  and  C_13 
REMARK    8  A    between atoms: C_14  and  C_13 
REMARK    9  A    between atoms: C_16  and  O_17 
REMARK   10  A    between atoms: N_18  and  C_19 
REMARK   11  A    between atoms: C_19  and  C_20 
REMARK   12  A    between atoms: C_20  and  C_21 
ROOT
ATOM      1  C   UNL d   1      26.631 -14.927  -1.941  0.00  0.00     0.205 C 
ATOM      2  N   UNL d   1      25.257 -14.704  -2.476  0.00  0.00    -0.236 NA
ATOM      3  C   UNL d   1      25.495 -14.368  -3.698  0.00  0.00     0.244 C 
ATOM      4  N   UNL d   1      26.761 -14.255  -4.122  0.00  0.00    -0.280 N 
ATOM      5  C   UNL d   1      27.521 -14.320  -3.000  0.00  0.00     0.252 C 
ATOM      6  O   UNL d   1      28.688 -13.988  -2.842  0.00  0.00    -0.271 OA
ENDROOT
BRANCH   1   7
ATOM      7  C   UNL d   1      26.938 -16.424  -1.797  0.00  0.00     0.046 C 
BRANCH   7   8
ATOM      8  C   UNL d   1      26.689 -17.023  -0.398  0.00  0.00     0.105 C 
BRANCH   8   9
ATOM      9  C   UNL d   1      25.247 -17.458  -0.259  0.00  0.00     0.217 C 
ATOM     10  N   UNL d   1      24.442 -17.183  -1.349  0.00  0.00    -0.357 N 
ATOM     11  H   UNL d   1      24.807 -16.651  -2.130  0.00  0.00     0.162 HD
ATOM     12  O   UNL d   1      24.833 -18.025   0.748  0.00  0.00    -0.274 OA
BRANCH  10  13
ATOM     13  C   UNL d   1      23.040 -17.595  -1.349  0.00  0.00     0.080 C 
ATOM     14  C   UNL d   1      22.199 -16.616  -0.518  0.00  0.00     0.032 C 
BRANCH  13  15
ATOM     15  C   UNL d   1      22.877 -19.033  -0.821  0.00  0.00     0.024 C 
BRANCH  15  16
ATOM     16  C   UNL d   1      21.772 -19.109   0.229  0.00  0.00     0.002 C 
BRANCH  16  17
ATOM     17  C   UNL d   1      20.543 -19.858  -0.260  0.00  0.00     0.004 C 
BRANCH  17  18
ATOM     18  C   UNL d   1      19.396 -19.766   0.761  0.00  0.00    -0.023 C 
ATOM     19  C   UNL d   1      18.450 -20.948   0.567  0.00  0.00     0.009 C 
ATOM     20  C   UNL d   1      19.910 -19.755   2.204  0.00  0.00     0.009 C 
ENDBRANCH  17  18
ENDBRANCH  16  17
ENDBRANCH  15  16
ENDBRANCH  13  15
ENDBRANCH  10  13
ENDBRANCH   8   9
ENDBRANCH   7   8
ENDBRANCH   1   7
BRANCH   3  21
ATOM     21  O   UNL d   1      24.499 -14.135  -4.554  0.00  0.00    -0.331 OA
ATOM     22  H   UNL d   1      24.369 -13.170  -4.592  0.00  0.00     0.221 HD
ENDBRANCH   3  21
BRANCH   4  23
ATOM     23  C   UNL d   1      27.238 -14.150  -5.500  0.00  0.00     0.140 C 
BRANCH  23  24
ATOM     24  C   UNL d   1      27.755 -12.760  -5.881  0.00  0.00     0.061 C 
BRANCH  24  25
ATOM     25  C   UNL d   1      26.790 -11.638  -5.675  0.00  0.00    -0.029 A 
ATOM     26  C   UNL d   1      25.945 -11.075  -6.611  0.00  0.00     0.096 A 
ATOM     27  N   UNL d   1      25.328  -9.995  -6.038  0.00  0.00    -0.365 N 
ATOM     28  C   UNL d   1      25.728  -9.854  -4.732  0.00  0.00     0.043 A 
ATOM     29  H   UNL d   1      24.673  -9.383  -6.506  0.00  0.00     0.165 HD
ATOM     30  C   UNL d   1      25.368  -8.896  -3.777  0.00  0.00     0.032 A 
ATOM     31  C   UNL d   1      26.623 -10.889  -4.464  0.00  0.00    -0.000 A 
ATOM     32  C   UNL d   1      25.914  -9.023  -2.495  0.00  0.00     0.026 A 
ATOM     33  C   UNL d   1      26.790 -10.062  -2.195  0.00  0.00     0.035 A 
ATOM     34 CL   UNL d   1      27.407 -10.215  -0.593  0.00  0.00    -0.084 Cl
ATOM     35  C   UNL d   1      27.171 -10.990  -3.168  0.00  0.00     0.038 A 
ENDBRANCH  24  25
ENDBRANCH  23  24
ENDBRANCH   4  23
TORSDOF 12
ENDMDL
MODEL 2
REMARK VINA RESULT:    -8.231      2.671      4.352
REMARK INTER + INTRA:         -14.194
REMARK INTER:                 -11.811
REMARK INTRA:                  -2.383
REMARK CONF_INDEPENDENT:        3.580
REMARK UNBOUND:                -2.383
REMARK  12 active torsions:
REMARK  status: ('A' for Active; 'I' for Inactive)
REMARK    1  A    between atoms: C_2  and  C_4 
REMARK    2  A    between atoms: C_4  and  C_5 
REMARK    3  A    between atoms: C_5  and  C_6 
REMARK    4  A    between atoms: C_6  and  C_7 
REMARK    5  A    between atoms: C_7  and  N_9 
REMARK       I    between atoms: N_9  and  C_10 
REMARK    6  A    between atoms: C_10  and  C_12 
REMARK    7  A    between atoms: C_12  and  C_13 
REMARK    8  A    between atoms: C_14  and  C_13 
REMARK    9  A    between atoms: C_16  and  O_17 
REMARK   10  A    between atoms: N_18  and  C_19 
REMARK   11  A    between atoms: C_19  and  C_20 
REMARK   12  A    between atoms: C_20  and  C_21 
ROOT
ATOM      1  C   UNL d   1      26.670 -14.934  -1.737  0.00  0.00     0.205 C 
ATOM      2  N   UNL d   1      25.292 -14.811  -2.296  0.00  0.00    -0.236 NA
ATOM      3  C   UNL d   1      25.517 -14.288  -3.453  0.00  0.00     0.244 C 
ATOM      4  N   UNL d   1      26.768 -13.966  -3.806  0.00  0.00    -0.280 N 
ATOM      5  C   UNL d   1      27.503 -14.087  -2.672  0.00  0.00     0.252 C 
ATOM      6  O   UNL d   1      28.614 -13.640  -2.424  0.00  0.00    -0.271 OA
ENDROOT
BRANCH   1   7
ATOM      7  C   UNL d   1      27.160 -16.388  -1.776  0.00  0.00     0.046 C 
BRANCH   7   8
ATOM      8  C   UNL d   1      26.951 -17.196  -0.479  0.00  0.00     0.105 C 
BRANCH   8   9
ATOM      9  C   UNL d   1      25.481 -17.485  -0.268  0.00  0.00     0.217 C 
ATOM     10  N   UNL d   1      24.682 -17.311  -1.383  0.00  0.00    -0.357 N 
ATOM     11  H   UNL d   1      25.074 -16.933  -2.237  0.00  0.00     0.162 HD
ATOM     12  O   UNL d   1      25.041 -17.860   0.815  0.00  0.00    -0.274 OA
BRANCH  10  13
ATOM     13  C   UNL d   1      23.252 -17.602  -1.314  0.00  0.00     0.080 C 
ATOM     14  C   UNL d   1      22.525 -16.506  -0.520  0.00  0.00     0.032 C 
BRANCH  13  15
ATOM     15  C   UNL d   1      22.990 -18.987  -0.691  0.00  0.00     0.024 C 
BRANCH  15  16
ATOM     16  C   UNL d   1      21.775 -18.950   0.233  0.00  0.00     0.002 C 
BRANCH  16  17
ATOM     17  C   UNL d   1      20.704 -19.955  -0.160  0.00  0.00     0.004 C 
BRANCH  17  18
ATOM     18  C   UNL d   1      19.467 -19.828   0.746  0.00  0.00    -0.023 C 
ATOM     19  C   UNL d   1      18.405 -20.825   0.293  0.00  0.00     0.009 C 
ATOM     20  C   UNL d   1      19.805 -20.074   2.220  0.00  0.00     0.009 C 
ENDBRANCH  17  18
ENDBRANCH  16  17
ENDBRANCH  15  16
ENDBRANCH  13  15
ENDBRANCH  10  13
ENDBRANCH   8   9
ENDBRANCH   7   8
ENDBRANCH   1   7
BRANCH   3  21
ATOM     21  O   UNL d   1      24.521 -14.066  -4.312  0.00  0.00    -0.331 OA
ATOM     22  H   UNL d   1      24.189 -13.165  -4.145  0.00  0.00     0.221 HD
ENDBRANCH   3  21
BRANCH   4  23
ATOM     23  C   UNL d   1      27.262 -13.620  -5.137  0.00  0.00     0.140 C 
BRANCH  23  24
ATOM     24  C   UNL d   1      27.593 -14.827  -6.019  0.00  0.00     0.061 C 
BRANCH  24  25
ATOM     25  C   UNL d   1      29.048 -15.126  -6.179  0.00  0.00    -0.029 A 
ATOM     26  C   UNL d   1      29.856 -14.815  -7.255  0.00  0.00     0.096 A 
ATOM     27  N   UNL d   1      31.086 -15.380  -7.046  0.00  0.00    -0.365 N 
ATOM     28  C   UNL d   1      31.112 -16.032  -5.837  0.00  0.00     0.043 A 
ATOM     29  H   UNL d   1      31.865 -15.331  -7.688  0.00  0.00     0.165 HD
ATOM     30  C   UNL d   1      32.144 -16.752  -5.224  0.00  0.00     0.032 A 
ATOM     31  C   UNL d   1      29.857 -15.865  -5.254  0.00  0.00    -0.000 A 
ATOM     32  C   UNL d   1      31.895 -17.286  -3.954  0.00  0.00     0.026 A 
ATOM     33  C   UNL d   1      30.659 -17.111  -3.340  0.00  0.00     0.035 A 
ATOM     34 CL   UNL d   1      30.401 -17.743  -1.757  0.00  0.00    -0.084 Cl
ATOM     35  C   UNL d   1      29.624 -16.423  -3.979  0.00  0.00     0.038 A 
ENDBRANCH  24  25
ENDBRANCH  23  24
ENDBRANCH   4  23
TORSDOF 12
ENDMDL
MODEL 3
REMARK VINA RESULT:    -8.073      3.222      5.407
REMARK INTER + INTRA:         -13.981
REMARK INTER:                 -11.653
REMARK INTRA:                  -2.328
REMARK CONF_INDEPENDENT:        3.580
REMARK UNBOUND:                -2.328
REMARK  12 active torsions:
REMARK  status: ('A' for Active; 'I' for Inactive)
REMARK    1  A    between atoms: C_2  and  C_4 
REMARK    2  A    between atoms: C_4  and  C_5 
REMARK    3  A    between atoms: C_5  and  C_6 
REMARK    4  A    between atoms: C_6  and  C_7 
REMARK    5  A    between atoms: C_7  and  N_9 
REMARK       I    between atoms: N_9  and  C_10 
REMARK    6  A    between atoms: C_10  and  C_12 
REMARK    7  A    between atoms: C_12  and  C_13 
REMARK    8  A    between atoms: C_14  and  C_13 
REMARK    9  A    between atoms: C_16  and  O_17 
REMARK   10  A    between atoms: N_18  and  C_19 
REMARK   11  A    between atoms: C_19  and  C_20 
REMARK   12  A    between atoms: C_20  and  C_21 
ROOT
ATOM      1  C   UNL d   1      25.134 -13.157  -3.876  0.00  0.00     0.205 C 
ATOM      2  N   UNL d   1      25.150 -14.602  -4.246  0.00  0.00    -0.236 NA
ATOM      3  C   UNL d   1      26.216 -14.683  -4.968  0.00  0.00     0.244 C 
ATOM      4  N   UNL d   1      26.929 -13.579  -5.228  0.00  0.00    -0.280 N 
ATOM      5  C   UNL d   1      26.155 -12.547  -4.807  0.00  0.00     0.252 C 
ATOM      6  O   UNL d   1      26.243 -11.358  -5.082  0.00  0.00    -0.271 OA
ENDROOT
BRANCH   1   7
ATOM      7  C   UNL d   1      25.567 -12.950  -2.419  0.00  0.00     0.046 C 
BRANCH   7   8
ATOM      8  C   UNL d   1      26.810 -13.747  -1.973  0.00  0.00     0.105 C 
BRANCH   8   9
ATOM      9  C   UNL d   1      26.460 -15.206  -1.779  0.00  0.00     0.217 C 
ATOM     10  N   UNL d   1      25.794 -15.499  -0.603  0.00  0.00    -0.357 N 
ATOM     11  H   UNL d   1      25.645 -14.777   0.091  0.00  0.00     0.162 HD
ATOM     12  O   UNL d   1      26.740 -16.059  -2.616  0.00  0.00    -0.274 OA
BRANCH  10  13
ATOM     13  C   UNL d   1      25.364 -16.867  -0.324  0.00  0.00     0.080 C 
ATOM     14  C   UNL d   1      26.565 -17.823  -0.381  0.00  0.00     0.032 C 
BRANCH  13  15
ATOM     15  C   UNL d   1      24.263 -17.321  -1.301  0.00  0.00     0.024 C 
BRANCH  15  16
ATOM     16  C   UNL d   1      23.502 -18.523  -0.748  0.00  0.00     0.002 C 
BRANCH  16  17
ATOM     17  C   UNL d   1      22.140 -18.152  -0.184  0.00  0.00     0.004 C 
BRANCH  17  18
ATOM     18  C   UNL d   1      21.225 -19.385  -0.089  0.00  0.00    -0.023 C 
ATOM     19  C   UNL d   1      20.435 -19.329   1.215  0.00  0.00     0.009 C 
ATOM     20  C   UNL d   1      20.254 -19.473  -1.271  0.00  0.00     0.009 C 
ENDBRANCH  17  18
ENDBRANCH  16  17
ENDBRANCH  15  16
ENDBRANCH  13  15
ENDBRANCH  10  13
ENDBRANCH   8   9
ENDBRANCH   7   8
ENDBRANCH   1   7
BRANCH   3  21
ATOM     21  O   UNL d   1      26.628 -15.854  -5.457  0.00  0.00    -0.331 OA
ATOM     22  H   UNL d   1      27.106 -16.314  -4.744  0.00  0.00     0.221 HD
ENDBRANCH   3  21
BRANCH   4  23
ATOM     23  C   UNL d   1      28.277 -13.494  -5.786  0.00  0.00     0.140 C 
BRANCH  23  24
ATOM     24  C   UNL d   1      29.346 -14.216  -4.961  0.00  0.00     0.061 C 
BRANCH  24  25
ATOM     25  C   UNL d   1      29.864 -15.486  -5.553  0.00  0.00    -0.029 A 
ATOM     26  C   UNL d   1      29.995 -15.794  -6.893  0.00  0.00     0.096 A 
ATOM     27  N   UNL d   1      30.389 -17.102  -6.996  0.00  0.00    -0.365 N 
ATOM     28  C   UNL d   1      30.550 -17.651  -5.747  0.00  0.00     0.043 A 
ATOM     29  H   UNL d   1      30.537 -17.598  -7.864  0.00  0.00     0.165 HD
ATOM     30  C   UNL d   1      30.928 -18.947  -5.374  0.00  0.00     0.032 A 
ATOM     31  C   UNL d   1      30.258 -16.652  -4.820  0.00  0.00    -0.000 A 
ATOM     32  C   UNL d   1      31.047 -19.217  -4.006  0.00  0.00     0.026 A 
ATOM     33  C   UNL d   1      30.786 -18.230  -3.061  0.00  0.00     0.035 A 
ATOM     34 CL   UNL d   1      30.987 -18.585  -1.387  0.00  0.00    -0.084 Cl
ATOM     35  C   UNL d   1      30.373 -16.952  -3.446  0.00  0.00     0.038 A 
ENDBRANCH  24  25
ENDBRANCH  23  24
ENDBRANCH   4  23
TORSDOF 12
ENDMDL
MODEL 4
REMARK VINA RESULT:    -7.957      4.135      8.545
REMARK INTER + INTRA:         -14.182
REMARK INTER:                 -11.536
REMARK INTRA:                  -2.646
REMARK CONF_INDEPENDENT:        3.580
REMARK UNBOUND:                -2.646
REMARK  12 active torsions:
REMARK  status: ('A' for Active; 'I' for Inactive)
REMARK    1  A    between atoms: C_2  and  C_4 
REMARK    2  A    between atoms: C_4  and  C_5 
REMARK    3  A    between atoms: C_5  and  C_6 
REMARK    4  A    between atoms: C_6  and  C_7 
REMARK    5  A    between atoms: C_7  and  N_9 
REMARK       I    between atoms: N_9  and  C_10 
REMARK    6  A    between atoms: C_10  and  C_12 
REMARK    7  A    between atoms: C_12  and  C_13 
REMARK    8  A    between atoms: C_14  and  C_13 
REMARK    9  A    between atoms: C_16  and  O_17 
REMARK   10  A    between atoms: N_18  and  C_19 
REMARK   11  A    between atoms: C_19  and  C_20 
REMARK   12  A    between atoms: C_20  and  C_21 
ROOT
ATOM      1  C   UNL d   1      28.100 -15.237  -5.414  0.00  0.00     0.205 C 
ATOM      2  N   UNL d   1      26.645 -15.361  -5.719  0.00  0.00    -0.236 NA
ATOM      3  C   UNL d   1      26.104 -14.894  -4.645  0.00  0.00     0.244 C 
ATOM      4  N   UNL d   1      26.880 -14.512  -3.622  0.00  0.00    -0.280 N 
ATOM      5  C   UNL d   1      28.124 -14.960  -3.930  0.00  0.00     0.252 C 
ATOM      6  O   UNL d   1      29.092 -15.103  -3.196  0.00  0.00    -0.271 OA
ENDROOT
BRANCH   1   7
ATOM      7  C   UNL d   1      28.730 -14.062  -6.174  0.00  0.00     0.046 C 
BRANCH   7   8
ATOM      8  C   UNL d   1      30.031 -14.383  -6.937  0.00  0.00     0.105 C 
BRANCH   8   9
ATOM      9  C   UNL d   1      30.610 -15.699  -6.465  0.00  0.00     0.217 C 
ATOM     10  N   UNL d   1      30.908 -15.759  -5.116  0.00  0.00    -0.357 N 
ATOM     11  H   UNL d   1      30.813 -14.935  -4.536  0.00  0.00     0.162 HD
ATOM     12  O   UNL d   1      30.786 -16.643  -7.229  0.00  0.00    -0.274 OA
BRANCH  10  13
ATOM     13  C   UNL d   1      31.432 -16.993  -4.534  0.00  0.00     0.080 C 
ATOM     14  C   UNL d   1      32.686 -17.448  -5.295  0.00  0.00     0.032 C 
BRANCH  13  15
ATOM     15  C   UNL d   1      30.367 -18.107  -4.528  0.00  0.00     0.024 C 
BRANCH  15  16
ATOM     16  C   UNL d   1      30.916 -19.392  -5.142  0.00  0.00     0.002 C 
BRANCH  16  17
ATOM     17  C   UNL d   1      30.378 -19.656  -6.539  0.00  0.00     0.004 C 
BRANCH  17  18
ATOM     18  C   UNL d   1      31.524 -19.859  -7.545  0.00  0.00    -0.023 C 
ATOM     19  C   UNL d   1      31.854 -21.345  -7.642  0.00  0.00     0.009 C 
ATOM     20  C   UNL d   1      31.171 -19.322  -8.936  0.00  0.00     0.009 C 
ENDBRANCH  17  18
ENDBRANCH  16  17
ENDBRANCH  15  16
ENDBRANCH  13  15
ENDBRANCH  10  13
ENDBRANCH   8   9
ENDBRANCH   7   8
ENDBRANCH   1   7
BRANCH   3  21
ATOM     21  O   UNL d   1      24.780 -14.775  -4.537  0.00  0.00    -0.331 OA
ATOM     22  H   UNL d   1      24.498 -14.089  -5.168  0.00  0.00     0.221 HD
ENDBRANCH   3  21
BRANCH   4  23
ATOM     23  C   UNL d   1      26.496 -13.728  -2.450  0.00  0.00     0.140 C 
BRANCH  23  24
ATOM     24  C   UNL d   1      27.424 -13.903  -1.244  0.00  0.00     0.061 C 
BRANCH  24  25
ATOM     25  C   UNL d   1      27.528 -15.295  -0.712  0.00  0.00    -0.029 A 
ATOM     26  C   UNL d   1      28.678 -15.974  -0.359  0.00  0.00     0.096 A 
ATOM     27  N   UNL d   1      28.335 -17.262  -0.042  0.00  0.00    -0.365 N 
ATOM     28  C   UNL d   1      26.977 -17.434  -0.150  0.00  0.00     0.043 A 
ATOM     29  H   UNL d   1      28.985 -17.986   0.230  0.00  0.00     0.165 HD
ATOM     30  C   UNL d   1      26.193 -18.574   0.065  0.00  0.00     0.032 A 
ATOM     31  C   UNL d   1      26.438 -16.209  -0.539  0.00  0.00    -0.000 A 
ATOM     32  C   UNL d   1      24.808 -18.446  -0.087  0.00  0.00     0.026 A 
ATOM     33  C   UNL d   1      24.243 -17.227  -0.450  0.00  0.00     0.035 A 
ATOM     34 CL   UNL d   1      22.530 -17.092  -0.584  0.00  0.00    -0.084 Cl
ATOM     35  C   UNL d   1      25.040 -16.106  -0.699  0.00  0.00     0.038 A 
ENDBRANCH  24  25
ENDBRANCH  23  24
ENDBRANCH   4  23
TORSDOF 12
ENDMDL
MODEL 5
REMARK VINA RESULT:    -7.717      2.821      4.449
REMARK INTER + INTRA:         -14.432
REMARK INTER:                 -11.297
REMARK INTRA:                  -3.135
REMARK CONF_INDEPENDENT:        3.580
REMARK UNBOUND:                -3.135
REMARK  12 active torsions:
REMARK  status: ('A' for Active; 'I' for Inactive)
REMARK    1  A    between atoms: C_2  and  C_4 
REMARK    2  A    between atoms: C_4  and  C_5 
REMARK    3  A    between atoms: C_5  and  C_6 
REMARK    4  A    between atoms: C_6  and  C_7 
REMARK    5  A    between atoms: C_7  and  N_9 
REMARK       I    between atoms: N_9  and  C_10 
REMARK    6  A    between atoms: C_10  and  C_12 
REMARK    7  A    between atoms: C_12  and  C_13 
REMARK    8  A    between atoms: C_14  and  C_13 
REMARK    9  A    between atoms: C_16  and  O_17 
REMARK   10  A    between atoms: N_18  and  C_19 
REMARK   11  A    between atoms: C_19  and  C_20 
REMARK   12  A    between atoms: C_20  and  C_21 
ROOT
ATOM      1  C   UNL d   1      25.957 -14.872  -4.938  0.00  0.00     0.205 C 
ATOM      2  N   UNL d   1      26.892 -15.573  -5.865  0.00  0.00    -0.236 NA
ATOM      3  C   UNL d   1      27.906 -14.776  -5.878  0.00  0.00     0.244 C 
ATOM      4  N   UNL d   1      27.859 -13.628  -5.190  0.00  0.00    -0.280 N 
ATOM      5  C   UNL d   1      26.564 -13.495  -4.805  0.00  0.00     0.252 C 
ATOM      6  O   UNL d   1      25.979 -12.497  -4.409  0.00  0.00    -0.271 OA
ENDROOT
BRANCH   1   7
ATOM      7  C   UNL d   1      25.915 -15.557  -3.565  0.00  0.00     0.046 C 
BRANCH   7   8
ATOM      8  C   UNL d   1      25.112 -14.818  -2.476  0.00  0.00     0.105 C 
BRANCH   8   9
ATOM      9  C   UNL d   1      24.935 -15.700  -1.259  0.00  0.00     0.217 C 
ATOM     10  N   UNL d   1      24.256 -16.882  -1.484  0.00  0.00    -0.357 N 
ATOM     11  H   UNL d   1      23.846 -17.070  -2.392  0.00  0.00     0.162 HD
ATOM     12  O   UNL d   1      25.378 -15.385  -0.158  0.00  0.00    -0.274 OA
BRANCH  10  13
ATOM     13  C   UNL d   1      24.061 -17.837  -0.395  0.00  0.00     0.080 C 
ATOM     14  C   UNL d   1      25.418 -18.259   0.189  0.00  0.00     0.032 C 
BRANCH  13  15
ATOM     15  C   UNL d   1      23.266 -19.070  -0.864  0.00  0.00     0.024 C 
BRANCH  15  16
ATOM     16  C   UNL d   1      21.763 -18.825  -0.755  0.00  0.00     0.002 C 
BRANCH  16  17
ATOM     17  C   UNL d   1      21.187 -19.274   0.578  0.00  0.00     0.004 C 
BRANCH  17  18
ATOM     18  C   UNL d   1      19.907 -20.102   0.378  0.00  0.00    -0.023 C 
ATOM     19  C   UNL d   1      18.993 -19.923   1.587  0.00  0.00     0.009 C 
ATOM     20  C   UNL d   1      19.155 -19.700  -0.895  0.00  0.00     0.009 C 
ENDBRANCH  17  18
ENDBRANCH  16  17
ENDBRANCH  15  16
ENDBRANCH  13  15
ENDBRANCH  10  13
ENDBRANCH   8   9
ENDBRANCH   7   8
ENDBRANCH   1   7
BRANCH   3  21
ATOM     21  O   UNL d   1      29.010 -15.080  -6.562  0.00  0.00    -0.331 OA
ATOM     22  H   UNL d   1      28.761 -15.143  -7.502  0.00  0.00     0.221 HD
ENDBRANCH   3  21
BRANCH   4  23
ATOM     23  C   UNL d   1      28.967 -12.733  -4.863  0.00  0.00     0.140 C 
BRANCH  23  24
ATOM     24  C   UNL d   1      28.930 -12.183  -3.434  0.00  0.00     0.061 C 
BRANCH  24  25
ATOM     25  C   UNL d   1      28.458 -13.141  -2.389  0.00  0.00    -0.029 A 
ATOM     26  C   UNL d   1      27.645 -12.868  -1.306  0.00  0.00     0.096 A 
ATOM     27  N   UNL d   1      27.565 -13.997  -0.535  0.00  0.00    -0.365 N 
ATOM     28  C   UNL d   1      28.284 -15.018  -1.107  0.00  0.00     0.043 A 
ATOM     29  H   UNL d   1      27.053 -14.072   0.334  0.00  0.00     0.165 HD
ATOM     30  C   UNL d   1      28.489 -16.331  -0.669  0.00  0.00     0.032 A 
ATOM     31  C   UNL d   1      28.832 -14.520  -2.289  0.00  0.00    -0.000 A 
ATOM     32  C   UNL d   1      29.250 -17.175  -1.487  0.00  0.00     0.026 A 
ATOM     33  C   UNL d   1      29.786 -16.710  -2.684  0.00  0.00     0.035 A 
ATOM     34 CL   UNL d   1      30.678 -17.789  -3.688  0.00  0.00    -0.084 Cl
ATOM     35  C   UNL d   1      29.605 -15.386  -3.091  0.00  0.00     0.038 A 
ENDBRANCH  24  25
ENDBRANCH  23  24
ENDBRANCH   4  23
TORSDOF 12
ENDMDL
MODEL 6
REMARK VINA RESULT:    -7.148      3.509      8.066
REMARK INTER + INTRA:         -13.908
REMARK INTER:                 -10.727
REMARK INTRA:                  -3.181
REMARK CONF_INDEPENDENT:        3.580
REMARK UNBOUND:                -3.181
REMARK  12 active torsions:
REMARK  status: ('A' for Active; 'I' for Inactive)
REMARK    1  A    between atoms: C_2  and  C_4 
REMARK    2  A    between atoms: C_4  and  C_5 
REMARK    3  A    between atoms: C_5  and  C_6 
REMARK    4  A    between atoms: C_6  and  C_7 
REMARK    5  A    between atoms: C_7  and  N_9 
REMARK       I    between atoms: N_9  and  C_10 
REMARK    6  A    between atoms: C_10  and  C_12 
REMARK    7  A    between atoms: C_12  and  C_13 
REMARK    8  A    between atoms: C_14  and  C_13 
REMARK    9  A    between atoms: C_16  and  O_17 
REMARK   10  A    between atoms: N_18  and  C_19 
REMARK   11  A    between atoms: C_19  and  C_20 
REMARK   12  A    between atoms: C_20  and  C_21 
ROOT
ATOM      1  C   UNL d   1      27.750 -13.725  -5.947  0.00  0.00     0.205 C 
ATOM      2  N   UNL d   1      27.118 -12.383  -5.787  0.00  0.00    -0.236 NA
ATOM      3  C   UNL d   1      26.286 -12.591  -4.823  0.00  0.00     0.244 C 
ATOM      4  N   UNL d   1      26.163 -13.820  -4.304  0.00  0.00    -0.280 N 
ATOM      5  C   UNL d   1      26.848 -14.634  -5.147  0.00  0.00     0.252 C 
ATOM      6  O   UNL d   1      26.791 -15.851  -5.254  0.00  0.00    -0.271 OA
ENDROOT
BRANCH   1   7
ATOM      7  C   UNL d   1      29.167 -13.747  -5.358  0.00  0.00     0.046 C 
BRANCH   7   8
ATOM      8  C   UNL d   1      29.251 -13.674  -3.820  0.00  0.00     0.105 C 
BRANCH   8   9
ATOM      9  C   UNL d   1      29.912 -14.917  -3.267  0.00  0.00     0.217 C 
ATOM     10  N   UNL d   1      29.144 -16.065  -3.321  0.00  0.00    -0.357 N 
ATOM     11  H   UNL d   1      28.182 -16.020  -3.635  0.00  0.00     0.162 HD
ATOM     12  O   UNL d   1      31.054 -14.900  -2.817  0.00  0.00    -0.274 OA
BRANCH  10  13
ATOM     13  C   UNL d   1      29.691 -17.338  -2.856  0.00  0.00     0.080 C 
ATOM     14  C   UNL d   1      30.108 -17.229  -1.382  0.00  0.00     0.032 C 
BRANCH  13  15
ATOM     15  C   UNL d   1      30.881 -17.788  -3.724  0.00  0.00     0.024 C 
BRANCH  15  16
ATOM     16  C   UNL d   1      30.404 -18.600  -4.926  0.00  0.00     0.002 C 
BRANCH  16  17
ATOM     17  C   UNL d   1      31.512 -18.870  -5.933  0.00  0.00     0.004 C 
BRANCH  17  18
ATOM     18  C   UNL d   1      31.460 -17.865  -7.096  0.00  0.00    -0.023 C 
ATOM     19  C   UNL d   1      31.156 -18.607  -8.393  0.00  0.00     0.009 C 
ATOM     20  C   UNL d   1      30.405 -16.777  -6.870  0.00  0.00     0.009 C 
ENDBRANCH  17  18
ENDBRANCH  16  17
ENDBRANCH  15  16
ENDBRANCH  13  15
ENDBRANCH  10  13
ENDBRANCH   8   9
ENDBRANCH   7   8
ENDBRANCH   1   7
BRANCH   3  21
ATOM     21  O   UNL d   1      25.547 -11.598  -4.327  0.00  0.00    -0.331 OA
ATOM     22  H   UNL d   1      24.793 -11.468  -4.931  0.00  0.00     0.221 HD
ENDBRANCH   3  21
BRANCH   4  23
ATOM     23  C   UNL d   1      25.493 -14.206  -3.064  0.00  0.00     0.140 C 
BRANCH  23  24
ATOM     24  C   UNL d   1      26.239 -13.794  -1.792  0.00  0.00     0.061 C 
BRANCH  24  25
ATOM     25  C   UNL d   1      26.633 -14.916  -0.887  0.00  0.00    -0.029 A 
ATOM     26  C   UNL d   1      27.831 -15.074  -0.219  0.00  0.00     0.096 A 
ATOM     27  N   UNL d   1      27.822 -16.298   0.396  0.00  0.00    -0.365 N 
ATOM     28  C   UNL d   1      26.626 -16.936   0.170  0.00  0.00     0.043 A 
ATOM     29  H   UNL d   1      28.584 -16.684   0.936  0.00  0.00     0.165 HD
ATOM     30  C   UNL d   1      26.182 -18.195   0.592  0.00  0.00     0.032 A 
ATOM     31  C   UNL d   1      25.846 -16.080  -0.607  0.00  0.00    -0.000 A 
ATOM     32  C   UNL d   1      24.883 -18.575   0.238  0.00  0.00     0.026 A 
ATOM     33  C   UNL d   1      24.075 -17.728  -0.515  0.00  0.00     0.035 A 
ATOM     34 CL   UNL d   1      22.464 -18.209  -0.894  0.00  0.00    -0.084 Cl
ATOM     35  C   UNL d   1      24.543 -16.490  -0.962  0.00  0.00     0.038 A 
ENDBRANCH  24  25
ENDBRANCH  23  24
ENDBRANCH   4  23
TORSDOF 12
ENDMDL
MODEL 7
REMARK VINA RESULT:    -7.027      3.600      8.236
REMARK INTER + INTRA:         -13.887
REMARK INTER:                 -10.607
REMARK INTRA:                  -3.280
REMARK CONF_INDEPENDENT:        3.580
REMARK UNBOUND:                -3.280
REMARK  12 active torsions:
REMARK  status: ('A' for Active; 'I' for Inactive)
REMARK    1  A    between atoms: C_2  and  C_4 
REMARK    2  A    between atoms: C_4  and  C_5 
REMARK    3  A    between atoms: C_5  and  C_6 
REMARK    4  A    between atoms: C_6  and  C_7 
REMARK    5  A    between atoms: C_7  and  N_9 
REMARK       I    between atoms: N_9  and  C_10 
REMARK    6  A    between atoms: C_10  and  C_12 
REMARK    7  A    between atoms: C_12  and  C_13 
REMARK    8  A    between atoms: C_14  and  C_13 
REMARK    9  A    between atoms: C_16  and  O_17 
REMARK   10  A    between atoms: N_18  and  C_19 
REMARK   11  A    between atoms: C_19  and  C_20 
REMARK   12  A    between atoms: C_20  and  C_21 
ROOT
ATOM      1  C   UNL d   1      28.822 -14.046  -5.499  0.00  0.00     0.205 C 
ATOM      2  N   UNL d   1      28.031 -15.248  -5.891  0.00  0.00    -0.236 NA
ATOM      3  C   UNL d   1      26.908 -15.038  -5.291  0.00  0.00     0.244 C 
ATOM      4  N   UNL d   1      26.762 -13.959  -4.511  0.00  0.00    -0.280 N 
ATOM      5  C   UNL d   1      28.011 -13.444  -4.377  0.00  0.00     0.252 C 
ATOM      6  O   UNL d   1      28.427 -12.644  -3.550  0.00  0.00    -0.271 OA
ENDROOT
BRANCH   1   7
ATOM      7  C   UNL d   1      28.929 -13.046  -6.659  0.00  0.00     0.046 C 
BRANCH   7   8
ATOM      8  C   UNL d   1      30.048 -13.330  -7.682  0.00  0.00     0.105 C 
BRANCH   8   9
ATOM      9  C   UNL d   1      30.973 -14.411  -7.167  0.00  0.00     0.217 C 
ATOM     10  N   UNL d   1      30.457 -15.692  -7.204  0.00  0.00    -0.357 N 
ATOM     11  H   UNL d   1      29.495 -15.847  -7.481  0.00  0.00     0.162 HD
ATOM     12  O   UNL d   1      32.104 -14.160  -6.761  0.00  0.00    -0.274 OA
BRANCH  10  13
ATOM     13  C   UNL d   1      31.273 -16.826  -6.774  0.00  0.00     0.080 C 
ATOM     14  C   UNL d   1      32.094 -17.366  -7.953  0.00  0.00     0.032 C 
BRANCH  13  15
ATOM     15  C   UNL d   1      30.405 -17.942  -6.161  0.00  0.00     0.024 C 
BRANCH  15  16
ATOM     16  C   UNL d   1      30.513 -17.946  -4.638  0.00  0.00     0.002 C 
BRANCH  16  17
ATOM     17  C   UNL d   1      30.988 -16.615  -4.077  0.00  0.00     0.004 C 
BRANCH  17  18
ATOM     18  C   UNL d   1      29.959 -16.030  -3.095  0.00  0.00    -0.023 C 
ATOM     19  C   UNL d   1      29.617 -17.076  -2.038  0.00  0.00     0.009 C 
ATOM     20  C   UNL d   1      30.474 -14.760  -2.410  0.00  0.00     0.009 C 
ENDBRANCH  17  18
ENDBRANCH  16  17
ENDBRANCH  15  16
ENDBRANCH  13  15
ENDBRANCH  10  13
ENDBRANCH   8   9
ENDBRANCH   7   8
ENDBRANCH   1   7
BRANCH   3  21
ATOM     21  O   UNL d   1      25.883 -15.878  -5.438  0.00  0.00    -0.331 OA
ATOM     22  H   UNL d   1      25.091 -15.340  -5.620  0.00  0.00     0.221 HD
ENDBRANCH   3  21
BRANCH   4  23
ATOM     23  C   UNL d   1      25.523 -13.407  -3.968  0.00  0.00     0.140 C 
BRANCH  23  24
ATOM     24  C   UNL d   1      24.697 -14.402  -3.149  0.00  0.00     0.061 C 
BRANCH  24  25
ATOM     25  C   UNL d   1      25.449 -15.145  -2.094  0.00  0.00    -0.029 A 
ATOM     26  C   UNL d   1      26.741 -14.913  -1.663  0.00  0.00     0.096 A 
ATOM     27  N   UNL d   1      27.081 -15.899  -0.775  0.00  0.00    -0.365 N 
ATOM     28  C   UNL d   1      26.026 -16.759  -0.591  0.00  0.00     0.043 A 
ATOM     29  H   UNL d   1      27.980 -15.988  -0.321  0.00  0.00     0.165 HD
ATOM     30  C   UNL d   1      25.926 -17.903   0.210  0.00  0.00     0.032 A 
ATOM     31  C   UNL d   1      24.976 -16.295  -1.381  0.00  0.00    -0.000 A 
ATOM     32  C   UNL d   1      24.697 -18.573   0.230  0.00  0.00     0.026 A 
ATOM     33  C   UNL d   1      23.626 -18.115  -0.530  0.00  0.00     0.035 A 
ATOM     34 CL   UNL d   1      22.114 -18.938  -0.446  0.00  0.00    -0.084 Cl
ATOM     35  C   UNL d   1      23.750 -16.994  -1.355  0.00  0.00     0.038 A 
ENDBRANCH  24  25
ENDBRANCH  23  24
ENDBRANCH   4  23
TORSDOF 12
ENDMDL
MODEL 8
REMARK VINA RESULT:    -6.944      3.657      7.928
REMARK INTER + INTRA:         -13.951
REMARK INTER:                 -10.524
REMARK INTRA:                  -3.427
REMARK CONF_INDEPENDENT:        3.580
REMARK UNBOUND:                -3.427
REMARK  12 active torsions:
REMARK  status: ('A' for Active; 'I' for Inactive)
REMARK    1  A    between atoms: C_2  and  C_4 
REMARK    2  A    between atoms: C_4  and  C_5 
REMARK    3  A    between atoms: C_5  and  C_6 
REMARK    4  A    between atoms: C_6  and  C_7 
REMARK    5  A    between atoms: C_7  and  N_9 
REMARK       I    between atoms: N_9  and  C_10 
REMARK    6  A    between atoms: C_10  and  C_12 
REMARK    7  A    between atoms: C_12  and  C_13 
REMARK    8  A    between atoms: C_14  and  C_13 
REMARK    9  A    between atoms: C_16  and  O_17 
REMARK   10  A    between atoms: N_18  and  C_19 
REMARK   11  A    between atoms: C_19  and  C_20 
REMARK   12  A    between atoms: C_20  and  C_21 
ROOT
ATOM      1  C   UNL d   1      28.106 -15.273  -5.514  0.00  0.00     0.205 C 
ATOM      2  N   UNL d   1      26.633 -15.396  -5.721  0.00  0.00    -0.236 NA
ATOM      3  C   UNL d   1      26.166 -14.655  -4.774  0.00  0.00     0.244 C 
ATOM      4  N   UNL d   1      27.007 -14.075  -3.907  0.00  0.00    -0.280 N 
ATOM      5  C   UNL d   1      28.216 -14.645  -4.146  0.00  0.00     0.252 C 
ATOM      6  O   UNL d   1      29.214 -14.653  -3.439  0.00  0.00    -0.271 OA
ENDROOT
BRANCH   1   7
ATOM      7  C   UNL d   1      28.741 -14.351  -6.564  0.00  0.00     0.046 C 
BRANCH   7   8
ATOM      8  C   UNL d   1      30.281 -14.384  -6.636  0.00  0.00     0.105 C 
BRANCH   8   9
ATOM      9  C   UNL d   1      30.780 -15.813  -6.624  0.00  0.00     0.217 C 
ATOM     10  N   UNL d   1      30.769 -16.429  -5.387  0.00  0.00    -0.357 N 
ATOM     11  H   UNL d   1      30.521 -15.903  -4.558  0.00  0.00     0.162 HD
ATOM     12  O   UNL d   1      31.153 -16.379  -7.647  0.00  0.00    -0.274 OA
BRANCH  10  13
ATOM     13  C   UNL d   1      31.187 -17.823  -5.257  0.00  0.00     0.080 C 
ATOM     14  C   UNL d   1      30.408 -18.704  -6.243  0.00  0.00     0.032 C 
BRANCH  13  15
ATOM     15  C   UNL d   1      31.005 -18.332  -3.814  0.00  0.00     0.024 C 
BRANCH  15  16
ATOM     16  C   UNL d   1      30.025 -17.451  -3.043  0.00  0.00     0.002 C 
BRANCH  16  17
ATOM     17  C   UNL d   1      30.180 -17.574  -1.536  0.00  0.00     0.004 C 
BRANCH  17  18
ATOM     18  C   UNL d   1      31.421 -16.811  -1.042  0.00  0.00    -0.023 C 
ATOM     19  C   UNL d   1      31.433 -15.414  -1.655  0.00  0.00     0.009 C 
ATOM     20  C   UNL d   1      31.458 -16.700   0.485  0.00  0.00     0.009 C 
ENDBRANCH  17  18
ENDBRANCH  16  17
ENDBRANCH  15  16
ENDBRANCH  13  15
ENDBRANCH  10  13
ENDBRANCH   8   9
ENDBRANCH   7   8
ENDBRANCH   1   7
BRANCH   3  21
ATOM     21  O   UNL d   1      24.855 -14.449  -4.646  0.00  0.00    -0.331 OA
ATOM     22  H   UNL d   1      24.592 -13.815  -5.336  0.00  0.00     0.221 HD
ENDBRANCH   3  21
BRANCH   4  23
ATOM     23  C   UNL d   1      26.713 -13.011  -2.949  0.00  0.00     0.140 C 
BRANCH  23  24
ATOM     24  C   UNL d   1      25.909 -13.468  -1.729  0.00  0.00     0.061 C 
BRANCH  24  25
ATOM     25  C   UNL d   1      26.474 -14.636  -0.989  0.00  0.00    -0.029 A 
ATOM     26  C   UNL d   1      27.747 -14.766  -0.471  0.00  0.00     0.096 A 
ATOM     27  N   UNL d   1      27.886 -16.038   0.015  0.00  0.00    -0.365 N 
ATOM     28  C   UNL d   1      26.716 -16.741  -0.146  0.00  0.00     0.043 A 
ATOM     29  H   UNL d   1      28.728 -16.414   0.430  0.00  0.00     0.165 HD
ATOM     30  C   UNL d   1      26.406 -18.063   0.192  0.00  0.00     0.032 A 
ATOM     31  C   UNL d   1      25.800 -15.878  -0.746  0.00  0.00    -0.000 A 
ATOM     32  C   UNL d   1      25.102 -18.506  -0.060  0.00  0.00     0.026 A 
ATOM     33  C   UNL d   1      24.161 -17.656  -0.634  0.00  0.00     0.035 A 
ATOM     34 CL   UNL d   1      22.552 -18.220  -0.887  0.00  0.00    -0.084 Cl
ATOM     35  C   UNL d   1      24.495 -16.350  -1.001  0.00  0.00     0.038 A 
ENDBRANCH  24  25
ENDBRANCH  23  24
ENDBRANCH   4  23
TORSDOF 12
ENDMDL
MODEL 9
REMARK VINA RESULT:    -5.962      3.404      7.189
REMARK INTER + INTRA:         -14.072
REMARK INTER:                  -9.541
REMARK INTRA:                  -4.531
REMARK CONF_INDEPENDENT:        3.580
REMARK UNBOUND:                -4.531
REMARK  12 active torsions:
REMARK  status: ('A' for Active; 'I' for Inactive)
REMARK    1  A    between atoms: C_2  and  C_4 
REMARK    2  A    between atoms: C_4  and  C_5 
REMARK    3  A    between atoms: C_5  and  C_6 
REMARK    4  A    between atoms: C_6  and  C_7 
REMARK    5  A    between atoms: C_7  and  N_9 
REMARK       I    between atoms: N_9  and  C_10 
REMARK    6  A    between atoms: C_10  and  C_12 
REMARK    7  A    between atoms: C_12  and  C_13 
REMARK    8  A    between atoms: C_14  and  C_13 
REMARK    9  A    between atoms: C_16  and  O_17 
REMARK   10  A    between atoms: N_18  and  C_19 
REMARK   11  A    between atoms: C_19  and  C_20 
REMARK   12  A    between atoms: C_20  and  C_21 
ROOT
ATOM      1  C   UNL d   1      28.528 -14.948  -5.228  0.00  0.00     0.205 C 
ATOM      2  N   UNL d   1      29.035 -13.575  -4.939  0.00  0.00    -0.236 NA
ATOM      3  C   UNL d   1      27.983 -12.994  -4.469  0.00  0.00     0.244 C 
ATOM      4  N   UNL d   1      26.823 -13.660  -4.415  0.00  0.00    -0.280 N 
ATOM      5  C   UNL d   1      27.028 -14.795  -5.131  0.00  0.00     0.252 C 
ATOM      6  O   UNL d   1      26.204 -15.568  -5.599  0.00  0.00    -0.271 OA
ENDROOT
BRANCH   1   7
ATOM      7  C   UNL d   1      29.017 -15.956  -4.178  0.00  0.00     0.046 C 
BRANCH   7   8
ATOM      8  C   UNL d   1      30.224 -15.502  -3.331  0.00  0.00     0.105 C 
BRANCH   8   9
ATOM      9  C   UNL d   1      29.761 -14.982  -1.988  0.00  0.00     0.217 C 
ATOM     10  N   UNL d   1      29.318 -13.673  -1.986  0.00  0.00    -0.357 N 
ATOM     11  H   UNL d   1      29.393 -13.108  -2.823  0.00  0.00     0.162 HD
ATOM     12  O   UNL d   1      29.771 -15.684  -0.981  0.00  0.00    -0.274 OA
BRANCH  10  13
ATOM     13  C   UNL d   1      28.805 -13.073  -0.756  0.00  0.00     0.080 C 
ATOM     14  C   UNL d   1      28.172 -11.707  -1.056  0.00  0.00     0.032 C 
BRANCH  13  15
ATOM     15  C   UNL d   1      29.912 -12.936   0.306  0.00  0.00     0.024 C 
BRANCH  15  16
ATOM     16  C   UNL d   1      29.841 -14.075   1.321  0.00  0.00     0.002 C 
BRANCH  16  17
ATOM     17  C   UNL d   1      28.414 -14.458   1.679  0.00  0.00     0.004 C 
BRANCH  17  18
ATOM     18  C   UNL d   1      27.710 -13.322   2.439  0.00  0.00    -0.023 C 
ATOM     19  C   UNL d   1      26.410 -12.966   1.725  0.00  0.00     0.009 C 
ATOM     20  C   UNL d   1      27.407 -13.702   3.892  0.00  0.00     0.009 C 
ENDBRANCH  17  18
ENDBRANCH  16  17
ENDBRANCH  15  16
ENDBRANCH  13  15
ENDBRANCH  10  13
ENDBRANCH   8   9
ENDBRANCH   7   8
ENDBRANCH   1   7
BRANCH   3  21
ATOM     21  O   UNL d   1      28.033 -11.737  -4.026  0.00  0.00    -0.331 OA
ATOM     22  H   UNL d   1      27.598 -11.177  -4.694  0.00  0.00     0.221 HD
ENDBRANCH   3  21
BRANCH   4  23
ATOM     23  C   UNL d   1      25.608 -13.288  -3.692  0.00  0.00     0.140 C 
BRANCH  23  24
ATOM     24  C   UNL d   1      24.797 -14.478  -3.172  0.00  0.00     0.061 C 
BRANCH  24  25
ATOM     25  C   UNL d   1      25.449 -15.276  -2.091  0.00  0.00    -0.029 A 
ATOM     26  C   UNL d   1      26.749 -15.170  -1.637  0.00  0.00     0.096 A 
ATOM     27  N   UNL d   1      26.971 -16.171  -0.730  0.00  0.00    -0.365 N 
ATOM     28  C   UNL d   1      25.830 -16.917  -0.555  0.00  0.00     0.043 A 
ATOM     29  H   UNL d   1      27.847 -16.344  -0.257  0.00  0.00     0.165 HD
ATOM     30  C   UNL d   1      25.599 -18.032   0.259  0.00  0.00     0.032 A 
ATOM     31  C   UNL d   1      24.848 -16.361  -1.373  0.00  0.00    -0.000 A 
ATOM     32  C   UNL d   1      24.308 -18.573   0.264  0.00  0.00     0.026 A 
ATOM     33  C   UNL d   1      23.303 -18.021  -0.524  0.00  0.00     0.035 A 
ATOM     34 CL   UNL d   1      21.714 -18.684  -0.460  0.00  0.00    -0.084 Cl
ATOM     35  C   UNL d   1      23.557 -16.931  -1.361  0.00  0.00     0.038 A 
ENDBRANCH  24  25
ENDBRANCH  23  24
ENDBRANCH   4  23
TORSDOF 12
ENDMDL
