MODEL 1
REMARK VINA RESULT:    -7.089      0.000      0.000
REMARK INTER + INTRA:         -10.276
REMARK INTER:                  -8.581
REMARK INTRA:                  -1.695
REMARK CONF_INDEPENDENT:        1.492
REMARK UNBOUND:                -1.695
REMARK  5 active torsions:
REMARK  status: ('A' for Active; 'I' for Inactive)
REMARK    1  A    between atoms: O_2  and  C_3 
REMARK    2  A    between atoms: C_5  and  C_6 
REMARK       I    between atoms: C_6  and  N_8 
REMARK    3  A    between atoms: N_8  and  C_9 
REMARK    4  A    between atoms: C_21  and  N_22 
REMARK    5  A    between atoms: C_26  and  O_27 
ROOT
ATOM      1  C   UNL d   1      25.283 -14.159  -3.082  0.00  0.00     0.258 C 
ATOM      2  O   UNL d   1      24.705 -14.446  -4.124  0.00  0.00    -0.267 OA
ATOM      3  N   UNL d   1      26.014 -12.993  -2.950  0.00  0.00    -0.323 N 
ATOM      4  H   UNL d   1      26.578 -12.853  -2.122  0.00  0.00     0.169 HD
ENDROOT
BRANCH   1   5
ATOM      5  C   UNL d   1      25.315 -15.194  -1.956  0.00  0.00     0.068 C 
ATOM      6  C   UNL d   1      24.300 -16.206  -2.015  0.00  0.00     0.059 C 
ATOM      7  C   UNL d   1      24.278 -17.373  -1.196  0.00  0.00     0.102 C 
ATOM      8  C   UNL d   1      25.337 -17.536  -0.290  0.00  0.00     0.103 C 
ATOM      9  C   UNL d   1      26.284 -16.506  -0.156  0.00  0.00     0.076 C 
ATOM     10  C   UNL d   1      26.258 -15.329  -0.928  0.00  0.00     0.121 C 
BRANCH   7  11
ATOM     11  O   UNL d   1      23.338 -18.303  -1.590  0.00  0.00    -0.353 OA
ATOM     12  C   UNL d   1      22.401 -18.861  -0.661  0.00  0.00     0.210 C 
ENDBRANCH   7  11
BRANCH   8  13
ATOM     13  O   UNL d   1      25.705 -18.576   0.524  0.00  0.00    -0.353 OA
ATOM     14  C   UNL d   1      27.029 -18.569   0.978  0.00  0.00     0.210 C 
ENDBRANCH   8  13
BRANCH  10  15
ATOM     15  N   UNL d   1      27.186 -14.277  -0.492  0.00  0.00    -0.115 N 
ATOM     16  O   UNL d   1      28.151 -14.004  -1.209  0.00  0.00    -0.532 OA
ATOM     17  O   UNL d   1      26.950 -13.695   0.575  0.00  0.00    -0.532 OA
ENDBRANCH  10  15
ENDBRANCH   1   5
BRANCH   3  18
ATOM     18  C   UNL d   1      25.993 -11.845  -3.778  0.00  0.00     0.037 C 
ATOM     19  C   UNL d   1      26.649 -12.017  -4.997  0.00  0.00     0.030 C 
ATOM     20  C   UNL d   1      26.743 -10.952  -5.875  0.00  0.00     0.016 C 
ATOM     21  C   UNL d   1      26.131  -9.721  -5.587  0.00  0.00    -0.006 C 
ATOM     22  C   UNL d   1      25.985  -8.676  -6.609  0.00  0.00    -0.057 C 
ATOM     23  C   UNL d   1      25.558  -9.478  -4.322  0.00  0.00     0.047 C 
ATOM     24  C   UNL d   1      26.549  -8.810  -7.974  0.00  0.00     0.045 C 
ATOM     25  C   UNL d   1      25.025  -7.750  -6.429  0.00  0.00     0.124 C 
ATOM     26  C   UNL d   1      25.059  -7.163  -5.074  0.00  0.00     0.231 C 
ATOM     27  O   UNL d   1      24.818  -5.952  -4.973  0.00  0.00    -0.272 OA
ATOM     28  N   UNL d   1      25.114  -8.121  -4.065  0.00  0.00    -0.326 N 
ATOM     29  H   UNL d   1      24.780  -7.822  -3.160  0.00  0.00     0.169 HD
ATOM     30  C   UNL d   1      25.475 -10.568  -3.420  0.00  0.00     0.060 C 
ENDBRANCH   3  18
TORSDOF 5
ENDMDL
MODEL 2
REMARK VINA RESULT:    -7.082      3.449      9.091
REMARK INTER + INTRA:         -10.122
REMARK INTER:                  -8.573
REMARK INTRA:                  -1.549
REMARK CONF_INDEPENDENT:        1.492
REMARK UNBOUND:                -1.549
REMARK  5 active torsions:
REMARK  status: ('A' for Active; 'I' for Inactive)
REMARK    1  A    between atoms: O_2  and  C_3 
REMARK    2  A    between atoms: C_5  and  C_6 
REMARK       I    between atoms: C_6  and  N_8 
REMARK    3  A    between atoms: N_8  and  C_9 
REMARK    4  A    between atoms: C_21  and  N_22 
REMARK    5  A    between atoms: C_26  and  O_27 
ROOT
ATOM      1  C   UNL d   1      27.369 -14.451  -5.313  0.00  0.00     0.258 C 
ATOM      2  O   UNL d   1      27.242 -15.575  -5.784  0.00  0.00    -0.267 OA
ATOM      3  N   UNL d   1      26.784 -14.092  -4.113  0.00  0.00    -0.323 N 
ATOM      4  H   UNL d   1      26.806 -13.123  -3.821  0.00  0.00     0.169 HD
ENDROOT
BRANCH   1   5
ATOM      5  C   UNL d   1      28.068 -13.382  -6.154  0.00  0.00     0.068 C 
ATOM      6  C   UNL d   1      29.395 -13.707  -6.592  0.00  0.00     0.059 C 
ATOM      7  C   UNL d   1      30.134 -12.953  -7.551  0.00  0.00     0.102 C 
ATOM      8  C   UNL d   1      29.499 -11.833  -8.108  0.00  0.00     0.103 C 
ATOM      9  C   UNL d   1      28.238 -11.450  -7.617  0.00  0.00     0.076 C 
ATOM     10  C   UNL d   1      27.547 -12.169  -6.624  0.00  0.00     0.121 C 
BRANCH   7  11
ATOM     11  O   UNL d   1      31.285 -13.584  -7.976  0.00  0.00    -0.353 OA
ATOM     12  C   UNL d   1      31.554 -14.953  -7.650  0.00  0.00     0.210 C 
ENDBRANCH   7  11
BRANCH   8  13
ATOM     13  O   UNL d   1      29.843 -10.990  -9.133  0.00  0.00    -0.353 OA
ATOM     14  C   UNL d   1      30.456 -11.582 -10.243  0.00  0.00     0.210 C 
ENDBRANCH   8  13
BRANCH  10  15
ATOM     15  N   UNL d   1      26.358 -11.495  -6.081  0.00  0.00    -0.115 N 
ATOM     16  O   UNL d   1      25.505 -11.078  -6.867  0.00  0.00    -0.532 OA
ATOM     17  O   UNL d   1      26.257 -11.389  -4.852  0.00  0.00    -0.532 OA
ENDBRANCH  10  15
ENDBRANCH   1   5
BRANCH   3  18
ATOM     18  C   UNL d   1      26.244 -14.935  -3.112  0.00  0.00     0.037 C 
ATOM     19  C   UNL d   1      24.860 -14.836  -2.978  0.00  0.00     0.030 C 
ATOM     20  C   UNL d   1      24.216 -15.571  -1.998  0.00  0.00     0.016 C 
ATOM     21  C   UNL d   1      24.927 -16.466  -1.183  0.00  0.00    -0.006 C 
ATOM     22  C   UNL d   1      24.237 -17.447  -0.334  0.00  0.00    -0.057 C 
ATOM     23  C   UNL d   1      26.336 -16.511  -1.215  0.00  0.00     0.047 C 
ATOM     24  C   UNL d   1      22.760 -17.498  -0.210  0.00  0.00     0.045 C 
ATOM     25  C   UNL d   1      24.924 -18.539   0.051  0.00  0.00     0.124 C 
ATOM     26  C   UNL d   1      26.251 -18.202   0.602  0.00  0.00     0.231 C 
ATOM     27  O   UNL d   1      26.650 -18.867   1.570  0.00  0.00    -0.272 OA
ATOM     28  N   UNL d   1      26.978 -17.337  -0.212  0.00  0.00    -0.326 N 
ATOM     29  H   UNL d   1      27.981 -17.360  -0.088  0.00  0.00     0.169 HD
ATOM     30  C   UNL d   1      26.992 -15.745  -2.211  0.00  0.00     0.060 C 
ENDBRANCH   3  18
TORSDOF 5
ENDMDL
MODEL 3
REMARK VINA RESULT:    -7.078      2.659      9.010
REMARK INTER + INTRA:         -10.203
REMARK INTER:                  -8.570
REMARK INTRA:                  -1.633
REMARK CONF_INDEPENDENT:        1.492
REMARK UNBOUND:                -1.633
REMARK  5 active torsions:
REMARK  status: ('A' for Active; 'I' for Inactive)
REMARK    1  A    between atoms: O_2  and  C_3 
REMARK    2  A    between atoms: C_5  and  C_6 
REMARK       I    between atoms: C_6  and  N_8 
REMARK    3  A    between atoms: N_8  and  C_9 
REMARK    4  A    between atoms: C_21  and  N_22 
REMARK    5  A    between atoms: C_26  and  O_27 
ROOT
ATOM      1  C   UNL d   1      26.157 -13.356  -4.272  0.00  0.00     0.258 C 
ATOM      2  O   UNL d   1      25.253 -12.875  -3.599  0.00  0.00    -0.267 OA
ATOM      3  N   UNL d   1      26.822 -14.504  -3.886  0.00  0.00    -0.323 N 
ATOM      4  H   UNL d   1      27.643 -14.799  -4.400  0.00  0.00     0.169 HD
ENDROOT
BRANCH   1   5
ATOM      5  C   UNL d   1      26.654 -12.576  -5.490  0.00  0.00     0.068 C 
ATOM      6  C   UNL d   1      25.982 -11.336  -5.750  0.00  0.00     0.059 C 
ATOM      7  C   UNL d   1      26.422 -10.364  -6.695  0.00  0.00     0.102 C 
ATOM      8  C   UNL d   1      27.604 -10.646  -7.396  0.00  0.00     0.103 C 
ATOM      9  C   UNL d   1      28.218 -11.898  -7.220  0.00  0.00     0.076 C 
ATOM     10  C   UNL d   1      27.736 -12.875  -6.329  0.00  0.00     0.121 C 
BRANCH   7  11
ATOM     11  O   UNL d   1      25.747  -9.164  -6.604  0.00  0.00    -0.353 OA
ATOM     12  C   UNL d   1      24.793  -8.918  -5.564  0.00  0.00     0.210 C 
ENDBRANCH   7  11
BRANCH   8  13
ATOM     13  O   UNL d   1      28.375  -9.897  -8.248  0.00  0.00    -0.353 OA
ATOM     14  C   UNL d   1      29.181 -10.610  -9.143  0.00  0.00     0.210 C 
ENDBRANCH   8  13
BRANCH  10  15
ATOM     15  N   UNL d   1      28.372 -14.195  -6.448  0.00  0.00    -0.115 N 
ATOM     16  O   UNL d   1      29.587 -14.251  -6.646  0.00  0.00    -0.532 OA
ATOM     17  O   UNL d   1      27.658 -15.200  -6.328  0.00  0.00    -0.532 OA
ENDBRANCH  10  15
ENDBRANCH   1   5
BRANCH   3  18
ATOM     18  C   UNL d   1      26.439 -15.457  -2.911  0.00  0.00     0.037 C 
ATOM     19  C   UNL d   1      27.483 -15.873  -2.087  0.00  0.00     0.030 C 
ATOM     20  C   UNL d   1      27.249 -16.840  -1.126  0.00  0.00     0.016 C 
ATOM     21  C   UNL d   1      25.960 -17.359  -0.923  0.00  0.00    -0.006 C 
ATOM     22  C   UNL d   1      25.635 -18.173   0.256  0.00  0.00    -0.057 C 
ATOM     23  C   UNL d   1      24.907 -17.045  -1.806  0.00  0.00     0.047 C 
ATOM     24  C   UNL d   1      26.655 -18.575   1.255  0.00  0.00     0.045 C 
ATOM     25  C   UNL d   1      24.345 -18.250   0.632  0.00  0.00     0.124 C 
ATOM     26  C   UNL d   1      23.450 -18.575  -0.498  0.00  0.00     0.231 C 
ATOM     27  O   UNL d   1      22.500 -19.336  -0.270  0.00  0.00    -0.272 OA
ATOM     28  N   UNL d   1      23.666 -17.771  -1.615  0.00  0.00    -0.326 N 
ATOM     29  H   UNL d   1      22.886 -17.691  -2.252  0.00  0.00     0.169 HD
ATOM     30  C   UNL d   1      25.155 -16.064  -2.798  0.00  0.00     0.060 C 
ENDBRANCH   3  18
TORSDOF 5
ENDMDL
MODEL 4
REMARK VINA RESULT:    -6.859      5.254      8.981
REMARK INTER + INTRA:          -9.912
REMARK INTER:                  -8.351
REMARK INTRA:                  -1.561
REMARK CONF_INDEPENDENT:        1.492
REMARK UNBOUND:                -1.561
REMARK  5 active torsions:
REMARK  status: ('A' for Active; 'I' for Inactive)
REMARK    1  A    between atoms: O_2  and  C_3 
REMARK    2  A    between atoms: C_5  and  C_6 
REMARK       I    between atoms: C_6  and  N_8 
REMARK    3  A    between atoms: N_8  and  C_9 
REMARK    4  A    between atoms: C_21  and  N_22 
REMARK    5  A    between atoms: C_26  and  O_27 
ROOT
ATOM      1  C   UNL d   1      27.252 -14.468   1.246  0.00  0.00     0.258 C 
ATOM      2  O   UNL d   1      27.729 -15.500   1.704  0.00  0.00    -0.267 OA
ATOM      3  N   UNL d   1      26.992 -13.368   2.041  0.00  0.00    -0.323 N 
ATOM      4  H   UNL d   1      26.483 -12.584   1.653  0.00  0.00     0.169 HD
ENDROOT
BRANCH   1   5
ATOM      5  C   UNL d   1      26.798 -14.459  -0.215  0.00  0.00     0.068 C 
ATOM      6  C   UNL d   1      26.275 -15.700  -0.710  0.00  0.00     0.059 C 
ATOM      7  C   UNL d   1      25.608 -15.851  -1.961  0.00  0.00     0.102 C 
ATOM      8  C   UNL d   1      25.445 -14.696  -2.740  0.00  0.00     0.103 C 
ATOM      9  C   UNL d   1      26.036 -13.495  -2.310  0.00  0.00     0.076 C 
ATOM     10  C   UNL d   1      26.747 -13.375  -1.101  0.00  0.00     0.121 C 
BRANCH   7  11
ATOM     11  O   UNL d   1      24.999 -17.079  -2.114  0.00  0.00    -0.353 OA
ATOM     12  C   UNL d   1      24.104 -17.600  -1.124  0.00  0.00     0.210 C 
ENDBRANCH   7  11
BRANCH   8  13
ATOM     13  O   UNL d   1      24.746 -14.450  -3.894  0.00  0.00    -0.353 OA
ATOM     14  C   UNL d   1      25.155 -13.339  -4.642  0.00  0.00     0.210 C 
ENDBRANCH   8  13
BRANCH  10  15
ATOM     15  N   UNL d   1      27.481 -12.112  -0.933  0.00  0.00    -0.115 N 
ATOM     16  O   UNL d   1      28.301 -11.786  -1.793  0.00  0.00    -0.532 OA
ATOM     17  O   UNL d   1      27.231 -11.419   0.062  0.00  0.00    -0.532 OA
ENDBRANCH  10  15
ENDBRANCH   1   5
BRANCH   3  18
ATOM     18  C   UNL d   1      27.464 -13.098   3.348  0.00  0.00     0.037 C 
ATOM     19  C   UNL d   1      27.793 -11.760   3.564  0.00  0.00     0.030 C 
ATOM     20  C   UNL d   1      28.316 -11.376   4.787  0.00  0.00     0.016 C 
ATOM     21  C   UNL d   1      28.455 -12.300   5.835  0.00  0.00    -0.006 C 
ATOM     22  C   UNL d   1      28.745 -11.867   7.209  0.00  0.00    -0.057 C 
ATOM     23  C   UNL d   1      28.238 -13.676   5.620  0.00  0.00     0.047 C 
ATOM     24  C   UNL d   1      28.998 -10.449   7.563  0.00  0.00     0.045 C 
ATOM     25  C   UNL d   1      28.421 -12.702   8.213  0.00  0.00     0.124 C 
ATOM     26  C   UNL d   1      28.906 -14.077   7.978  0.00  0.00     0.231 C 
ATOM     27  O   UNL d   1      29.331 -14.705   8.959  0.00  0.00    -0.272 OA
ATOM     28  N   UNL d   1      28.581 -14.563   6.714  0.00  0.00    -0.326 N 
ATOM     29  H   UNL d   1      28.555 -15.569   6.626  0.00  0.00     0.169 HD
ATOM     30  C   UNL d   1      27.716 -14.068   4.361  0.00  0.00     0.060 C 
ENDBRANCH   3  18
TORSDOF 5
ENDMDL
MODEL 5
REMARK VINA RESULT:    -6.761      2.765      9.058
REMARK INTER + INTRA:          -9.910
REMARK INTER:                  -8.252
REMARK INTRA:                  -1.657
REMARK CONF_INDEPENDENT:        1.492
REMARK UNBOUND:                -1.657
REMARK  5 active torsions:
REMARK  status: ('A' for Active; 'I' for Inactive)
REMARK    1  A    between atoms: O_2  and  C_3 
REMARK    2  A    between atoms: C_5  and  C_6 
REMARK       I    between atoms: C_6  and  N_8 
REMARK    3  A    between atoms: N_8  and  C_9 
REMARK    4  A    between atoms: C_21  and  N_22 
REMARK    5  A    between atoms: C_26  and  O_27 
ROOT
ATOM      1  C   UNL d   1      26.459 -12.995  -4.515  0.00  0.00     0.258 C 
ATOM      2  O   UNL d   1      25.802 -12.275  -3.772  0.00  0.00    -0.267 OA
ATOM      3  N   UNL d   1      26.801 -14.287  -4.163  0.00  0.00    -0.323 N 
ATOM      4  H   UNL d   1      27.448 -14.805  -4.745  0.00  0.00     0.169 HD
ENDROOT
BRANCH   1   5
ATOM      5  C   UNL d   1      27.036 -12.389  -5.795  0.00  0.00     0.068 C 
ATOM      6  C   UNL d   1      26.487 -11.123  -6.185  0.00  0.00     0.059 C 
ATOM      7  C   UNL d   1      27.025 -10.295  -7.214  0.00  0.00     0.102 C 
ATOM      8  C   UNL d   1      28.179 -10.755  -7.865  0.00  0.00     0.103 C 
ATOM      9  C   UNL d   1      28.669 -12.037  -7.559  0.00  0.00     0.076 C 
ATOM     10  C   UNL d   1      28.090 -12.871  -6.583  0.00  0.00     0.121 C 
BRANCH   7  11
ATOM     11  O   UNL d   1      26.467  -9.034  -7.251  0.00  0.00    -0.353 OA
ATOM     12  C   UNL d   1      25.390  -8.665  -6.382  0.00  0.00     0.210 C 
ENDBRANCH   7  11
BRANCH   8  13
ATOM     13  O   UNL d   1      29.024 -10.170  -8.773  0.00  0.00    -0.353 OA
ATOM     14  C   UNL d   1      30.062 -10.974  -9.260  0.00  0.00     0.210 C 
ENDBRANCH   8  13
BRANCH  10  15
ATOM     15  N   UNL d   1      28.597 -14.251  -6.564  0.00  0.00    -0.115 N 
ATOM     16  O   UNL d   1      27.785 -15.178  -6.517  0.00  0.00    -0.532 OA
ATOM     17  O   UNL d   1      29.821 -14.424  -6.612  0.00  0.00    -0.532 OA
ENDBRANCH  10  15
ENDBRANCH   1   5
BRANCH   3  18
ATOM     18  C   UNL d   1      26.258 -15.090  -3.131  0.00  0.00     0.037 C 
ATOM     19  C   UNL d   1      24.873 -14.992  -3.009  0.00  0.00     0.030 C 
ATOM     20  C   UNL d   1      24.227 -15.689  -2.003  0.00  0.00     0.016 C 
ATOM     21  C   UNL d   1      24.937 -16.546  -1.147  0.00  0.00    -0.006 C 
ATOM     22  C   UNL d   1      24.248 -17.494  -0.261  0.00  0.00    -0.057 C 
ATOM     23  C   UNL d   1      26.346 -16.585  -1.169  0.00  0.00     0.047 C 
ATOM     24  C   UNL d   1      22.770 -17.547  -0.144  0.00  0.00     0.045 C 
ATOM     25  C   UNL d   1      24.937 -18.566   0.173  0.00  0.00     0.124 C 
ATOM     26  C   UNL d   1      26.260 -18.199   0.717  0.00  0.00     0.231 C 
ATOM     27  O   UNL d   1      26.656 -18.820   1.714  0.00  0.00    -0.272 OA
ATOM     28  N   UNL d   1      26.987 -17.365  -0.128  0.00  0.00    -0.326 N 
ATOM     29  H   UNL d   1      27.989 -17.378   0.002  0.00  0.00     0.169 HD
ATOM     30  C   UNL d   1      27.005 -15.858  -2.193  0.00  0.00     0.060 C 
ENDBRANCH   3  18
TORSDOF 5
ENDMDL
MODEL 6
REMARK VINA RESULT:    -6.739      2.304      2.903
REMARK INTER + INTRA:          -9.977
REMARK INTER:                  -8.230
REMARK INTRA:                  -1.746
REMARK CONF_INDEPENDENT:        1.492
REMARK UNBOUND:                -1.746
REMARK  5 active torsions:
REMARK  status: ('A' for Active; 'I' for Inactive)
REMARK    1  A    between atoms: O_2  and  C_3 
REMARK    2  A    between atoms: C_5  and  C_6 
REMARK       I    between atoms: C_6  and  N_8 
REMARK    3  A    between atoms: N_8  and  C_9 
REMARK    4  A    between atoms: C_21  and  N_22 
REMARK    5  A    between atoms: C_26  and  O_27 
ROOT
ATOM      1  C   UNL d   1      25.830 -14.847  -3.907  0.00  0.00     0.258 C 
ATOM      2  O   UNL d   1      24.781 -14.693  -4.522  0.00  0.00    -0.267 OA
ATOM      3  N   UNL d   1      27.051 -14.482  -4.443  0.00  0.00    -0.323 N 
ATOM      4  H   UNL d   1      27.902 -14.740  -3.960  0.00  0.00     0.169 HD
ENDROOT
BRANCH   1   5
ATOM      5  C   UNL d   1      25.792 -15.599  -2.575  0.00  0.00     0.068 C 
ATOM      6  C   UNL d   1      24.487 -15.811  -2.020  0.00  0.00     0.059 C 
ATOM      7  C   UNL d   1      24.213 -16.663  -0.910  0.00  0.00     0.102 C 
ATOM      8  C   UNL d   1      25.301 -17.347  -0.347  0.00  0.00     0.103 C 
ATOM      9  C   UNL d   1      26.596 -17.074  -0.821  0.00  0.00     0.076 C 
ATOM     10  C   UNL d   1      26.858 -16.181  -1.877  0.00  0.00     0.121 C 
BRANCH   7  11
ATOM     11  O   UNL d   1      22.866 -16.882  -0.705  0.00  0.00    -0.353 OA
ATOM     12  C   UNL d   1      22.353 -18.189  -0.421  0.00  0.00     0.210 C 
ENDBRANCH   7  11
BRANCH   8  13
ATOM     13  O   UNL d   1      25.382 -18.330   0.606  0.00  0.00    -0.353 OA
ATOM     14  C   UNL d   1      26.655 -18.575   1.135  0.00  0.00     0.210 C 
ENDBRANCH   8  13
BRANCH  10  15
ATOM     15  N   UNL d   1      28.277 -15.854  -2.079  0.00  0.00    -0.115 N 
ATOM     16  O   UNL d   1      29.052 -16.756  -2.405  0.00  0.00    -0.532 OA
ATOM     17  O   UNL d   1      28.633 -14.678  -1.927  0.00  0.00    -0.532 OA
ENDBRANCH  10  15
ENDBRANCH   1   5
BRANCH   3  18
ATOM     18  C   UNL d   1      27.307 -13.646  -5.557  0.00  0.00     0.037 C 
ATOM     19  C   UNL d   1      28.262 -14.154  -6.436  0.00  0.00     0.030 C 
ATOM     20  C   UNL d   1      28.639 -13.407  -7.537  0.00  0.00     0.016 C 
ATOM     21  C   UNL d   1      28.024 -12.177  -7.821  0.00  0.00    -0.006 C 
ATOM     22  C   UNL d   1      28.208 -11.505  -9.115  0.00  0.00    -0.057 C 
ATOM     23  C   UNL d   1      27.137 -11.583  -6.901  0.00  0.00     0.047 C 
ATOM     24  C   UNL d   1      29.118 -12.026 -10.164  0.00  0.00     0.045 C 
ATOM     25  C   UNL d   1      27.276 -10.613  -9.498  0.00  0.00     0.124 C 
ATOM     26  C   UNL d   1      26.962  -9.637  -8.435  0.00  0.00     0.231 C 
ATOM     27  O   UNL d   1      26.755  -8.465  -8.782  0.00  0.00    -0.272 OA
ATOM     28  N   UNL d   1      26.698 -10.235  -7.205  0.00  0.00    -0.326 N 
ATOM     29  H   UNL d   1      26.142  -9.687  -6.563  0.00  0.00     0.169 HD
ATOM     30  C   UNL d   1      26.765 -12.345  -5.765  0.00  0.00     0.060 C 
ENDBRANCH   3  18
TORSDOF 5
ENDMDL
MODEL 7
REMARK VINA RESULT:    -6.692      2.871      9.094
REMARK INTER + INTRA:          -9.862
REMARK INTER:                  -8.184
REMARK INTRA:                  -1.678
REMARK CONF_INDEPENDENT:        1.492
REMARK UNBOUND:                -1.678
REMARK  5 active torsions:
REMARK  status: ('A' for Active; 'I' for Inactive)
REMARK    1  A    between atoms: O_2  and  C_3 
REMARK    2  A    between atoms: C_5  and  C_6 
REMARK       I    between atoms: C_6  and  N_8 
REMARK    3  A    between atoms: N_8  and  C_9 
REMARK    4  A    between atoms: C_21  and  N_22 
REMARK    5  A    between atoms: C_26  and  O_27 
ROOT
ATOM      1  C   UNL d   1      27.010 -14.134  -5.105  0.00  0.00     0.258 C 
ATOM      2  O   UNL d   1      27.033 -15.200  -5.709  0.00  0.00    -0.267 OA
ATOM      3  N   UNL d   1      26.513 -14.035  -3.819  0.00  0.00    -0.323 N 
ATOM      4  H   UNL d   1      26.395 -13.120  -3.402  0.00  0.00     0.169 HD
ENDROOT
BRANCH   1   5
ATOM      5  C   UNL d   1      27.406 -12.862  -5.855  0.00  0.00     0.068 C 
ATOM      6  C   UNL d   1      28.155 -13.061  -7.062  0.00  0.00     0.059 C 
ATOM      7  C   UNL d   1      28.437 -12.036  -8.013  0.00  0.00     0.102 C 
ATOM      8  C   UNL d   1      27.925 -10.758  -7.743  0.00  0.00     0.103 C 
ATOM      9  C   UNL d   1      27.273 -10.529  -6.519  0.00  0.00     0.076 C 
ATOM     10  C   UNL d   1      27.057 -11.537  -5.560  0.00  0.00     0.121 C 
BRANCH   7  11
ATOM     11  O   UNL d   1      28.970 -12.513  -9.192  0.00  0.00    -0.353 OA
ATOM     12  C   UNL d   1      30.310 -12.200  -9.590  0.00  0.00     0.210 C 
ENDBRANCH   7  11
BRANCH   8  13
ATOM     13  O   UNL d   1      27.878  -9.605  -8.485  0.00  0.00    -0.353 OA
ATOM     14  C   UNL d   1      27.141  -9.664  -9.674  0.00  0.00     0.210 C 
ENDBRANCH   8  13
BRANCH  10  15
ATOM     15  N   UNL d   1      26.567 -11.063  -4.258  0.00  0.00    -0.115 N 
ATOM     16  O   UNL d   1      25.524 -10.407  -4.221  0.00  0.00    -0.532 OA
ATOM     17  O   UNL d   1      27.217 -11.358  -3.247  0.00  0.00    -0.532 OA
ENDBRANCH  10  15
ENDBRANCH   1   5
BRANCH   3  18
ATOM     18  C   UNL d   1      26.250 -15.075  -2.895  0.00  0.00     0.037 C 
ATOM     19  C   UNL d   1      27.387 -15.553  -2.244  0.00  0.00     0.030 C 
ATOM     20  C   UNL d   1      27.270 -16.605  -1.354  0.00  0.00     0.016 C 
ATOM     21  C   UNL d   1      26.015 -17.154  -1.045  0.00  0.00    -0.006 C 
ATOM     22  C   UNL d   1      25.835 -18.075   0.086  0.00  0.00    -0.057 C 
ATOM     23  C   UNL d   1      24.863 -16.774  -1.763  0.00  0.00     0.047 C 
ATOM     24  C   UNL d   1      26.968 -18.554   0.914  0.00  0.00     0.045 C 
ATOM     25  C   UNL d   1      24.600 -18.200   0.605  0.00  0.00     0.124 C 
ATOM     26  C   UNL d   1      23.575 -18.431  -0.434  0.00  0.00     0.231 C 
ATOM     27  O   UNL d   1      22.659 -19.220  -0.163  0.00  0.00    -0.272 OA
ATOM     28  N   UNL d   1      23.655 -17.527  -1.490  0.00  0.00    -0.326 N 
ATOM     29  H   UNL d   1      22.803 -17.398  -2.020  0.00  0.00     0.169 HD
ATOM     30  C   UNL d   1      24.990 -15.704  -2.685  0.00  0.00     0.060 C 
ENDBRANCH   3  18
TORSDOF 5
ENDMDL
MODEL 8
REMARK VINA RESULT:    -6.671      7.656     11.910
REMARK INTER + INTRA:          -9.734
REMARK INTER:                  -8.163
REMARK INTRA:                  -1.572
REMARK CONF_INDEPENDENT:        1.492
REMARK UNBOUND:                -1.572
REMARK  5 active torsions:
REMARK  status: ('A' for Active; 'I' for Inactive)
REMARK    1  A    between atoms: O_2  and  C_3 
REMARK    2  A    between atoms: C_5  and  C_6 
REMARK       I    between atoms: C_6  and  N_8 
REMARK    3  A    between atoms: N_8  and  C_9 
REMARK    4  A    between atoms: C_21  and  N_22 
REMARK    5  A    between atoms: C_26  and  O_27 
ROOT
ATOM      1  C   UNL d   1      27.749 -13.638   4.725  0.00  0.00     0.258 C 
ATOM      2  O   UNL d   1      27.373 -14.762   5.038  0.00  0.00    -0.267 OA
ATOM      3  N   UNL d   1      28.132 -12.707   5.672  0.00  0.00    -0.323 N 
ATOM      4  H   UNL d   1      28.314 -11.754   5.385  0.00  0.00     0.169 HD
ENDROOT
BRANCH   1   5
ATOM      5  C   UNL d   1      27.646 -13.216   3.258  0.00  0.00     0.068 C 
ATOM      6  C   UNL d   1      28.001 -14.221   2.297  0.00  0.00     0.059 C 
ATOM      7  C   UNL d   1      27.775 -14.107   0.894  0.00  0.00     0.102 C 
ATOM      8  C   UNL d   1      27.147 -12.938   0.442  0.00  0.00     0.103 C 
ATOM      9  C   UNL d   1      26.882 -11.907   1.360  0.00  0.00     0.076 C 
ATOM     10  C   UNL d   1      27.168 -12.008   2.735  0.00  0.00     0.121 C 
BRANCH   7  11
ATOM     11  O   UNL d   1      27.989 -15.284   0.207  0.00  0.00    -0.353 OA
ATOM     12  C   UNL d   1      27.393 -16.517   0.628  0.00  0.00     0.210 C 
ENDBRANCH   7  11
BRANCH   8  13
ATOM     13  O   UNL d   1      26.657 -12.566  -0.784  0.00  0.00    -0.353 OA
ATOM     14  C   UNL d   1      26.493 -13.592  -1.723  0.00  0.00     0.210 C 
ENDBRANCH   8  13
BRANCH  10  15
ATOM     15  N   UNL d   1      27.034 -10.755   3.492  0.00  0.00    -0.115 N 
ATOM     16  O   UNL d   1      27.884 -10.484   4.343  0.00  0.00    -0.532 OA
ATOM     17  O   UNL d   1      26.078 -10.013   3.231  0.00  0.00    -0.532 OA
ENDBRANCH  10  15
ENDBRANCH   1   5
BRANCH   3  18
ATOM     18  C   UNL d   1      28.451 -12.920   7.035  0.00  0.00     0.037 C 
ATOM     19  C   UNL d   1      28.156 -11.836   7.860  0.00  0.00     0.030 C 
ATOM     20  C   UNL d   1      28.469 -11.899   9.206  0.00  0.00     0.016 C 
ATOM     21  C   UNL d   1      29.016 -13.064   9.766  0.00  0.00    -0.006 C 
ATOM     22  C   UNL d   1      29.101 -13.253  11.221  0.00  0.00    -0.057 C 
ATOM     23  C   UNL d   1      29.429 -14.136   8.947  0.00  0.00     0.047 C 
ATOM     24  C   UNL d   1      28.703 -12.200  12.187  0.00  0.00     0.045 C 
ATOM     25  C   UNL d   1      29.193 -14.512  11.688  0.00  0.00     0.124 C 
ATOM     26  C   UNL d   1      30.235 -15.294  10.992  0.00  0.00     0.231 C 
ATOM     27  O   UNL d   1      30.906 -16.081  11.675  0.00  0.00    -0.272 OA
ATOM     28  N   UNL d   1      30.143 -15.212   9.605  0.00  0.00    -0.326 N 
ATOM     29  H   UNL d   1      30.565 -15.976   9.094  0.00  0.00     0.169 HD
ATOM     30  C   UNL d   1      29.119 -14.061   7.566  0.00  0.00     0.060 C 
ENDBRANCH   3  18
TORSDOF 5
ENDMDL
MODEL 9
REMARK VINA RESULT:    -6.579      1.554      2.085
REMARK INTER + INTRA:          -9.778
REMARK INTER:                  -8.070
REMARK INTRA:                  -1.708
REMARK CONF_INDEPENDENT:        1.492
REMARK UNBOUND:                -1.708
REMARK  5 active torsions:
REMARK  status: ('A' for Active; 'I' for Inactive)
REMARK    1  A    between atoms: O_2  and  C_3 
REMARK    2  A    between atoms: C_5  and  C_6 
REMARK       I    between atoms: C_6  and  N_8 
REMARK    3  A    between atoms: N_8  and  C_9 
REMARK    4  A    between atoms: C_21  and  N_22 
REMARK    5  A    between atoms: C_26  and  O_27 
ROOT
ATOM      1  C   UNL d   1      25.354 -14.341  -3.182  0.00  0.00     0.258 C 
ATOM      2  O   UNL d   1      24.810 -14.719  -4.213  0.00  0.00    -0.267 OA
ATOM      3  N   UNL d   1      26.077 -13.164  -3.128  0.00  0.00    -0.323 N 
ATOM      4  H   UNL d   1      26.614 -12.950  -2.297  0.00  0.00     0.169 HD
ENDROOT
BRANCH   1   5
ATOM      5  C   UNL d   1      25.351 -15.275  -1.971  0.00  0.00     0.068 C 
ATOM      6  C   UNL d   1      24.404 -16.351  -2.019  0.00  0.00     0.059 C 
ATOM      7  C   UNL d   1      24.382 -17.445  -1.105  0.00  0.00     0.102 C 
ATOM      8  C   UNL d   1      25.369 -17.464  -0.109  0.00  0.00     0.103 C 
ATOM      9  C   UNL d   1      26.241 -16.368   0.007  0.00  0.00     0.076 C 
ATOM     10  C   UNL d   1      26.212 -15.263  -0.865  0.00  0.00     0.121 C 
BRANCH   7  11
ATOM     11  O   UNL d   1      23.533 -18.463  -1.488  0.00  0.00    -0.353 OA
ATOM     12  C   UNL d   1      22.446 -18.885  -0.656  0.00  0.00     0.210 C 
ENDBRANCH   7  11
BRANCH   8  13
ATOM     13  O   UNL d   1      25.728 -18.408   0.820  0.00  0.00    -0.353 OA
ATOM     14  C   UNL d   1      27.031 -18.911   0.720  0.00  0.00     0.210 C 
ENDBRANCH   8  13
BRANCH  10  15
ATOM     15  N   UNL d   1      27.039 -14.120  -0.451  0.00  0.00    -0.115 N 
ATOM     16  O   UNL d   1      28.086 -13.897  -1.061  0.00  0.00    -0.532 OA
ATOM     17  O   UNL d   1      26.638 -13.418   0.486  0.00  0.00    -0.532 OA
ENDBRANCH  10  15
ENDBRANCH   1   5
BRANCH   3  18
ATOM     18  C   UNL d   1      26.081 -12.092  -4.053  0.00  0.00     0.037 C 
ATOM     19  C   UNL d   1      25.619 -10.888  -3.523  0.00  0.00     0.030 C 
ATOM     20  C   UNL d   1      25.526  -9.776  -4.340  0.00  0.00     0.016 C 
ATOM     21  C   UNL d   1      25.954  -9.823  -5.676  0.00  0.00    -0.006 C 
ATOM     22  C   UNL d   1      26.120  -8.601  -6.475  0.00  0.00    -0.057 C 
ATOM     23  C   UNL d   1      26.321 -11.045  -6.275  0.00  0.00     0.047 C 
ATOM     24  C   UNL d   1      25.764  -7.256  -5.961  0.00  0.00     0.045 C 
ATOM     25  C   UNL d   1      26.938  -8.653  -7.543  0.00  0.00     0.124 C 
ATOM     26  C   UNL d   1      26.658  -9.817  -8.408  0.00  0.00     0.231 C 
ATOM     27  O   UNL d   1      26.747  -9.650  -9.633  0.00  0.00    -0.272 OA
ATOM     28  N   UNL d   1      26.574 -11.015  -7.702  0.00  0.00    -0.326 N 
ATOM     29  H   UNL d   1      26.747 -11.852  -8.241  0.00  0.00     0.169 HD
ATOM     30  C   UNL d   1      26.402 -12.186  -5.437  0.00  0.00     0.060 C 
ENDBRANCH   3  18
TORSDOF 5
ENDMDL
