MODEL 1
REMARK VINA RESULT:    -8.733      0.000      0.000
REMARK INTER + INTRA:         -14.322
REMARK INTER:                 -11.716
REMARK INTRA:                  -2.605
REMARK CONF_INDEPENDENT:        2.983
REMARK UNBOUND:                -2.605
REMARK  10 active torsions:
REMARK  status: ('A' for Active; 'I' for Inactive)
REMARK    1  A    between atoms: C_5  and  N_6 
REMARK       I    between atoms: N_6  and  C_7 
REMARK    2  A    between atoms: C_7  and  C_9 
REMARK    3  A    between atoms: C_9  and  C_10 
REMARK    4  A    between atoms: C_10  and  C_11 
REMARK       I    between atoms: C_11  and  N_13 
REMARK    5  A    between atoms: N_13  and  N_14 
REMARK    6  A    between atoms: N_14  and  C_15 
REMARK    7  A    between atoms: C_15  and  N_17 
REMARK       I    between atoms: N_17  and  C_18 
REMARK    8  A    between atoms: C_18  and  C_20 
REMARK    9  A    between atoms: C_20  and  O_21 
REMARK   10  A    between atoms: O_21  and  C_22 
ROOT
ATOM      1  C   UNL d   1      26.882 -16.932  -0.359  0.00  0.00     0.236 C 
ATOM      2  O   UNL d   1      26.934 -15.871  -0.987  0.00  0.00    -0.272 OA
ATOM      3  N   UNL d   1      28.028 -17.585   0.068  0.00  0.00    -0.268 N 
ATOM      4  H   UNL d   1      28.005 -18.467   0.587  0.00  0.00     0.190 HD
ENDROOT
BRANCH   3   5
ATOM      5  N   UNL d   1      29.366 -17.058  -0.201  0.00  0.00    -0.273 N 
ATOM      6  H   UNL d   1      29.757 -16.504   0.559  0.00  0.00     0.189 HD
BRANCH   5   7
ATOM      7  C   UNL d   1      29.966 -17.337  -1.443  0.00  0.00     0.193 C 
ATOM      8  S   UNL d   1      31.330 -18.335  -1.483  0.00  0.00    -0.039 SA
BRANCH   7   9
ATOM      9  N   UNL d   1      29.358 -16.749  -2.580  0.00  0.00    -0.301 N 
ATOM     10  C   UNL d   1      29.890 -16.754  -3.899  0.00  0.00     0.248 C 
ATOM     11  O   UNL d   1      30.973 -17.264  -4.190  0.00  0.00    -0.271 OA
ATOM     12  H   UNL d   1      28.478 -16.269  -2.442  0.00  0.00     0.171 HD
BRANCH  10  13
ATOM     13  C   UNL d   1      29.107 -16.025  -5.015  0.00  0.00     0.278 C 
BRANCH  13  14
ATOM     14  O   UNL d   1      27.770 -15.734  -4.551  0.00  0.00    -0.342 OA
BRANCH  14  15
ATOM     15  C   UNL d   1      27.215 -14.495  -4.751  0.00  0.00     0.075 A 
ATOM     16  C   UNL d   1      27.970 -13.616  -5.553  0.00  0.00     0.039 A 
ATOM     17  C   UNL d   1      27.538 -12.305  -5.808  0.00  0.00     0.022 A 
ATOM     18  C   UNL d   1      26.362 -11.851  -5.226  0.00  0.00     0.011 A 
ATOM     19 BR   UNL d   1      25.741 -10.095  -5.556  0.00  0.00    -0.051 Br
ATOM     20  C   UNL d   1      25.633 -12.688  -4.387  0.00  0.00     0.028 A 
ATOM     21  C   UNL d   1      26.051 -14.012  -4.135  0.00  0.00    -0.027 A 
ATOM     22  C   UNL d   1      25.232 -14.821  -3.181  0.00  0.00     0.051 C 
ENDBRANCH  14  15
ENDBRANCH  13  14
ENDBRANCH  10  13
ENDBRANCH   7   9
ENDBRANCH   5   7
ENDBRANCH   3   5
BRANCH   1  23
ATOM     23  C   UNL d   1      25.555 -17.611  -0.003  0.00  0.00     0.114 C 
BRANCH  23  24
ATOM     24  C   UNL d   1      24.351 -17.109  -0.856  0.00  0.00     0.112 C 
BRANCH  24  25
ATOM     25  C   UNL d   1      23.223 -18.133  -0.836  0.00  0.00     0.222 C 
ATOM     26  N   UNL d   1      22.237 -17.989   0.143  0.00  0.00    -0.327 N 
ATOM     27  H   UNL d   1      22.298 -17.210   0.790  0.00  0.00     0.169 HD
ATOM     28  O   UNL d   1      23.250 -19.028  -1.689  0.00  0.00    -0.273 OA
BRANCH  26  29
ATOM     29  C   UNL d   1      21.103 -18.857   0.291  0.00  0.00     0.035 A 
ATOM     30  C   UNL d   1      20.346 -19.261  -0.809  0.00  0.00     0.030 A 
ATOM     31  C   UNL d   1      19.219 -20.068  -0.688  0.00  0.00     0.009 A 
ATOM     32  C   UNL d   1      18.805 -20.528   0.556  0.00  0.00    -0.056 A 
ATOM     33  C   UNL d   1      17.568 -21.379   0.617  0.00  0.00     0.049 C 
ATOM     34  C   UNL d   1      19.561 -20.179   1.694  0.00  0.00    -0.054 A 
ATOM     35  C   UNL d   1      20.703 -19.338   1.553  0.00  0.00     0.037 A 
ATOM     36  C   UNL d   1      19.152 -20.706   3.045  0.00  0.00     0.049 C 
ENDBRANCH  26  29
ENDBRANCH  24  25
ENDBRANCH  23  24
ENDBRANCH   1  23
TORSDOF 10
ENDMDL
MODEL 2
REMARK VINA RESULT:    -8.380      4.106      9.333
REMARK INTER + INTRA:         -14.840
REMARK INTER:                 -11.363
REMARK INTRA:                  -3.477
REMARK CONF_INDEPENDENT:        2.983
REMARK UNBOUND:                -3.477
REMARK  10 active torsions:
REMARK  status: ('A' for Active; 'I' for Inactive)
REMARK    1  A    between atoms: C_5  and  N_6 
REMARK       I    between atoms: N_6  and  C_7 
REMARK    2  A    between atoms: C_7  and  C_9 
REMARK    3  A    between atoms: C_9  and  C_10 
REMARK    4  A    between atoms: C_10  and  C_11 
REMARK       I    between atoms: C_11  and  N_13 
REMARK    5  A    between atoms: N_13  and  N_14 
REMARK    6  A    between atoms: N_14  and  C_15 
REMARK    7  A    between atoms: C_15  and  N_17 
REMARK       I    between atoms: N_17  and  C_18 
REMARK    8  A    between atoms: C_18  and  C_20 
REMARK    9  A    between atoms: C_20  and  O_21 
REMARK   10  A    between atoms: O_21  and  C_22 
ROOT
ATOM      1  C   UNL d   1      27.049 -11.826  -6.621  0.00  0.00     0.236 C 
ATOM      2  O   UNL d   1      26.735 -10.633  -6.642  0.00  0.00    -0.272 OA
ATOM      3  N   UNL d   1      26.585 -12.687  -5.640  0.00  0.00    -0.268 N 
ATOM      4  H   UNL d   1      26.837 -13.679  -5.604  0.00  0.00     0.190 HD
ENDROOT
BRANCH   3   5
ATOM      5  N   UNL d   1      25.698 -12.234  -4.569  0.00  0.00    -0.273 N 
ATOM      6  H   UNL d   1      24.780 -11.927  -4.889  0.00  0.00     0.189 HD
BRANCH   5   7
ATOM      7  C   UNL d   1      26.173 -12.246  -3.244  0.00  0.00     0.193 C 
ATOM      8  S   UNL d   1      26.737 -10.804  -2.567  0.00  0.00    -0.039 SA
BRANCH   7   9
ATOM      9  N   UNL d   1      26.132 -13.495  -2.574  0.00  0.00    -0.301 N 
ATOM     10  C   UNL d   1      26.834 -14.668  -2.965  0.00  0.00     0.248 C 
ATOM     11  O   UNL d   1      27.552 -14.725  -3.965  0.00  0.00    -0.271 OA
ATOM     12  H   UNL d   1      25.539 -13.565  -1.757  0.00  0.00     0.171 HD
BRANCH  10  13
ATOM     13  C   UNL d   1      26.639 -15.958  -2.136  0.00  0.00     0.278 C 
BRANCH  13  14
ATOM     14  O   UNL d   1      25.669 -15.715  -1.093  0.00  0.00    -0.342 OA
BRANCH  14  15
ATOM     15  C   UNL d   1      24.659 -16.613  -0.853  0.00  0.00     0.075 A 
ATOM     16  C   UNL d   1      23.358 -16.147  -1.129  0.00  0.00     0.039 A 
ATOM     17  C   UNL d   1      22.231 -16.949  -0.895  0.00  0.00     0.022 A 
ATOM     18  C   UNL d   1      22.396 -18.212  -0.342  0.00  0.00     0.011 A 
ATOM     19 BR   UNL d   1      20.901 -19.325  -0.023  0.00  0.00    -0.051 Br
ATOM     20  C   UNL d   1      23.669 -18.664  -0.012  0.00  0.00     0.028 A 
ATOM     21  C   UNL d   1      24.811 -17.872  -0.257  0.00  0.00    -0.027 A 
ATOM     22  C   UNL d   1      26.133 -18.421   0.177  0.00  0.00     0.051 C 
ENDBRANCH  14  15
ENDBRANCH  13  14
ENDBRANCH  10  13
ENDBRANCH   7   9
ENDBRANCH   5   7
ENDBRANCH   3   5
BRANCH   1  23
ATOM     23  C   UNL d   1      27.974 -12.449  -7.672  0.00  0.00     0.114 C 
BRANCH  23  24
ATOM     24  C   UNL d   1      29.313 -12.989  -7.082  0.00  0.00     0.112 C 
BRANCH  24  25
ATOM     25  C   UNL d   1      29.177 -14.462  -6.719  0.00  0.00     0.222 C 
ATOM     26  N   UNL d   1      30.350 -15.219  -6.642  0.00  0.00    -0.327 N 
ATOM     27  H   UNL d   1      31.239 -14.764  -6.815  0.00  0.00     0.169 HD
ATOM     28  O   UNL d   1      28.038 -14.896  -6.514  0.00  0.00    -0.273 OA
BRANCH  26  29
ATOM     29  C   UNL d   1      30.398 -16.612  -6.300  0.00  0.00     0.035 A 
ATOM     30  C   UNL d   1      30.070 -17.061  -5.020  0.00  0.00     0.030 A 
ATOM     31  C   UNL d   1      30.148 -18.400  -4.653  0.00  0.00     0.009 A 
ATOM     32  C   UNL d   1      30.547 -19.366  -5.568  0.00  0.00    -0.056 A 
ATOM     33  C   UNL d   1      30.630 -20.792  -5.099  0.00  0.00     0.049 C 
ATOM     34  C   UNL d   1      30.852 -18.967  -6.885  0.00  0.00    -0.054 A 
ATOM     35  C   UNL d   1      30.782 -17.588  -7.240  0.00  0.00     0.037 A 
ATOM     36  C   UNL d   1      31.243 -20.007  -7.903  0.00  0.00     0.049 C 
ENDBRANCH  26  29
ENDBRANCH  24  25
ENDBRANCH  23  24
ENDBRANCH   1  23
TORSDOF 10
ENDMDL
MODEL 3
REMARK VINA RESULT:    -7.599      5.478      8.080
REMARK INTER + INTRA:         -14.157
REMARK INTER:                 -10.582
REMARK INTRA:                  -3.574
REMARK CONF_INDEPENDENT:        2.983
REMARK UNBOUND:                -3.574
REMARK  10 active torsions:
REMARK  status: ('A' for Active; 'I' for Inactive)
REMARK    1  A    between atoms: C_5  and  N_6 
REMARK       I    between atoms: N_6  and  C_7 
REMARK    2  A    between atoms: C_7  and  C_9 
REMARK    3  A    between atoms: C_9  and  C_10 
REMARK    4  A    between atoms: C_10  and  C_11 
REMARK       I    between atoms: C_11  and  N_13 
REMARK    5  A    between atoms: N_13  and  N_14 
REMARK    6  A    between atoms: N_14  and  C_15 
REMARK    7  A    between atoms: C_15  and  N_17 
REMARK       I    between atoms: N_17  and  C_18 
REMARK    8  A    between atoms: C_18  and  C_20 
REMARK    9  A    between atoms: C_20  and  O_21 
REMARK   10  A    between atoms: O_21  and  C_22 
ROOT
ATOM      1  C   UNL d   1      26.004 -11.227  -3.982  0.00  0.00     0.236 C 
ATOM      2  O   UNL d   1      26.596 -11.443  -2.921  0.00  0.00    -0.272 OA
ATOM      3  N   UNL d   1      25.272 -10.068  -4.188  0.00  0.00    -0.268 N 
ATOM      4  H   UNL d   1      24.772  -9.873  -5.060  0.00  0.00     0.190 HD
ENDROOT
BRANCH   3   5
ATOM      5  N   UNL d   1      25.154  -9.034  -3.160  0.00  0.00    -0.273 N 
ATOM      6  H   UNL d   1      24.209  -8.676  -3.035  0.00  0.00     0.189 HD
BRANCH   5   7
ATOM      7  C   UNL d   1      26.313  -8.628  -2.472  0.00  0.00     0.193 C 
ATOM      8  S   UNL d   1      27.322  -7.474  -3.184  0.00  0.00    -0.039 SA
BRANCH   7   9
ATOM      9  N   UNL d   1      26.535  -9.231  -1.208  0.00  0.00    -0.301 N 
ATOM     10  C   UNL d   1      26.302  -8.619   0.054  0.00  0.00     0.248 C 
ATOM     11  O   UNL d   1      25.893  -7.463   0.180  0.00  0.00    -0.271 OA
ATOM     12  H   UNL d   1      26.908 -10.172  -1.200  0.00  0.00     0.171 HD
BRANCH  10  13
ATOM     13  C   UNL d   1      26.641  -9.414   1.336  0.00  0.00     0.278 C 
BRANCH  13  14
ATOM     14  O   UNL d   1      26.995 -10.769   0.980  0.00  0.00    -0.342 OA
BRANCH  14  15
ATOM     15  C   UNL d   1      27.252 -11.703   1.952  0.00  0.00     0.075 A 
ATOM     16  C   UNL d   1      27.805 -11.197   3.145  0.00  0.00     0.039 A 
ATOM     17  C   UNL d   1      28.151 -12.046   4.207  0.00  0.00     0.022 A 
ATOM     18  C   UNL d   1      27.982 -13.417   4.066  0.00  0.00     0.011 A 
ATOM     19 BR   UNL d   1      28.426 -14.592   5.480  0.00  0.00    -0.051 Br
ATOM     20  C   UNL d   1      27.489 -13.937   2.873  0.00  0.00     0.028 A 
ATOM     21  C   UNL d   1      27.125 -13.091   1.804  0.00  0.00    -0.027 A 
ATOM     22  C   UNL d   1      26.651 -13.742   0.544  0.00  0.00     0.051 C 
ENDBRANCH  14  15
ENDBRANCH  13  14
ENDBRANCH  10  13
ENDBRANCH   7   9
ENDBRANCH   5   7
ENDBRANCH   3   5
BRANCH   1  23
ATOM     23  C   UNL d   1      26.030 -12.217  -5.153  0.00  0.00     0.114 C 
BRANCH  23  24
ATOM     24  C   UNL d   1      27.135 -13.308  -5.021  0.00  0.00     0.112 C 
BRANCH  24  25
ATOM     25  C   UNL d   1      26.583 -14.539  -4.313  0.00  0.00     0.222 C 
ATOM     26  N   UNL d   1      26.311 -14.430  -2.946  0.00  0.00    -0.327 N 
ATOM     27  H   UNL d   1      26.476 -13.543  -2.482  0.00  0.00     0.169 HD
ATOM     28  O   UNL d   1      26.409 -15.557  -4.991  0.00  0.00    -0.273 OA
BRANCH  26  29
ATOM     29  C   UNL d   1      25.778 -15.488  -2.136  0.00  0.00     0.035 A 
ATOM     30  C   UNL d   1      24.405 -15.723  -2.057  0.00  0.00     0.030 A 
ATOM     31  C   UNL d   1      23.860 -16.715  -1.247  0.00  0.00     0.009 A 
ATOM     32  C   UNL d   1      24.678 -17.538  -0.483  0.00  0.00    -0.056 A 
ATOM     33  C   UNL d   1      24.023 -18.575   0.385  0.00  0.00     0.049 C 
ATOM     34  C   UNL d   1      26.075 -17.364  -0.559  0.00  0.00    -0.054 A 
ATOM     35  C   UNL d   1      26.615 -16.332  -1.382  0.00  0.00     0.037 A 
ATOM     36  C   UNL d   1      26.979 -18.277   0.227  0.00  0.00     0.049 C 
ENDBRANCH  26  29
ENDBRANCH  24  25
ENDBRANCH  23  24
ENDBRANCH   1  23
TORSDOF 10
ENDMDL
MODEL 4
REMARK VINA RESULT:    -7.165      3.773      7.397
REMARK INTER + INTRA:         -14.374
REMARK INTER:                 -10.148
REMARK INTRA:                  -4.226
REMARK CONF_INDEPENDENT:        2.983
REMARK UNBOUND:                -4.226
REMARK  10 active torsions:
REMARK  status: ('A' for Active; 'I' for Inactive)
REMARK    1  A    between atoms: C_5  and  N_6 
REMARK       I    between atoms: N_6  and  C_7 
REMARK    2  A    between atoms: C_7  and  C_9 
REMARK    3  A    between atoms: C_9  and  C_10 
REMARK    4  A    between atoms: C_10  and  C_11 
REMARK       I    between atoms: C_11  and  N_13 
REMARK    5  A    between atoms: N_13  and  N_14 
REMARK    6  A    between atoms: N_14  and  C_15 
REMARK    7  A    between atoms: C_15  and  N_17 
REMARK       I    between atoms: N_17  and  C_18 
REMARK    8  A    between atoms: C_18  and  C_20 
REMARK    9  A    between atoms: C_20  and  O_21 
REMARK   10  A    between atoms: O_21  and  C_22 
ROOT
ATOM      1  C   UNL d   1      27.259 -14.448  -4.891  0.00  0.00     0.236 C 
ATOM      2  O   UNL d   1      26.800 -15.572  -5.112  0.00  0.00    -0.272 OA
ATOM      3  N   UNL d   1      28.609 -14.168  -5.035  0.00  0.00    -0.268 N 
ATOM      4  H   UNL d   1      29.008 -13.243  -4.854  0.00  0.00     0.190 HD
ENDROOT
BRANCH   3   5
ATOM      5  N   UNL d   1      29.570 -15.188  -5.453  0.00  0.00    -0.273 N 
ATOM      6  H   UNL d   1      30.113 -14.937  -6.279  0.00  0.00     0.189 HD
BRANCH   5   7
ATOM      7  C   UNL d   1      29.650 -16.386  -4.719  0.00  0.00     0.193 C 
ATOM      8  S   UNL d   1      30.457 -17.706  -5.399  0.00  0.00    -0.039 SA
BRANCH   7   9
ATOM      9  N   UNL d   1      29.038 -16.379  -3.441  0.00  0.00    -0.301 N 
ATOM     10  C   UNL d   1      29.515 -17.067  -2.291  0.00  0.00     0.248 C 
ATOM     11  O   UNL d   1      30.523 -17.775  -2.296  0.00  0.00    -0.271 OA
ATOM     12  H   UNL d   1      28.178 -15.856  -3.339  0.00  0.00     0.171 HD
BRANCH  10  13
ATOM     13  C   UNL d   1      28.694 -16.981  -0.984  0.00  0.00     0.278 C 
BRANCH  13  14
ATOM     14  O   UNL d   1      27.451 -16.291  -1.243  0.00  0.00    -0.342 OA
BRANCH  14  15
ATOM     15  C   UNL d   1      26.247 -16.906  -1.010  0.00  0.00     0.075 A 
ATOM     16  C   UNL d   1      25.174 -16.456  -1.804  0.00  0.00     0.039 A 
ATOM     17  C   UNL d   1      23.879 -16.974  -1.645  0.00  0.00     0.022 A 
ATOM     18  C   UNL d   1      23.641 -17.920  -0.658  0.00  0.00     0.011 A 
ATOM     19 BR   UNL d   1      21.912 -18.650  -0.422  0.00  0.00    -0.051 Br
ATOM     20  C   UNL d   1      24.679 -18.335   0.171  0.00  0.00     0.028 A 
ATOM     21  C   UNL d   1      25.987 -17.832   0.010  0.00  0.00    -0.027 A 
ATOM     22  C   UNL d   1      27.026 -18.298   0.980  0.00  0.00     0.051 C 
ENDBRANCH  14  15
ENDBRANCH  13  14
ENDBRANCH  10  13
ENDBRANCH   7   9
ENDBRANCH   5   7
ENDBRANCH   3   5
BRANCH   1  23
ATOM     23  C   UNL d   1      26.379 -13.275  -4.443  0.00  0.00     0.114 C 
BRANCH  23  24
ATOM     24  C   UNL d   1      25.765 -13.466  -3.022  0.00  0.00     0.112 C 
BRANCH  24  25
ATOM     25  C   UNL d   1      26.869 -13.643  -1.987  0.00  0.00     0.222 C 
ATOM     26  N   UNL d   1      26.506 -13.574  -0.639  0.00  0.00    -0.327 N 
ATOM     27  H   UNL d   1      25.532 -13.425  -0.399  0.00  0.00     0.169 HD
ATOM     28  O   UNL d   1      28.016 -13.837  -2.403  0.00  0.00    -0.273 OA
BRANCH  26  29
ATOM     29  C   UNL d   1      27.418 -13.732   0.459  0.00  0.00     0.035 A 
ATOM     30  C   UNL d   1      28.777 -13.973   0.248  0.00  0.00     0.030 A 
ATOM     31  C   UNL d   1      29.673 -14.170   1.293  0.00  0.00     0.009 A 
ATOM     32  C   UNL d   1      29.247 -14.118   2.614  0.00  0.00    -0.056 A 
ATOM     33  C   UNL d   1      30.265 -14.361   3.694  0.00  0.00     0.049 C 
ATOM     34  C   UNL d   1      27.891 -13.839   2.879  0.00  0.00    -0.054 A 
ATOM     35  C   UNL d   1      26.983 -13.655   1.796  0.00  0.00     0.037 A 
ATOM     36  C   UNL d   1      27.421 -13.734   4.307  0.00  0.00     0.049 C 
ENDBRANCH  26  29
ENDBRANCH  24  25
ENDBRANCH  23  24
ENDBRANCH   1  23
TORSDOF 10
ENDMDL
MODEL 5
REMARK VINA RESULT:    -6.983      4.092      7.243
REMARK INTER + INTRA:         -14.615
REMARK INTER:                  -9.966
REMARK INTRA:                  -4.650
REMARK CONF_INDEPENDENT:        2.983
REMARK UNBOUND:                -4.650
REMARK  10 active torsions:
REMARK  status: ('A' for Active; 'I' for Inactive)
REMARK    1  A    between atoms: C_5  and  N_6 
REMARK       I    between atoms: N_6  and  C_7 
REMARK    2  A    between atoms: C_7  and  C_9 
REMARK    3  A    between atoms: C_9  and  C_10 
REMARK    4  A    between atoms: C_10  and  C_11 
REMARK       I    between atoms: C_11  and  N_13 
REMARK    5  A    between atoms: N_13  and  N_14 
REMARK    6  A    between atoms: N_14  and  C_15 
REMARK    7  A    between atoms: C_15  and  N_17 
REMARK       I    between atoms: N_17  and  C_18 
REMARK    8  A    between atoms: C_18  and  C_20 
REMARK    9  A    between atoms: C_20  and  O_21 
REMARK   10  A    between atoms: O_21  and  C_22 
ROOT
ATOM      1  C   UNL d   1      29.916 -16.241  -4.160  0.00  0.00     0.236 C 
ATOM      2  O   UNL d   1      29.647 -17.373  -4.570  0.00  0.00    -0.272 OA
ATOM      3  N   UNL d   1      30.241 -16.002  -2.834  0.00  0.00    -0.268 N 
ATOM      4  H   UNL d   1      30.464 -15.070  -2.474  0.00  0.00     0.190 HD
ENDROOT
BRANCH   3   5
ATOM      5  N   UNL d   1      30.279 -17.075  -1.841  0.00  0.00    -0.273 N 
ATOM      6  H   UNL d   1      30.010 -17.989  -2.203  0.00  0.00     0.189 HD
BRANCH   5   7
ATOM      7  C   UNL d   1      30.653 -16.764  -0.520  0.00  0.00     0.193 C 
ATOM      8  S   UNL d   1      32.126 -17.348   0.068  0.00  0.00    -0.039 SA
BRANCH   7   9
ATOM      9  N   UNL d   1      29.745 -15.964   0.217  0.00  0.00    -0.301 N 
ATOM     10  C   UNL d   1      29.361 -14.634  -0.107  0.00  0.00     0.248 C 
ATOM     11  O   UNL d   1      29.810 -14.017  -1.075  0.00  0.00    -0.271 OA
ATOM     12  H   UNL d   1      29.346 -16.365   1.057  0.00  0.00     0.171 HD
BRANCH  10  13
ATOM     13  C   UNL d   1      28.386 -13.894   0.837  0.00  0.00     0.278 C 
BRANCH  13  14
ATOM     14  O   UNL d   1      28.042 -14.758   1.943  0.00  0.00    -0.342 OA
BRANCH  14  15
ATOM     15  C   UNL d   1      28.444 -14.453   3.219  0.00  0.00     0.075 A 
ATOM     16  C   UNL d   1      27.404 -14.204   4.138  0.00  0.00     0.039 A 
ATOM     17  C   UNL d   1      27.674 -13.845   5.467  0.00  0.00     0.022 A 
ATOM     18  C   UNL d   1      28.992 -13.694   5.877  0.00  0.00     0.011 A 
ATOM     19 BR   UNL d   1      29.395 -13.223   7.664  0.00  0.00    -0.051 Br
ATOM     20  C   UNL d   1      30.028 -13.882   4.968  0.00  0.00     0.028 A 
ATOM     21  C   UNL d   1      29.769 -14.257   3.633  0.00  0.00    -0.027 A 
ATOM     22  C   UNL d   1      30.943 -14.388   2.716  0.00  0.00     0.051 C 
ENDBRANCH  14  15
ENDBRANCH  13  14
ENDBRANCH  10  13
ENDBRANCH   7   9
ENDBRANCH   5   7
ENDBRANCH   3   5
BRANCH   1  23
ATOM     23  C   UNL d   1      29.915 -15.013  -5.078  0.00  0.00     0.114 C 
BRANCH  23  24
ATOM     24  C   UNL d   1      28.580 -14.209  -5.040  0.00  0.00     0.112 C 
BRANCH  24  25
ATOM     25  C   UNL d   1      27.487 -15.027  -4.363  0.00  0.00     0.222 C 
ATOM     26  N   UNL d   1      27.507 -15.099  -2.967  0.00  0.00    -0.327 N 
ATOM     27  H   UNL d   1      28.229 -14.600  -2.459  0.00  0.00     0.169 HD
ATOM     28  O   UNL d   1      26.652 -15.575  -5.090  0.00  0.00    -0.273 OA
BRANCH  26  29
ATOM     29  C   UNL d   1      26.546 -15.815  -2.176  0.00  0.00     0.035 A 
ATOM     30  C   UNL d   1      25.174 -15.680  -2.397  0.00  0.00     0.030 A 
ATOM     31  C   UNL d   1      24.222 -16.330  -1.618  0.00  0.00     0.009 A 
ATOM     32  C   UNL d   1      24.607 -17.169  -0.580  0.00  0.00    -0.056 A 
ATOM     33  C   UNL d   1      23.526 -17.824   0.235  0.00  0.00     0.049 C 
ATOM     34  C   UNL d   1      25.982 -17.367  -0.342  0.00  0.00    -0.054 A 
ATOM     35  C   UNL d   1      26.943 -16.681  -1.139  0.00  0.00     0.037 A 
ATOM     36  C   UNL d   1      26.416 -18.309   0.751  0.00  0.00     0.049 C 
ENDBRANCH  26  29
ENDBRANCH  24  25
ENDBRANCH  23  24
ENDBRANCH   1  23
TORSDOF 10
ENDMDL
MODEL 6
REMARK VINA RESULT:    -6.934      4.397      8.327
REMARK INTER + INTRA:         -14.446
REMARK INTER:                  -9.917
REMARK INTRA:                  -4.529
REMARK CONF_INDEPENDENT:        2.983
REMARK UNBOUND:                -4.529
REMARK  10 active torsions:
REMARK  status: ('A' for Active; 'I' for Inactive)
REMARK    1  A    between atoms: C_5  and  N_6 
REMARK       I    between atoms: N_6  and  C_7 
REMARK    2  A    between atoms: C_7  and  C_9 
REMARK    3  A    between atoms: C_9  and  C_10 
REMARK    4  A    between atoms: C_10  and  C_11 
REMARK       I    between atoms: C_11  and  N_13 
REMARK    5  A    between atoms: N_13  and  N_14 
REMARK    6  A    between atoms: N_14  and  C_15 
REMARK    7  A    between atoms: C_15  and  N_17 
REMARK       I    between atoms: N_17  and  C_18 
REMARK    8  A    between atoms: C_18  and  C_20 
REMARK    9  A    between atoms: C_20  and  O_21 
REMARK   10  A    between atoms: O_21  and  C_22 
ROOT
ATOM      1  C   UNL d   1      25.754 -14.047  -4.741  0.00  0.00     0.236 C 
ATOM      2  O   UNL d   1      24.593 -14.170  -4.343  0.00  0.00    -0.272 OA
ATOM      3  N   UNL d   1      26.443 -12.849  -4.629  0.00  0.00    -0.268 N 
ATOM      4  H   UNL d   1      27.405 -12.727  -4.955  0.00  0.00     0.190 HD
ENDROOT
BRANCH   3   5
ATOM      5  N   UNL d   1      25.834 -11.659  -4.035  0.00  0.00    -0.273 N 
ATOM      6  H   UNL d   1      25.121 -11.221  -4.616  0.00  0.00     0.189 HD
BRANCH   5   7
ATOM      7  C   UNL d   1      26.278 -11.230  -2.770  0.00  0.00     0.193 C 
ATOM      8  S   UNL d   1      26.382  -9.571  -2.463  0.00  0.00    -0.039 SA
BRANCH   7   9
ATOM      9  N   UNL d   1      26.601 -12.249  -1.839  0.00  0.00    -0.301 N 
ATOM     10  C   UNL d   1      27.633 -13.215  -1.995  0.00  0.00     0.248 C 
ATOM     11  O   UNL d   1      28.355 -13.279  -2.991  0.00  0.00    -0.271 OA
ATOM     12  H   UNL d   1      26.040 -12.308  -0.999  0.00  0.00     0.171 HD
BRANCH  10  13
ATOM     13  C   UNL d   1      27.819 -14.283  -0.893  0.00  0.00     0.278 C 
BRANCH  13  14
ATOM     14  O   UNL d   1      27.622 -15.597  -1.461  0.00  0.00    -0.342 OA
BRANCH  14  15
ATOM     15  C   UNL d   1      26.461 -16.291  -1.231  0.00  0.00     0.075 A 
ATOM     16  C   UNL d   1      25.289 -15.696  -1.740  0.00  0.00     0.039 A 
ATOM     17  C   UNL d   1      24.029 -16.281  -1.545  0.00  0.00     0.022 A 
ATOM     18  C   UNL d   1      23.928 -17.449  -0.802  0.00  0.00     0.011 A 
ATOM     19 BR   UNL d   1      22.247 -18.272  -0.528  0.00  0.00    -0.051 Br
ATOM     20  C   UNL d   1      25.068 -18.019  -0.245  0.00  0.00     0.028 A 
ATOM     21  C   UNL d   1      26.342 -17.447  -0.447  0.00  0.00    -0.027 A 
ATOM     22  C   UNL d   1      27.504 -18.102   0.231  0.00  0.00     0.051 C 
ENDBRANCH  14  15
ENDBRANCH  13  14
ENDBRANCH  10  13
ENDBRANCH   7   9
ENDBRANCH   5   7
ENDBRANCH   3   5
BRANCH   1  23
ATOM     23  C   UNL d   1      26.527 -15.201  -5.390  0.00  0.00     0.114 C 
BRANCH  23  24
ATOM     24  C   UNL d   1      27.981 -14.821  -5.805  0.00  0.00     0.112 C 
BRANCH  24  25
ATOM     25  C   UNL d   1      28.972 -15.842  -5.261  0.00  0.00     0.222 C 
ATOM     26  N   UNL d   1      29.045 -15.994  -3.873  0.00  0.00    -0.327 N 
ATOM     27  H   UNL d   1      28.435 -15.437  -3.285  0.00  0.00     0.169 HD
ATOM     28  O   UNL d   1      29.648 -16.473  -6.080  0.00  0.00    -0.273 OA
BRANCH  26  29
ATOM     29  C   UNL d   1      29.914 -16.919  -3.201  0.00  0.00     0.035 A 
ATOM     30  C   UNL d   1      30.409 -18.054  -3.845  0.00  0.00     0.030 A 
ATOM     31  C   UNL d   1      31.218 -18.986  -3.203  0.00  0.00     0.009 A 
ATOM     32  C   UNL d   1      31.587 -18.812  -1.875  0.00  0.00    -0.056 A 
ATOM     33  C   UNL d   1      32.446 -19.868  -1.238  0.00  0.00     0.049 C 
ATOM     34  C   UNL d   1      31.143 -17.662  -1.193  0.00  0.00    -0.054 A 
ATOM     35  C   UNL d   1      30.301 -16.725  -1.861  0.00  0.00     0.037 A 
ATOM     36  C   UNL d   1      31.571 -17.435   0.234  0.00  0.00     0.049 C 
ENDBRANCH  26  29
ENDBRANCH  24  25
ENDBRANCH  23  24
ENDBRANCH   1  23
TORSDOF 10
ENDMDL
MODEL 7
REMARK VINA RESULT:    -6.803      4.575      8.484
REMARK INTER + INTRA:         -14.201
REMARK INTER:                  -9.786
REMARK INTRA:                  -4.415
REMARK CONF_INDEPENDENT:        2.983
REMARK UNBOUND:                -4.415
REMARK  10 active torsions:
REMARK  status: ('A' for Active; 'I' for Inactive)
REMARK    1  A    between atoms: C_5  and  N_6 
REMARK       I    between atoms: N_6  and  C_7 
REMARK    2  A    between atoms: C_7  and  C_9 
REMARK    3  A    between atoms: C_9  and  C_10 
REMARK    4  A    between atoms: C_10  and  C_11 
REMARK       I    between atoms: C_11  and  N_13 
REMARK    5  A    between atoms: N_13  and  N_14 
REMARK    6  A    between atoms: N_14  and  C_15 
REMARK    7  A    between atoms: C_15  and  N_17 
REMARK       I    between atoms: N_17  and  C_18 
REMARK    8  A    between atoms: C_18  and  C_20 
REMARK    9  A    between atoms: C_20  and  O_21 
REMARK   10  A    between atoms: O_21  and  C_22 
ROOT
ATOM      1  C   UNL d   1      31.606 -15.066   2.000  0.00  0.00     0.236 C 
ATOM      2  O   UNL d   1      30.893 -14.339   1.303  0.00  0.00    -0.272 OA
ATOM      3  N   UNL d   1      31.560 -15.023   3.385  0.00  0.00    -0.268 N 
ATOM      4  H   UNL d   1      32.145 -15.616   3.981  0.00  0.00     0.190 HD
ENDROOT
BRANCH   3   5
ATOM      5  N   UNL d   1      30.669 -14.112   4.102  0.00  0.00    -0.273 N 
ATOM      6  H   UNL d   1      31.148 -13.460   4.721  0.00  0.00     0.189 HD
BRANCH   5   7
ATOM      7  C   UNL d   1      29.280 -14.220   3.897  0.00  0.00     0.193 C 
ATOM      8  S   UNL d   1      28.252 -14.171   5.237  0.00  0.00    -0.039 SA
BRANCH   7   9
ATOM      9  N   UNL d   1      28.854 -14.358   2.552  0.00  0.00    -0.301 N 
ATOM     10  C   UNL d   1      28.148 -13.377   1.802  0.00  0.00     0.248 C 
ATOM     11  O   UNL d   1      27.807 -12.288   2.267  0.00  0.00    -0.271 OA
ATOM     12  H   UNL d   1      29.053 -15.235   2.088  0.00  0.00     0.171 HD
BRANCH  10  13
ATOM     13  C   UNL d   1      27.726 -13.715   0.354  0.00  0.00     0.278 C 
BRANCH  13  14
ATOM     14  O   UNL d   1      27.865 -15.136   0.134  0.00  0.00    -0.342 OA
BRANCH  14  15
ATOM     15  C   UNL d   1      26.764 -15.916  -0.118  0.00  0.00     0.075 A 
ATOM     16  C   UNL d   1      26.701 -17.125   0.604  0.00  0.00     0.039 A 
ATOM     17  C   UNL d   1      25.648 -18.033   0.417  0.00  0.00     0.022 A 
ATOM     18  C   UNL d   1      24.670 -17.756  -0.527  0.00  0.00     0.011 A 
ATOM     19 BR   UNL d   1      23.229 -18.952  -0.799  0.00  0.00    -0.051 Br
ATOM     20  C   UNL d   1      24.747 -16.594  -1.288  0.00  0.00     0.028 A 
ATOM     21  C   UNL d   1      25.793 -15.666  -1.098  0.00  0.00    -0.027 A 
ATOM     22  C   UNL d   1      25.822 -14.470  -1.995  0.00  0.00     0.051 C 
ENDBRANCH  14  15
ENDBRANCH  13  14
ENDBRANCH  10  13
ENDBRANCH   7   9
ENDBRANCH   5   7
ENDBRANCH   3   5
BRANCH   1  23
ATOM     23  C   UNL d   1      32.593 -16.071   1.397  0.00  0.00     0.114 C 
BRANCH  23  24
ATOM     24  C   UNL d   1      31.908 -17.345   0.815  0.00  0.00     0.112 C 
BRANCH  24  25
ATOM     25  C   UNL d   1      31.503 -17.114  -0.635  0.00  0.00     0.222 C 
ATOM     26  N   UNL d   1      30.451 -16.227  -0.878  0.00  0.00    -0.327 N 
ATOM     27  H   UNL d   1      30.007 -15.764  -0.092  0.00  0.00     0.169 HD
ATOM     28  O   UNL d   1      32.132 -17.723  -1.507  0.00  0.00    -0.273 OA
BRANCH  26  29
ATOM     29  C   UNL d   1      29.956 -15.889  -2.183  0.00  0.00     0.035 A 
ATOM     30  C   UNL d   1      29.178 -14.750  -2.395  0.00  0.00     0.030 A 
ATOM     31  C   UNL d   1      28.652 -14.423  -3.641  0.00  0.00     0.009 A 
ATOM     32  C   UNL d   1      28.901 -15.223  -4.749  0.00  0.00    -0.056 A 
ATOM     33  C   UNL d   1      28.286 -14.823  -6.061  0.00  0.00     0.049 C 
ATOM     34  C   UNL d   1      29.714 -16.364  -4.593  0.00  0.00    -0.054 A 
ATOM     35  C   UNL d   1      30.231 -16.693  -3.306  0.00  0.00     0.037 A 
ATOM     36  C   UNL d   1      30.031 -17.218  -5.794  0.00  0.00     0.049 C 
ENDBRANCH  26  29
ENDBRANCH  24  25
ENDBRANCH  23  24
ENDBRANCH   1  23
TORSDOF 10
ENDMDL
MODEL 8
REMARK VINA RESULT:    -6.625      4.111      7.454
REMARK INTER + INTRA:         -14.753
REMARK INTER:                  -9.608
REMARK INTRA:                  -5.146
REMARK CONF_INDEPENDENT:        2.983
REMARK UNBOUND:                -5.146
REMARK  10 active torsions:
REMARK  status: ('A' for Active; 'I' for Inactive)
REMARK    1  A    between atoms: C_5  and  N_6 
REMARK       I    between atoms: N_6  and  C_7 
REMARK    2  A    between atoms: C_7  and  C_9 
REMARK    3  A    between atoms: C_9  and  C_10 
REMARK    4  A    between atoms: C_10  and  C_11 
REMARK       I    between atoms: C_11  and  N_13 
REMARK    5  A    between atoms: N_13  and  N_14 
REMARK    6  A    between atoms: N_14  and  C_15 
REMARK    7  A    between atoms: C_15  and  N_17 
REMARK       I    between atoms: N_17  and  C_18 
REMARK    8  A    between atoms: C_18  and  C_20 
REMARK    9  A    between atoms: C_20  and  O_21 
REMARK   10  A    between atoms: O_21  and  C_22 
ROOT
ATOM      1  C   UNL d   1      27.727 -14.504  -5.600  0.00  0.00     0.236 C 
ATOM      2  O   UNL d   1      27.115 -15.575  -5.623  0.00  0.00    -0.272 OA
ATOM      3  N   UNL d   1      29.091 -14.435  -5.837  0.00  0.00    -0.268 N 
ATOM      4  H   UNL d   1      29.617 -13.557  -5.819  0.00  0.00     0.190 HD
ENDROOT
BRANCH   3   5
ATOM      5  N   UNL d   1      29.887 -15.628  -6.126  0.00  0.00    -0.273 N 
ATOM      6  H   UNL d   1      30.423 -15.573  -6.990  0.00  0.00     0.189 HD
BRANCH   5   7
ATOM      7  C   UNL d   1      29.834 -16.712  -5.229  0.00  0.00     0.193 C 
ATOM      8  S   UNL d   1      30.407 -18.219  -5.736  0.00  0.00    -0.039 SA
BRANCH   7   9
ATOM      9  N   UNL d   1      29.297 -16.438  -3.946  0.00  0.00    -0.301 N 
ATOM     10  C   UNL d   1      29.756 -16.995  -2.720  0.00  0.00     0.248 C 
ATOM     11  O   UNL d   1      30.676 -17.812  -2.651  0.00  0.00    -0.271 OA
ATOM     12  H   UNL d   1      28.509 -15.805  -3.896  0.00  0.00     0.171 HD
BRANCH  10  13
ATOM     13  C   UNL d   1      29.023 -16.613  -1.414  0.00  0.00     0.278 C 
BRANCH  13  14
ATOM     14  O   UNL d   1      27.840 -15.849  -1.734  0.00  0.00    -0.342 OA
BRANCH  14  15
ATOM     15  C   UNL d   1      26.593 -16.324  -1.415  0.00  0.00     0.075 A 
ATOM     16  C   UNL d   1      26.567 -17.371  -0.472  0.00  0.00     0.039 A 
ATOM     17  C   UNL d   1      25.362 -17.975  -0.083  0.00  0.00     0.022 A 
ATOM     18  C   UNL d   1      24.173 -17.561  -0.669  0.00  0.00     0.011 A 
ATOM     19 BR   UNL d   1      22.527 -18.343  -0.161  0.00  0.00    -0.051 Br
ATOM     20  C   UNL d   1      24.187 -16.567  -1.642  0.00  0.00     0.028 A 
ATOM     21  C   UNL d   1      25.392 -15.943  -2.030  0.00  0.00    -0.027 A 
ATOM     22  C   UNL d   1      25.316 -14.921  -3.119  0.00  0.00     0.051 C 
ENDBRANCH  14  15
ENDBRANCH  13  14
ENDBRANCH  10  13
ENDBRANCH   7   9
ENDBRANCH   5   7
ENDBRANCH   3   5
BRANCH   1  23
ATOM     23  C   UNL d   1      27.034 -13.168  -5.309  0.00  0.00     0.114 C 
BRANCH  23  24
ATOM     24  C   UNL d   1      27.870 -12.218  -4.398  0.00  0.00     0.112 C 
BRANCH  24  25
ATOM     25  C   UNL d   1      28.190 -12.899  -3.073  0.00  0.00     0.222 C 
ATOM     26  N   UNL d   1      27.540 -12.424  -1.931  0.00  0.00    -0.327 N 
ATOM     27  H   UNL d   1      26.878 -11.662  -2.023  0.00  0.00     0.169 HD
ATOM     28  O   UNL d   1      29.002 -13.830  -3.092  0.00  0.00    -0.273 OA
BRANCH  26  29
ATOM     29  C   UNL d   1      27.718 -12.961  -0.611  0.00  0.00     0.035 A 
ATOM     30  C   UNL d   1      26.655 -13.051   0.289  0.00  0.00     0.030 A 
ATOM     31  C   UNL d   1      26.810 -13.529   1.586  0.00  0.00     0.009 A 
ATOM     32  C   UNL d   1      28.050 -13.961   2.041  0.00  0.00    -0.056 A 
ATOM     33  C   UNL d   1      28.151 -14.446   3.460  0.00  0.00     0.049 C 
ATOM     34  C   UNL d   1      29.147 -13.925   1.156  0.00  0.00    -0.054 A 
ATOM     35  C   UNL d   1      28.973 -13.418  -0.165  0.00  0.00     0.037 A 
ATOM     36  C   UNL d   1      30.488 -14.432   1.619  0.00  0.00     0.049 C 
ENDBRANCH  26  29
ENDBRANCH  24  25
ENDBRANCH  23  24
ENDBRANCH   1  23
TORSDOF 10
ENDMDL
MODEL 9
REMARK VINA RESULT:    -6.530      4.146      8.047
REMARK INTER + INTRA:         -14.377
REMARK INTER:                  -9.513
REMARK INTRA:                  -4.864
REMARK CONF_INDEPENDENT:        2.983
REMARK UNBOUND:                -4.864
REMARK  10 active torsions:
REMARK  status: ('A' for Active; 'I' for Inactive)
REMARK    1  A    between atoms: C_5  and  N_6 
REMARK       I    between atoms: N_6  and  C_7 
REMARK    2  A    between atoms: C_7  and  C_9 
REMARK    3  A    between atoms: C_9  and  C_10 
REMARK    4  A    between atoms: C_10  and  C_11 
REMARK       I    between atoms: C_11  and  N_13 
REMARK    5  A    between atoms: N_13  and  N_14 
REMARK    6  A    between atoms: N_14  and  C_15 
REMARK    7  A    between atoms: C_15  and  N_17 
REMARK       I    between atoms: N_17  and  C_18 
REMARK    8  A    between atoms: C_18  and  C_20 
REMARK    9  A    between atoms: C_20  and  O_21 
REMARK   10  A    between atoms: O_21  and  C_22 
ROOT
ATOM      1  C   UNL d   1      31.184 -15.055   1.609  0.00  0.00     0.236 C 
ATOM      2  O   UNL d   1      30.420 -14.223   1.113  0.00  0.00    -0.272 OA
ATOM      3  N   UNL d   1      31.319 -15.197   2.982  0.00  0.00    -0.268 N 
ATOM      4  H   UNL d   1      31.950 -15.879   3.412  0.00  0.00     0.190 HD
ENDROOT
BRANCH   3   5
ATOM      5  N   UNL d   1      30.567 -14.368   3.923  0.00  0.00    -0.273 N 
ATOM      6  H   UNL d   1      31.147 -13.756   4.495  0.00  0.00     0.189 HD
BRANCH   5   7
ATOM      7  C   UNL d   1      29.166 -14.493   3.967  0.00  0.00     0.193 C 
ATOM      8  S   UNL d   1      28.389 -14.428   5.467  0.00  0.00    -0.039 SA
BRANCH   7   9
ATOM      9  N   UNL d   1      28.512 -14.662   2.721  0.00  0.00    -0.301 N 
ATOM     10  C   UNL d   1      27.407 -13.897   2.257  0.00  0.00     0.248 C 
ATOM     11  O   UNL d   1      26.878 -13.001   2.918  0.00  0.00    -0.271 OA
ATOM     12  H   UNL d   1      28.846 -15.400   2.115  0.00  0.00     0.171 HD
BRANCH  10  13
ATOM     13  C   UNL d   1      26.790 -14.247   0.883  0.00  0.00     0.278 C 
BRANCH  13  14
ATOM     14  O   UNL d   1      27.009 -15.647   0.602  0.00  0.00    -0.342 OA
BRANCH  14  15
ATOM     15  C   UNL d   1      25.966 -16.456   0.228  0.00  0.00     0.075 A 
ATOM     16  C   UNL d   1      24.819 -15.786  -0.244  0.00  0.00     0.039 A 
ATOM     17  C   UNL d   1      23.667 -16.490  -0.625  0.00  0.00     0.022 A 
ATOM     18  C   UNL d   1      23.639 -17.872  -0.498  0.00  0.00     0.011 A 
ATOM     19 BR   UNL d   1      22.108 -18.855  -1.012  0.00  0.00    -0.051 Br
ATOM     20  C   UNL d   1      24.743 -18.544   0.019  0.00  0.00     0.028 A 
ATOM     21  C   UNL d   1      25.912 -17.848   0.392  0.00  0.00    -0.027 A 
ATOM     22  C   UNL d   1      27.028 -18.648   0.984  0.00  0.00     0.051 C 
ENDBRANCH  14  15
ENDBRANCH  13  14
ENDBRANCH  10  13
ENDBRANCH   7   9
ENDBRANCH   5   7
ENDBRANCH   3   5
BRANCH   1  23
ATOM     23  C   UNL d   1      32.042 -15.994   0.754  0.00  0.00     0.114 C 
BRANCH  23  24
ATOM     24  C   UNL d   1      31.226 -17.135   0.072  0.00  0.00     0.112 C 
BRANCH  24  25
ATOM     25  C   UNL d   1      30.408 -16.581  -1.087  0.00  0.00     0.222 C 
ATOM     26  N   UNL d   1      29.296 -15.793  -0.773  0.00  0.00    -0.327 N 
ATOM     27  H   UNL d   1      29.083 -15.610   0.201  0.00  0.00     0.169 HD
ATOM     28  O   UNL d   1      30.778 -16.860  -2.232  0.00  0.00    -0.273 OA
BRANCH  26  29
ATOM     29  C   UNL d   1      28.429 -15.186  -1.744  0.00  0.00     0.035 A 
ATOM     30  C   UNL d   1      27.712 -15.954  -2.662  0.00  0.00     0.030 A 
ATOM     31  C   UNL d   1      26.898 -15.388  -3.638  0.00  0.00     0.009 A 
ATOM     32  C   UNL d   1      26.751 -14.009  -3.729  0.00  0.00    -0.056 A 
ATOM     33  C   UNL d   1      25.874 -13.464  -4.821  0.00  0.00     0.049 C 
ATOM     34  C   UNL d   1      27.427 -13.193  -2.800  0.00  0.00    -0.054 A 
ATOM     35  C   UNL d   1      28.268 -13.789  -1.816  0.00  0.00     0.037 A 
ATOM     36  C   UNL d   1      27.243 -11.698  -2.856  0.00  0.00     0.049 C 
ENDBRANCH  26  29
ENDBRANCH  24  25
ENDBRANCH  23  24
ENDBRANCH   1  23
TORSDOF 10
ENDMDL
