MODEL 1
REMARK VINA RESULT:    -7.755      0.000      0.000
REMARK INTER + INTRA:         -10.388
REMARK INTER:                  -9.545
REMARK INTRA:                  -0.843
REMARK CONF_INDEPENDENT:        1.790
REMARK UNBOUND:                -0.843
REMARK  6 active torsions:
REMARK  status: ('A' for Active; 'I' for Inactive)
REMARK    1  A    between atoms: S_2  and  C_3 
REMARK    2  A    between atoms: C_7  and  N_8 
REMARK       I    between atoms: N_8  and  C_9 
REMARK    3  A    between atoms: C_11  and  C_9 
REMARK    4  A    between atoms: C_11  and  N_13 
REMARK    5  A    between atoms: N_13  and  C_14 
REMARK    6  A    between atoms: C_19  and  C_20 
REMARK       I    between atoms: C_20  and  N_21 
ROOT
ATOM      1  C   UNL d   1      28.802 -14.120   2.748  0.00  0.00     0.170 C 
ATOM      2  C   UNL d   1      30.149 -14.399   2.099  0.00  0.00     0.042 C 
ENDROOT
BRANCH   1   3
ATOM      3  N   UNL d   1      28.651 -14.834   4.023  0.00  0.00    -0.377 N 
ATOM      4  H   UNL d   1      29.016 -15.779   4.050  0.00  0.00     0.160 HD
BRANCH   3   5
ATOM      5  C   UNL d   1      28.609 -14.161   5.247  0.00  0.00     0.029 A 
ATOM      6  C   UNL d   1      27.698 -13.127   5.457  0.00  0.00     0.029 A 
ATOM      7  C   UNL d   1      27.780 -12.326   6.602  0.00  0.00     0.010 A 
ATOM      8  C   UNL d   1      28.704 -12.595   7.628  0.00  0.00    -0.046 A 
ATOM      9  C   UNL d   1      28.635 -11.747   8.855  0.00  0.00     0.049 C 
ATOM     10  C   UNL d   1      29.604 -13.658   7.467  0.00  0.00     0.039 A 
ATOM     11  C   UNL d   1      29.507 -14.434   6.291  0.00  0.00     0.046 A 
BRANCH  10  12
ATOM     12  C   UNL d   1      30.735 -14.029   8.393  0.00  0.00     0.249 C 
ATOM     13  N   UNL d   1      32.028 -13.700   8.105  0.00  0.00    -0.366 N 
ATOM     14  H   UNL d   1      32.355 -13.160   7.328  0.00  0.00     0.159 HD
ATOM     15  H   UNL d   1      32.738 -13.997   8.760  0.00  0.00     0.159 HD
ATOM     16  O   UNL d   1      30.531 -14.670   9.430  0.00  0.00    -0.268 OA
ENDBRANCH  10  12
ENDBRANCH   3   5
ENDBRANCH   1   3
BRANCH   1  17
ATOM     17  C   UNL d   1      27.716 -14.456   1.739  0.00  0.00     0.244 C 
ATOM     18  N   UNL d   1      27.801 -15.692   1.082  0.00  0.00    -0.325 N 
ATOM     19  H   UNL d   1      28.543 -16.327   1.355  0.00  0.00     0.169 HD
ATOM     20  O   UNL d   1      26.839 -13.600   1.592  0.00  0.00    -0.271 OA
BRANCH  18  21
ATOM     21  C   UNL d   1      26.824 -16.174   0.166  0.00  0.00     0.036 A 
ATOM     22  C   UNL d   1      26.224 -17.424   0.309  0.00  0.00     0.029 A 
ATOM     23  C   UNL d   1      25.245 -17.832  -0.616  0.00  0.00     0.004 A 
ATOM     24  C   UNL d   1      24.897 -17.016  -1.706  0.00  0.00     0.018 A 
ATOM     25  C   UNL d   1      25.470 -15.759  -1.847  0.00  0.00     0.002 A 
ATOM     26  C   UNL d   1      26.412 -15.379  -0.903  0.00  0.00     0.048 A 
BRANCH  25  27
ATOM     27  S   UNL d   1      24.949 -14.623  -3.133  0.00  0.00    -0.134 SA
ATOM     28  C   UNL d   1      25.913 -15.165  -4.601  0.00  0.00     0.095 C 
ENDBRANCH  25  27
ENDBRANCH  18  21
ENDBRANCH   1  17
TORSDOF 6
ENDMDL
MODEL 2
REMARK VINA RESULT:    -7.612      1.384      2.016
REMARK INTER + INTRA:         -10.238
REMARK INTER:                  -9.402
REMARK INTRA:                  -0.836
REMARK CONF_INDEPENDENT:        1.790
REMARK UNBOUND:                -0.836
REMARK  6 active torsions:
REMARK  status: ('A' for Active; 'I' for Inactive)
REMARK    1  A    between atoms: S_2  and  C_3 
REMARK    2  A    between atoms: C_7  and  N_8 
REMARK       I    between atoms: N_8  and  C_9 
REMARK    3  A    between atoms: C_11  and  C_9 
REMARK    4  A    between atoms: C_11  and  N_13 
REMARK    5  A    between atoms: N_13  and  C_14 
REMARK    6  A    between atoms: C_19  and  C_20 
REMARK       I    between atoms: C_20  and  N_21 
ROOT
ATOM      1  C   UNL d   1      29.008 -14.089   2.708  0.00  0.00     0.170 C 
ATOM      2  C   UNL d   1      30.335 -14.446   2.054  0.00  0.00     0.042 C 
ENDROOT
BRANCH   1   3
ATOM      3  N   UNL d   1      28.799 -14.827   3.961  0.00  0.00    -0.377 N 
ATOM      4  H   UNL d   1      29.149 -15.778   3.980  0.00  0.00     0.160 HD
BRANCH   3   5
ATOM      5  C   UNL d   1      28.722 -14.179   5.196  0.00  0.00     0.029 A 
ATOM      6  C   UNL d   1      27.744 -13.215   5.433  0.00  0.00     0.029 A 
ATOM      7  C   UNL d   1      27.780 -12.430   6.591  0.00  0.00     0.010 A 
ATOM      8  C   UNL d   1      28.731 -12.651   7.603  0.00  0.00    -0.046 A 
ATOM      9  C   UNL d   1      28.615 -11.831   8.846  0.00  0.00     0.049 C 
ATOM     10  C   UNL d   1      29.702 -13.646   7.416  0.00  0.00     0.039 A 
ATOM     11  C   UNL d   1      29.647 -14.406   6.228  0.00  0.00     0.046 A 
BRANCH  10  12
ATOM     12  C   UNL d   1      30.865 -13.952   8.326  0.00  0.00     0.249 C 
ATOM     13  N   UNL d   1      30.935 -15.124   9.021  0.00  0.00    -0.366 N 
ATOM     14  H   UNL d   1      30.298 -15.895   8.971  0.00  0.00     0.159 HD
ATOM     15  H   UNL d   1      31.733 -15.255   9.628  0.00  0.00     0.159 HD
ATOM     16  O   UNL d   1      31.779 -13.137   8.495  0.00  0.00    -0.268 OA
ENDBRANCH  10  12
ENDBRANCH   3   5
ENDBRANCH   1   3
BRANCH   1  17
ATOM     17  C   UNL d   1      27.905 -14.314   1.686  0.00  0.00     0.244 C 
ATOM     18  N   UNL d   1      27.951 -15.495   0.933  0.00  0.00    -0.325 N 
ATOM     19  H   UNL d   1      28.677 -16.171   1.147  0.00  0.00     0.169 HD
ATOM     20  O   UNL d   1      27.052 -13.426   1.616  0.00  0.00    -0.271 OA
BRANCH  18  21
ATOM     21  C   UNL d   1      26.955 -15.877  -0.008  0.00  0.00     0.036 A 
ATOM     22  C   UNL d   1      26.816 -15.243  -1.243  0.00  0.00     0.029 A 
ATOM     23  C   UNL d   1      25.826 -15.685  -2.141  0.00  0.00     0.004 A 
ATOM     24  C   UNL d   1      24.949 -16.726  -1.794  0.00  0.00     0.018 A 
ATOM     25  C   UNL d   1      25.091 -17.382  -0.577  0.00  0.00     0.002 A 
ATOM     26  C   UNL d   1      26.092 -16.937   0.272  0.00  0.00     0.048 A 
BRANCH  25  27
ATOM     27  S   UNL d   1      24.095 -18.810  -0.153  0.00  0.00    -0.134 SA
ATOM     28  C   UNL d   1      22.399 -18.318  -0.662  0.00  0.00     0.095 C 
ENDBRANCH  25  27
ENDBRANCH  18  21
ENDBRANCH   1  17
TORSDOF 6
ENDMDL
MODEL 3
REMARK VINA RESULT:    -7.492      7.087      8.550
REMARK INTER + INTRA:         -10.242
REMARK INTER:                  -9.282
REMARK INTRA:                  -0.960
REMARK CONF_INDEPENDENT:        1.790
REMARK UNBOUND:                -0.960
REMARK  6 active torsions:
REMARK  status: ('A' for Active; 'I' for Inactive)
REMARK    1  A    between atoms: S_2  and  C_3 
REMARK    2  A    between atoms: C_7  and  N_8 
REMARK       I    between atoms: N_8  and  C_9 
REMARK    3  A    between atoms: C_11  and  C_9 
REMARK    4  A    between atoms: C_11  and  N_13 
REMARK    5  A    between atoms: N_13  and  C_14 
REMARK    6  A    between atoms: C_19  and  C_20 
REMARK       I    between atoms: C_20  and  N_21 
ROOT
ATOM      1  C   UNL d   1      25.066 -13.653  -3.695  0.00  0.00     0.170 C 
ATOM      2  C   UNL d   1      25.886 -12.633  -2.918  0.00  0.00     0.042 C 
ENDROOT
BRANCH   1   3
ATOM      3  N   UNL d   1      24.203 -14.449  -2.812  0.00  0.00    -0.377 N 
ATOM      4  H   UNL d   1      23.270 -14.642  -3.157  0.00  0.00     0.160 HD
BRANCH   3   5
ATOM      5  C   UNL d   1      24.724 -15.380  -1.911  0.00  0.00     0.029 A 
ATOM      6  C   UNL d   1      26.077 -15.363  -1.575  0.00  0.00     0.029 A 
ATOM      7  C   UNL d   1      26.642 -16.404  -0.829  0.00  0.00     0.010 A 
ATOM      8  C   UNL d   1      25.855 -17.444  -0.301  0.00  0.00    -0.046 A 
ATOM      9  C   UNL d   1      26.538 -18.444   0.573  0.00  0.00     0.049 C 
ATOM     10  C   UNL d   1      24.482 -17.465  -0.581  0.00  0.00     0.039 A 
ATOM     11  C   UNL d   1      23.949 -16.409  -1.353  0.00  0.00     0.046 A 
BRANCH  10  12
ATOM     12  C   UNL d   1      23.502 -18.548  -0.206  0.00  0.00     0.249 C 
ATOM     13  N   UNL d   1      22.434 -18.292   0.604  0.00  0.00    -0.366 N 
ATOM     14  H   UNL d   1      22.156 -17.405   0.975  0.00  0.00     0.159 HD
ATOM     15  H   UNL d   1      21.829 -19.069   0.832  0.00  0.00     0.159 HD
ATOM     16  O   UNL d   1      23.652 -19.712  -0.596  0.00  0.00    -0.268 OA
ENDBRANCH  10  12
ENDBRANCH   3   5
ENDBRANCH   1   3
BRANCH   1  17
ATOM     17  C   UNL d   1      26.024 -14.497  -4.520  0.00  0.00     0.244 C 
ATOM     18  N   UNL d   1      27.362 -14.084  -4.581  0.00  0.00    -0.325 N 
ATOM     19  H   UNL d   1      27.641 -13.283  -4.025  0.00  0.00     0.169 HD
ATOM     20  O   UNL d   1      25.531 -15.488  -5.063  0.00  0.00    -0.271 OA
BRANCH  18  21
ATOM     21  C   UNL d   1      28.387 -14.807  -5.254  0.00  0.00     0.036 A 
ATOM     22  C   UNL d   1      28.935 -14.372  -6.460  0.00  0.00     0.029 A 
ATOM     23  C   UNL d   1      29.966 -15.119  -7.061  0.00  0.00     0.004 A 
ATOM     24  C   UNL d   1      30.417 -16.319  -6.488  0.00  0.00     0.018 A 
ATOM     25  C   UNL d   1      29.896 -16.752  -5.275  0.00  0.00     0.002 A 
ATOM     26  C   UNL d   1      28.901 -15.978  -4.697  0.00  0.00     0.048 A 
BRANCH  25  27
ATOM     27  S   UNL d   1      30.544 -18.194  -4.430  0.00  0.00    -0.134 SA
ATOM     28  C   UNL d   1      30.428 -19.521  -5.696  0.00  0.00     0.095 C 
ENDBRANCH  25  27
ENDBRANCH  18  21
ENDBRANCH   1  17
TORSDOF 6
ENDMDL
MODEL 4
REMARK VINA RESULT:    -7.298      6.387      8.355
REMARK INTER + INTRA:         -10.071
REMARK INTER:                  -9.088
REMARK INTRA:                  -0.984
REMARK CONF_INDEPENDENT:        1.790
REMARK UNBOUND:                -0.984
REMARK  6 active torsions:
REMARK  status: ('A' for Active; 'I' for Inactive)
REMARK    1  A    between atoms: S_2  and  C_3 
REMARK    2  A    between atoms: C_7  and  N_8 
REMARK       I    between atoms: N_8  and  C_9 
REMARK    3  A    between atoms: C_11  and  C_9 
REMARK    4  A    between atoms: C_11  and  N_13 
REMARK    5  A    between atoms: N_13  and  C_14 
REMARK    6  A    between atoms: C_19  and  C_20 
REMARK       I    between atoms: C_20  and  N_21 
ROOT
ATOM      1  C   UNL d   1      25.775 -13.886  -4.181  0.00  0.00     0.170 C 
ATOM      2  C   UNL d   1      26.028 -12.446  -4.602  0.00  0.00     0.042 C 
ENDROOT
BRANCH   1   3
ATOM      3  N   UNL d   1      25.925 -14.067  -2.730  0.00  0.00    -0.377 N 
ATOM      4  H   UNL d   1      25.926 -13.219  -2.175  0.00  0.00     0.160 HD
BRANCH   3   5
ATOM      5  C   UNL d   1      25.489 -15.223  -2.080  0.00  0.00     0.029 A 
ATOM      6  C   UNL d   1      24.132 -15.534  -2.019  0.00  0.00     0.029 A 
ATOM      7  C   UNL d   1      23.674 -16.580  -1.210  0.00  0.00     0.010 A 
ATOM      8  C   UNL d   1      24.564 -17.420  -0.516  0.00  0.00    -0.046 A 
ATOM      9  C   UNL d   1      23.979 -18.573   0.231  0.00  0.00     0.049 C 
ATOM     10  C   UNL d   1      25.940 -17.162  -0.593  0.00  0.00     0.039 A 
ATOM     11  C   UNL d   1      26.365 -16.087  -1.404  0.00  0.00     0.046 A 
BRANCH  10  12
ATOM     12  C   UNL d   1      27.034 -17.871   0.165  0.00  0.00     0.249 C 
ATOM     13  N   UNL d   1      28.350 -17.683  -0.143  0.00  0.00    -0.366 N 
ATOM     14  H   UNL d   1      28.727 -17.052  -0.823  0.00  0.00     0.159 HD
ATOM     15  H   UNL d   1      29.030 -18.206   0.392  0.00  0.00     0.159 HD
ATOM     16  O   UNL d   1      26.772 -18.670   1.070  0.00  0.00    -0.268 OA
ENDBRANCH  10  12
ENDBRANCH   3   5
ENDBRANCH   1   3
BRANCH   1  17
ATOM     17  C   UNL d   1      26.691 -14.783  -4.997  0.00  0.00     0.244 C 
ATOM     18  N   UNL d   1      28.074 -14.619  -4.830  0.00  0.00    -0.325 N 
ATOM     19  H   UNL d   1      28.396 -13.959  -4.131  0.00  0.00     0.169 HD
ATOM     20  O   UNL d   1      26.127 -15.591  -5.739  0.00  0.00    -0.271 OA
BRANCH  18  21
ATOM     21  C   UNL d   1      29.053 -15.429  -5.471  0.00  0.00     0.036 A 
ATOM     22  C   UNL d   1      29.715 -15.020  -6.627  0.00  0.00     0.029 A 
ATOM     23  C   UNL d   1      30.693 -15.858  -7.198  0.00  0.00     0.004 A 
ATOM     24  C   UNL d   1      30.978 -17.117  -6.644  0.00  0.00     0.018 A 
ATOM     25  C   UNL d   1      30.342 -17.527  -5.479  0.00  0.00     0.002 A 
ATOM     26  C   UNL d   1      29.404 -16.666  -4.929  0.00  0.00     0.048 A 
BRANCH  25  27
ATOM     27  S   UNL d   1      30.780 -19.056  -4.653  0.00  0.00    -0.134 SA
ATOM     28  C   UNL d   1      30.890 -20.271  -6.027  0.00  0.00     0.095 C 
ENDBRANCH  25  27
ENDBRANCH  18  21
ENDBRANCH   1  17
TORSDOF 6
ENDMDL
MODEL 5
REMARK VINA RESULT:    -7.196      7.164      8.555
REMARK INTER + INTRA:         -10.227
REMARK INTER:                  -8.986
REMARK INTRA:                  -1.241
REMARK CONF_INDEPENDENT:        1.790
REMARK UNBOUND:                -1.241
REMARK  6 active torsions:
REMARK  status: ('A' for Active; 'I' for Inactive)
REMARK    1  A    between atoms: S_2  and  C_3 
REMARK    2  A    between atoms: C_7  and  N_8 
REMARK       I    between atoms: N_8  and  C_9 
REMARK    3  A    between atoms: C_11  and  C_9 
REMARK    4  A    between atoms: C_11  and  N_13 
REMARK    5  A    between atoms: N_13  and  C_14 
REMARK    6  A    between atoms: C_19  and  C_20 
REMARK       I    between atoms: C_20  and  N_21 
ROOT
ATOM      1  C   UNL d   1      25.439 -13.918  -4.390  0.00  0.00     0.170 C 
ATOM      2  C   UNL d   1      26.169 -12.583  -4.339  0.00  0.00     0.042 C 
ENDROOT
BRANCH   1   3
ATOM      3  N   UNL d   1      24.638 -14.149  -3.180  0.00  0.00    -0.377 N 
ATOM      4  H   UNL d   1      23.646 -13.957  -3.260  0.00  0.00     0.160 HD
BRANCH   3   5
ATOM      5  C   UNL d   1      25.000 -15.101  -2.224  0.00  0.00     0.029 A 
ATOM      6  C   UNL d   1      26.242 -15.037  -1.593  0.00  0.00     0.029 A 
ATOM      7  C   UNL d   1      26.686 -16.089  -0.783  0.00  0.00     0.010 A 
ATOM      8  C   UNL d   1      25.864 -17.192  -0.488  0.00  0.00    -0.046 A 
ATOM      9  C   UNL d   1      26.393 -18.204   0.474  0.00  0.00     0.049 C 
ATOM     10  C   UNL d   1      24.591 -17.263  -1.071  0.00  0.00     0.039 A 
ATOM     11  C   UNL d   1      24.182 -16.195  -1.898  0.00  0.00     0.046 A 
BRANCH  10  12
ATOM     12  C   UNL d   1      23.617 -18.411  -0.970  0.00  0.00     0.249 C 
ATOM     13  N   UNL d   1      23.273 -18.948   0.236  0.00  0.00    -0.366 N 
ATOM     14  H   UNL d   1      23.559 -18.631   1.142  0.00  0.00     0.159 HD
ATOM     15  H   UNL d   1      22.631 -19.728   0.229  0.00  0.00     0.159 HD
ATOM     16  O   UNL d   1      23.122 -18.922  -1.981  0.00  0.00    -0.268 OA
ENDBRANCH  10  12
ENDBRANCH   3   5
ENDBRANCH   1   3
BRANCH   1  17
ATOM     17  C   UNL d   1      26.468 -15.006  -4.648  0.00  0.00     0.244 C 
ATOM     18  N   UNL d   1      27.737 -14.848  -4.074  0.00  0.00    -0.325 N 
ATOM     19  H   UNL d   1      27.890 -14.051  -3.464  0.00  0.00     0.169 HD
ATOM     20  O   UNL d   1      26.085 -15.950  -5.344  0.00  0.00    -0.271 OA
BRANCH  18  21
ATOM     21  C   UNL d   1      28.778 -15.813  -4.168  0.00  0.00     0.036 A 
ATOM     22  C   UNL d   1      29.277 -16.481  -3.050  0.00  0.00     0.029 A 
ATOM     23  C   UNL d   1      30.289 -17.445  -3.214  0.00  0.00     0.004 A 
ATOM     24  C   UNL d   1      30.835 -17.711  -4.481  0.00  0.00     0.018 A 
ATOM     25  C   UNL d   1      30.332 -17.070  -5.606  0.00  0.00     0.002 A 
ATOM     26  C   UNL d   1      29.317 -16.145  -5.411  0.00  0.00     0.048 A 
BRANCH  25  27
ATOM     27  S   UNL d   1      30.891 -17.484  -7.258  0.00  0.00    -0.134 SA
ATOM     28  C   UNL d   1      30.790 -19.319  -7.298  0.00  0.00     0.095 C 
ENDBRANCH  25  27
ENDBRANCH  18  21
ENDBRANCH   1  17
TORSDOF 6
ENDMDL
MODEL 6
REMARK VINA RESULT:    -7.148      7.074      9.928
REMARK INTER + INTRA:         -10.259
REMARK INTER:                  -8.938
REMARK INTRA:                  -1.321
REMARK CONF_INDEPENDENT:        1.790
REMARK UNBOUND:                -1.321
REMARK  6 active torsions:
REMARK  status: ('A' for Active; 'I' for Inactive)
REMARK    1  A    between atoms: S_2  and  C_3 
REMARK    2  A    between atoms: C_7  and  N_8 
REMARK       I    between atoms: N_8  and  C_9 
REMARK    3  A    between atoms: C_11  and  C_9 
REMARK    4  A    between atoms: C_11  and  N_13 
REMARK    5  A    between atoms: N_13  and  C_14 
REMARK    6  A    between atoms: C_19  and  C_20 
REMARK       I    between atoms: C_20  and  N_21 
ROOT
ATOM      1  C   UNL d   1      26.325 -13.687  -4.309  0.00  0.00     0.170 C 
ATOM      2  C   UNL d   1      27.408 -13.012  -3.480  0.00  0.00     0.042 C 
ENDROOT
BRANCH   1   3
ATOM      3  N   UNL d   1      25.480 -12.708  -5.006  0.00  0.00    -0.377 N 
ATOM      4  H   UNL d   1      24.497 -12.710  -4.756  0.00  0.00     0.160 HD
BRANCH   3   5
ATOM      5  C   UNL d   1      25.987 -11.494  -5.474  0.00  0.00     0.029 A 
ATOM      6  C   UNL d   1      26.869 -11.462  -6.553  0.00  0.00     0.029 A 
ATOM      7  C   UNL d   1      27.528 -10.277  -6.902  0.00  0.00     0.010 A 
ATOM      8  C   UNL d   1      27.248  -9.059  -6.256  0.00  0.00    -0.046 A 
ATOM      9  C   UNL d   1      27.924  -7.834  -6.779  0.00  0.00     0.049 C 
ATOM     10  C   UNL d   1      26.330  -9.049  -5.197  0.00  0.00     0.039 A 
ATOM     11  C   UNL d   1      25.699 -10.265  -4.859  0.00  0.00     0.046 A 
BRANCH  10  12
ATOM     12  C   UNL d   1      25.987  -7.875  -4.313  0.00  0.00     0.249 C 
ATOM     13  N   UNL d   1      24.780  -7.787  -3.684  0.00  0.00    -0.366 N 
ATOM     14  H   UNL d   1      24.046  -8.469  -3.686  0.00  0.00     0.159 HD
ATOM     15  H   UNL d   1      24.609  -6.964  -3.123  0.00  0.00     0.159 HD
ATOM     16  O   UNL d   1      26.780  -6.940  -4.153  0.00  0.00    -0.268 OA
ENDBRANCH  10  12
ENDBRANCH   3   5
ENDBRANCH   1   3
BRANCH   1  17
ATOM     17  C   UNL d   1      25.542 -14.614  -3.394  0.00  0.00     0.244 C 
ATOM     18  N   UNL d   1      26.268 -15.554  -2.649  0.00  0.00    -0.325 N 
ATOM     19  H   UNL d   1      27.281 -15.530  -2.706  0.00  0.00     0.169 HD
ATOM     20  O   UNL d   1      24.319 -14.449  -3.384  0.00  0.00    -0.271 OA
BRANCH  18  21
ATOM     21  C   UNL d   1      25.684 -16.440  -1.702  0.00  0.00     0.036 A 
ATOM     22  C   UNL d   1      26.436 -17.074  -0.713  0.00  0.00     0.029 A 
ATOM     23  C   UNL d   1      25.793 -17.919   0.212  0.00  0.00     0.004 A 
ATOM     24  C   UNL d   1      24.413 -18.167   0.124  0.00  0.00     0.018 A 
ATOM     25  C   UNL d   1      23.648 -17.524  -0.840  0.00  0.00     0.002 A 
ATOM     26  C   UNL d   1      24.309 -16.679  -1.718  0.00  0.00     0.048 A 
BRANCH  25  27
ATOM     27  S   UNL d   1      21.864 -17.692  -0.896  0.00  0.00    -0.134 SA
ATOM     28  C   UNL d   1      21.543 -19.201   0.102  0.00  0.00     0.095 C 
ENDBRANCH  25  27
ENDBRANCH  18  21
ENDBRANCH   1  17
TORSDOF 6
ENDMDL
MODEL 7
REMARK VINA RESULT:    -7.014      6.450      8.205
REMARK INTER + INTRA:         -10.151
REMARK INTER:                  -8.804
REMARK INTRA:                  -1.347
REMARK CONF_INDEPENDENT:        1.790
REMARK UNBOUND:                -1.347
REMARK  6 active torsions:
REMARK  status: ('A' for Active; 'I' for Inactive)
REMARK    1  A    between atoms: S_2  and  C_3 
REMARK    2  A    between atoms: C_7  and  N_8 
REMARK       I    between atoms: N_8  and  C_9 
REMARK    3  A    between atoms: C_11  and  C_9 
REMARK    4  A    between atoms: C_11  and  N_13 
REMARK    5  A    between atoms: N_13  and  C_14 
REMARK    6  A    between atoms: C_19  and  C_20 
REMARK       I    between atoms: C_20  and  N_21 
ROOT
ATOM      1  C   UNL d   1      26.584 -13.467  -3.817  0.00  0.00     0.170 C 
ATOM      2  C   UNL d   1      25.545 -12.678  -4.601  0.00  0.00     0.042 C 
ENDROOT
BRANCH   1   3
ATOM      3  N   UNL d   1      27.790 -13.728  -4.615  0.00  0.00    -0.377 N 
ATOM      4  H   UNL d   1      28.229 -12.916  -5.036  0.00  0.00     0.160 HD
BRANCH   3   5
ATOM      5  C   UNL d   1      28.633 -14.809  -4.349  0.00  0.00     0.029 A 
ATOM      6  C   UNL d   1      29.097 -15.620  -5.385  0.00  0.00     0.029 A 
ATOM      7  C   UNL d   1      29.779 -16.810  -5.109  0.00  0.00     0.010 A 
ATOM      8  C   UNL d   1      30.117 -17.180  -3.794  0.00  0.00    -0.046 A 
ATOM      9  C   UNL d   1      30.941 -18.413  -3.618  0.00  0.00     0.049 C 
ATOM     10  C   UNL d   1      29.705 -16.361  -2.733  0.00  0.00     0.039 A 
ATOM     11  C   UNL d   1      29.003 -15.178  -3.046  0.00  0.00     0.046 A 
BRANCH  10  12
ATOM     12  C   UNL d   1      29.869 -16.646  -1.261  0.00  0.00     0.249 C 
ATOM     13  N   UNL d   1      29.839 -17.920  -0.774  0.00  0.00    -0.366 N 
ATOM     14  H   UNL d   1      29.768 -18.767  -1.304  0.00  0.00     0.159 HD
ATOM     15  H   UNL d   1      29.935 -18.037   0.225  0.00  0.00     0.159 HD
ATOM     16  O   UNL d   1      30.005 -15.729  -0.442  0.00  0.00    -0.268 OA
ENDBRANCH  10  12
ENDBRANCH   3   5
ENDBRANCH   1   3
BRANCH   1  17
ATOM     17  C   UNL d   1      25.921 -14.732  -3.299  0.00  0.00     0.244 C 
ATOM     18  N   UNL d   1      26.221 -15.131  -1.988  0.00  0.00    -0.325 N 
ATOM     19  H   UNL d   1      26.813 -14.526  -1.429  0.00  0.00     0.169 HD
ATOM     20  O   UNL d   1      25.161 -15.300  -4.087  0.00  0.00    -0.271 OA
BRANCH  18  21
ATOM     21  C   UNL d   1      25.626 -16.250  -1.342  0.00  0.00     0.036 A 
ATOM     22  C   UNL d   1      26.374 -17.165  -0.601  0.00  0.00     0.029 A 
ATOM     23  C   UNL d   1      25.721 -18.237   0.036  0.00  0.00     0.004 A 
ATOM     24  C   UNL d   1      24.336 -18.424  -0.100  0.00  0.00     0.018 A 
ATOM     25  C   UNL d   1      23.575 -17.507  -0.816  0.00  0.00     0.002 A 
ATOM     26  C   UNL d   1      24.247 -16.448  -1.409  0.00  0.00     0.048 A 
BRANCH  25  27
ATOM     27  S   UNL d   1      21.788 -17.618  -0.892  0.00  0.00    -0.134 SA
ATOM     28  C   UNL d   1      21.438 -19.320  -0.295  0.00  0.00     0.095 C 
ENDBRANCH  25  27
ENDBRANCH  18  21
ENDBRANCH   1  17
TORSDOF 6
ENDMDL
MODEL 8
REMARK VINA RESULT:    -6.670      5.579      7.997
REMARK INTER + INTRA:          -9.862
REMARK INTER:                  -8.460
REMARK INTRA:                  -1.402
REMARK CONF_INDEPENDENT:        1.790
REMARK UNBOUND:                -1.402
REMARK  6 active torsions:
REMARK  status: ('A' for Active; 'I' for Inactive)
REMARK    1  A    between atoms: S_2  and  C_3 
REMARK    2  A    between atoms: C_7  and  N_8 
REMARK       I    between atoms: N_8  and  C_9 
REMARK    3  A    between atoms: C_11  and  C_9 
REMARK    4  A    between atoms: C_11  and  N_13 
REMARK    5  A    between atoms: N_13  and  C_14 
REMARK    6  A    between atoms: C_19  and  C_20 
REMARK       I    between atoms: C_20  and  N_21 
ROOT
ATOM      1  C   UNL d   1      25.276 -13.867  -4.286  0.00  0.00     0.170 C 
ATOM      2  C   UNL d   1      26.001 -12.568  -3.967  0.00  0.00     0.042 C 
ENDROOT
BRANCH   1   3
ATOM      3  N   UNL d   1      24.572 -14.403  -3.113  0.00  0.00    -0.377 N 
ATOM      4  H   UNL d   1      23.559 -14.395  -3.160  0.00  0.00     0.160 HD
BRANCH   3   5
ATOM      5  C   UNL d   1      25.137 -15.385  -2.295  0.00  0.00     0.029 A 
ATOM      6  C   UNL d   1      24.435 -16.553  -2.000  0.00  0.00     0.029 A 
ATOM      7  C   UNL d   1      24.911 -17.447  -1.034  0.00  0.00     0.010 A 
ATOM      8  C   UNL d   1      26.156 -17.261  -0.405  0.00  0.00    -0.046 A 
ATOM      9  C   UNL d   1      26.620 -18.329   0.529  0.00  0.00     0.049 C 
ATOM     10  C   UNL d   1      26.908 -16.118  -0.715  0.00  0.00     0.039 A 
ATOM     11  C   UNL d   1      26.389 -15.228  -1.680  0.00  0.00     0.046 A 
BRANCH  10  12
ATOM     12  C   UNL d   1      28.200 -15.687  -0.067  0.00  0.00     0.249 C 
ATOM     13  N   UNL d   1      29.019 -16.585   0.552  0.00  0.00    -0.366 N 
ATOM     14  H   UNL d   1      28.901 -17.579   0.600  0.00  0.00     0.159 HD
ATOM     15  H   UNL d   1      29.860 -16.225   0.983  0.00  0.00     0.159 HD
ATOM     16  O   UNL d   1      28.544 -14.500  -0.051  0.00  0.00    -0.268 OA
ENDBRANCH  10  12
ENDBRANCH   3   5
ENDBRANCH   1   3
BRANCH   1  17
ATOM     17  C   UNL d   1      26.287 -14.837  -4.875  0.00  0.00     0.244 C 
ATOM     18  N   UNL d   1      27.639 -14.468  -4.834  0.00  0.00    -0.325 N 
ATOM     19  H   UNL d   1      27.885 -13.607  -4.359  0.00  0.00     0.169 HD
ATOM     20  O   UNL d   1      25.820 -15.881  -5.338  0.00  0.00    -0.271 OA
BRANCH  18  21
ATOM     21  C   UNL d   1      28.703 -15.300  -5.282  0.00  0.00     0.036 A 
ATOM     22  C   UNL d   1      29.316 -15.120  -6.521  0.00  0.00     0.029 A 
ATOM     23  C   UNL d   1      30.383 -15.960  -6.895  0.00  0.00     0.004 A 
ATOM     24  C   UNL d   1      30.807 -17.004  -6.057  0.00  0.00     0.018 A 
ATOM     25  C   UNL d   1      30.221 -17.180  -4.810  0.00  0.00     0.002 A 
ATOM     26  C   UNL d   1      29.191 -16.319  -4.464  0.00  0.00     0.048 A 
BRANCH  25  27
ATOM     27  S   UNL d   1      30.827 -18.401  -3.646  0.00  0.00    -0.134 SA
ATOM     28  C   UNL d   1      30.657 -17.564  -2.018  0.00  0.00     0.095 C 
ENDBRANCH  25  27
ENDBRANCH  18  21
ENDBRANCH   1  17
TORSDOF 6
ENDMDL
MODEL 9
REMARK VINA RESULT:    -6.513      4.970      7.724
REMARK INTER + INTRA:          -9.705
REMARK INTER:                  -8.303
REMARK INTRA:                  -1.402
REMARK CONF_INDEPENDENT:        1.790
REMARK UNBOUND:                -1.402
REMARK  6 active torsions:
REMARK  status: ('A' for Active; 'I' for Inactive)
REMARK    1  A    between atoms: S_2  and  C_3 
REMARK    2  A    between atoms: C_7  and  N_8 
REMARK       I    between atoms: N_8  and  C_9 
REMARK    3  A    between atoms: C_11  and  C_9 
REMARK    4  A    between atoms: C_11  and  N_13 
REMARK    5  A    between atoms: N_13  and  C_14 
REMARK    6  A    between atoms: C_19  and  C_20 
REMARK       I    between atoms: C_20  and  N_21 
ROOT
ATOM      1  C   UNL d   1      25.684 -13.695  -4.597  0.00  0.00     0.170 C 
ATOM      2  C   UNL d   1      26.316 -12.325  -4.802  0.00  0.00     0.042 C 
ENDROOT
BRANCH   1   3
ATOM      3  N   UNL d   1      25.101 -13.833  -3.255  0.00  0.00    -0.377 N 
ATOM      4  H   UNL d   1      24.139 -13.531  -3.155  0.00  0.00     0.160 HD
BRANCH   3   5
ATOM      5  C   UNL d   1      25.528 -14.818  -2.361  0.00  0.00     0.029 A 
ATOM      6  C   UNL d   1      25.064 -16.128  -2.474  0.00  0.00     0.029 A 
ATOM      7  C   UNL d   1      25.334 -17.070  -1.474  0.00  0.00     0.010 A 
ATOM      8  C   UNL d   1      26.164 -16.767  -0.379  0.00  0.00    -0.046 A 
ATOM      9  C   UNL d   1      26.477 -17.874   0.572  0.00  0.00     0.049 C 
ATOM     10  C   UNL d   1      26.684 -15.470  -0.261  0.00  0.00     0.039 A 
ATOM     11  C   UNL d   1      26.377 -14.540  -1.278  0.00  0.00     0.046 A 
BRANCH  10  12
ATOM     12  C   UNL d   1      27.492 -14.925   0.890  0.00  0.00     0.249 C 
ATOM     13  N   UNL d   1      28.597 -15.575   1.355  0.00  0.00    -0.366 N 
ATOM     14  H   UNL d   1      29.013 -16.405   0.978  0.00  0.00     0.159 HD
ATOM     15  H   UNL d   1      29.080 -15.164   2.142  0.00  0.00     0.159 HD
ATOM     16  O   UNL d   1      27.160 -13.885   1.470  0.00  0.00    -0.268 OA
ENDBRANCH  10  12
ENDBRANCH   3   5
ENDBRANCH   1   3
BRANCH   1  17
ATOM     17  C   UNL d   1      26.735 -14.748  -4.908  0.00  0.00     0.244 C 
ATOM     18  N   UNL d   1      27.940 -14.692  -4.192  0.00  0.00    -0.325 N 
ATOM     19  H   UNL d   1      28.029 -13.995  -3.461  0.00  0.00     0.169 HD
ATOM     20  O   UNL d   1      26.425 -15.574  -5.769  0.00  0.00    -0.271 OA
BRANCH  18  21
ATOM     21  C   UNL d   1      28.986 -15.647  -4.323  0.00  0.00     0.036 A 
ATOM     22  C   UNL d   1      29.301 -16.549  -3.307  0.00  0.00     0.029 A 
ATOM     23  C   UNL d   1      30.330 -17.488  -3.509  0.00  0.00     0.004 A 
ATOM     24  C   UNL d   1      31.075 -17.499  -4.700  0.00  0.00     0.018 A 
ATOM     25  C   UNL d   1      30.756 -16.622  -5.730  0.00  0.00     0.002 A 
ATOM     26  C   UNL d   1      29.720 -15.728  -5.507  0.00  0.00     0.048 A 
BRANCH  25  27
ATOM     27  S   UNL d   1      31.576 -16.698  -7.322  0.00  0.00    -0.134 SA
ATOM     28  C   UNL d   1      31.156 -18.376  -7.941  0.00  0.00     0.095 C 
ENDBRANCH  25  27
ENDBRANCH  18  21
ENDBRANCH   1  17
TORSDOF 6
ENDMDL
