MODEL 1
REMARK VINA RESULT:    -8.464      0.000      0.000
REMARK INTER + INTRA:         -11.414
REMARK INTER:                 -10.254
REMARK INTRA:                  -1.160
REMARK CONF_INDEPENDENT:        1.790
REMARK UNBOUND:                -1.160
REMARK  6 active torsions:
REMARK  status: ('A' for Active; 'I' for Inactive)
REMARK    1  A    between atoms: O_2  and  C_3 
REMARK    2  A    between atoms: C_3  and  C_5 
REMARK    3  A    between atoms: C_5  and  N_6 
REMARK       I    between atoms: N_6  and  C_7 
REMARK    4  A    between atoms: C_7  and  C_9 
REMARK    5  A    between atoms: C_12  and  N_13 
REMARK       I    between atoms: N_13  and  C_14 
REMARK       I    between atoms: C_14  and  N_16 
REMARK    6  A    between atoms: N_16  and  C_17 
ROOT
ATOM      1  C   UNL d   1      22.029 -18.540  -0.646  0.00  0.00     0.032 A 
ATOM      2  C   UNL d   1      21.810 -17.174  -0.895  0.00  0.00     0.019 A 
ATOM      3  C   UNL d   1      22.890 -16.272  -1.105  0.00  0.00     0.030 A 
ATOM      4  C   UNL d   1      24.218 -16.711  -1.003  0.00  0.00     0.036 A 
ATOM      5  C   UNL d   1      24.398 -18.082  -0.756  0.00  0.00     0.030 A 
ATOM      6  C   UNL d   1      23.340 -18.983  -0.565  0.00  0.00     0.019 A 
ENDROOT
BRANCH   4   7
ATOM      7  N   UNL d   1      25.327 -15.793  -1.120  0.00  0.00    -0.309 N 
ATOM      8  C   UNL d   1      25.682 -15.172  -2.314  0.00  0.00     0.325 C 
ATOM      9  O   UNL d   1      25.070 -15.330  -3.369  0.00  0.00    -0.247 OA
ATOM     10  N   UNL d   1      26.804 -14.349  -2.291  0.00  0.00    -0.309 N 
ATOM     11  H   UNL d   1      27.505 -14.468  -1.573  0.00  0.00     0.170 HD
ATOM     12  H   UNL d   1      25.907 -15.661  -0.303  0.00  0.00     0.170 HD
BRANCH  10  13
ATOM     13  C   UNL d   1      27.164 -13.617  -3.473  0.00  0.00     0.038 A 
ATOM     14  C   UNL d   1      26.801 -12.279  -3.659  0.00  0.00     0.031 A 
ATOM     15  C   UNL d   1      27.142 -11.613  -4.857  0.00  0.00     0.028 A 
ATOM     16  C   UNL d   1      27.874 -12.265  -5.856  0.00  0.00     0.055 A 
ATOM     17 CL   UNL d   1      28.327 -11.367  -7.262  0.00  0.00    -0.083 Cl
ATOM     18  C   UNL d   1      28.230 -13.600  -5.680  0.00  0.00     0.058 A 
ATOM     19 CL   UNL d   1      29.056 -14.513  -6.892  0.00  0.00    -0.082 Cl
ATOM     20  C   UNL d   1      27.879 -14.258  -4.498  0.00  0.00     0.055 A 
ENDBRANCH  10  13
ENDBRANCH   4   7
BRANCH   1  21
ATOM     21  C   UNL d   1      20.897 -19.519  -0.663  0.00  0.00     0.252 C 
ATOM     22  N   UNL d   1      20.602 -20.214   0.493  0.00  0.00    -0.348 N 
ATOM     23  H   UNL d   1      21.075 -20.002   1.367  0.00  0.00     0.163 HD
ATOM     24  O   UNL d   1      20.281 -19.698  -1.717  0.00  0.00    -0.268 OA
BRANCH  22  25
ATOM     25  C   UNL d   1      19.528 -21.219   0.549  0.00  0.00     0.233 C 
BRANCH  25  26
ATOM     26  C   UNL d   1      18.435 -20.819   1.542  0.00  0.00     0.276 C 
ATOM     27  O   UNL d   1      17.284 -21.254   1.498  0.00  0.00    -0.263 OA
BRANCH  26  28
ATOM     28  O   UNL d   1      18.887 -19.932   2.475  0.00  0.00    -0.325 OA
ATOM     29  C   UNL d   1      19.905 -20.450   3.348  0.00  0.00     0.213 C 
ENDBRANCH  26  28
ENDBRANCH  25  26
ENDBRANCH  22  25
ENDBRANCH   1  21
TORSDOF 6
ENDMDL
MODEL 2
REMARK VINA RESULT:    -8.392      0.960      1.111
REMARK INTER + INTRA:         -11.218
REMARK INTER:                 -10.181
REMARK INTRA:                  -1.037
REMARK CONF_INDEPENDENT:        1.790
REMARK UNBOUND:                -1.037
REMARK  6 active torsions:
REMARK  status: ('A' for Active; 'I' for Inactive)
REMARK    1  A    between atoms: O_2  and  C_3 
REMARK    2  A    between atoms: C_3  and  C_5 
REMARK    3  A    between atoms: C_5  and  N_6 
REMARK       I    between atoms: N_6  and  C_7 
REMARK    4  A    between atoms: C_7  and  C_9 
REMARK    5  A    between atoms: C_12  and  N_13 
REMARK       I    between atoms: N_13  and  C_14 
REMARK       I    between atoms: C_14  and  N_16 
REMARK    6  A    between atoms: N_16  and  C_17 
ROOT
ATOM      1  C   UNL d   1      22.095 -18.247  -0.530  0.00  0.00     0.032 A 
ATOM      2  C   UNL d   1      22.152 -16.889  -0.890  0.00  0.00     0.019 A 
ATOM      3  C   UNL d   1      23.385 -16.255  -1.212  0.00  0.00     0.030 A 
ATOM      4  C   UNL d   1      24.596 -16.956  -1.115  0.00  0.00     0.036 A 
ATOM      5  C   UNL d   1      24.499 -18.311  -0.757  0.00  0.00     0.030 A 
ATOM      6  C   UNL d   1      23.287 -18.950  -0.454  0.00  0.00     0.019 A 
ENDROOT
BRANCH   4   7
ATOM      7  N   UNL d   1      25.865 -16.306  -1.347  0.00  0.00    -0.309 N 
ATOM      8  C   UNL d   1      26.267 -15.839  -2.595  0.00  0.00     0.325 C 
ATOM      9  O   UNL d   1      25.570 -15.916  -3.606  0.00  0.00    -0.247 OA
ATOM     10  N   UNL d   1      27.537 -15.277  -2.681  0.00  0.00    -0.309 N 
ATOM     11  H   UNL d   1      28.241 -15.506  -1.994  0.00  0.00     0.170 HD
ATOM     12  H   UNL d   1      26.510 -16.259  -0.570  0.00  0.00     0.170 HD
BRANCH  10  13
ATOM     13  C   UNL d   1      27.969 -14.701  -3.925  0.00  0.00     0.038 A 
ATOM     14  C   UNL d   1      27.486 -13.472  -4.384  0.00  0.00     0.031 A 
ATOM     15  C   UNL d   1      27.909 -12.967  -5.633  0.00  0.00     0.028 A 
ATOM     16  C   UNL d   1      28.838 -13.666  -6.412  0.00  0.00     0.055 A 
ATOM     17 CL   UNL d   1      29.373 -12.952  -7.893  0.00  0.00    -0.083 Cl
ATOM     18  C   UNL d   1      29.316 -14.895  -5.964  0.00  0.00     0.058 A 
ATOM     19 CL   UNL d   1      30.396 -15.871  -6.894  0.00  0.00    -0.082 Cl
ATOM     20  C   UNL d   1      28.884 -15.397  -4.733  0.00  0.00     0.055 A 
ENDBRANCH  10  13
ENDBRANCH   4   7
BRANCH   1  21
ATOM     21  C   UNL d   1      20.784 -18.962  -0.427  0.00  0.00     0.252 C 
ATOM     22  N   UNL d   1      20.754 -20.211   0.162  0.00  0.00    -0.348 N 
ATOM     23  H   UNL d   1      21.581 -20.602   0.605  0.00  0.00     0.163 HD
ATOM     24  O   UNL d   1      19.776 -18.429  -0.897  0.00  0.00    -0.268 OA
BRANCH  22  25
ATOM     25  C   UNL d   1      19.513 -20.994   0.271  0.00  0.00     0.233 C 
BRANCH  25  26
ATOM     26  C   UNL d   1      18.748 -20.660   1.554  0.00  0.00     0.276 C 
ATOM     27  O   UNL d   1      17.623 -21.092   1.807  0.00  0.00    -0.263 OA
BRANCH  26  28
ATOM     28  O   UNL d   1      19.459 -19.836   2.377  0.00  0.00    -0.325 OA
ATOM     29  C   UNL d   1      19.905 -20.450   3.597  0.00  0.00     0.213 C 
ENDBRANCH  26  28
ENDBRANCH  25  26
ENDBRANCH  22  25
ENDBRANCH   1  21
TORSDOF 6
ENDMDL
MODEL 3
REMARK VINA RESULT:    -8.374      0.966      1.645
REMARK INTER + INTRA:         -11.415
REMARK INTER:                 -10.164
REMARK INTRA:                  -1.251
REMARK CONF_INDEPENDENT:        1.790
REMARK UNBOUND:                -1.251
REMARK  6 active torsions:
REMARK  status: ('A' for Active; 'I' for Inactive)
REMARK    1  A    between atoms: O_2  and  C_3 
REMARK    2  A    between atoms: C_3  and  C_5 
REMARK    3  A    between atoms: C_5  and  N_6 
REMARK       I    between atoms: N_6  and  C_7 
REMARK    4  A    between atoms: C_7  and  C_9 
REMARK    5  A    between atoms: C_12  and  N_13 
REMARK       I    between atoms: N_13  and  C_14 
REMARK       I    between atoms: C_14  and  N_16 
REMARK    6  A    between atoms: N_16  and  C_17 
ROOT
ATOM      1  C   UNL d   1      22.038 -18.571  -0.692  0.00  0.00     0.032 A 
ATOM      2  C   UNL d   1      21.822 -17.191  -0.852  0.00  0.00     0.019 A 
ATOM      3  C   UNL d   1      22.899 -16.290  -1.079  0.00  0.00     0.030 A 
ATOM      4  C   UNL d   1      24.225 -16.747  -1.082  0.00  0.00     0.036 A 
ATOM      5  C   UNL d   1      24.402 -18.132  -0.923  0.00  0.00     0.030 A 
ATOM      6  C   UNL d   1      23.345 -19.031  -0.716  0.00  0.00     0.019 A 
ENDROOT
BRANCH   4   7
ATOM      7  N   UNL d   1      25.337 -15.835  -1.217  0.00  0.00    -0.309 N 
ATOM      8  C   UNL d   1      25.538 -15.035  -2.339  0.00  0.00     0.325 C 
ATOM      9  O   UNL d   1      24.775 -15.016  -3.303  0.00  0.00    -0.247 OA
ATOM     10  N   UNL d   1      26.680 -14.240  -2.353  0.00  0.00    -0.309 N 
ATOM     11  H   UNL d   1      27.472 -14.480  -1.774  0.00  0.00     0.170 HD
ATOM     12  H   UNL d   1      26.033 -15.842  -0.484  0.00  0.00     0.170 HD
BRANCH  10  13
ATOM     13  C   UNL d   1      26.891 -13.332  -3.446  0.00  0.00     0.038 A 
ATOM     14  C   UNL d   1      27.773 -13.618  -4.492  0.00  0.00     0.031 A 
ATOM     15  C   UNL d   1      27.979 -12.676  -5.523  0.00  0.00     0.028 A 
ATOM     16  C   UNL d   1      27.281 -11.463  -5.535  0.00  0.00     0.055 A 
ATOM     17 CL   UNL d   1      27.519 -10.389  -6.868  0.00  0.00    -0.083 Cl
ATOM     18  C   UNL d   1      26.407 -11.168  -4.491  0.00  0.00     0.058 A 
ATOM     19 CL   UNL d   1      25.569  -9.662  -4.372  0.00  0.00    -0.082 Cl
ATOM     20  C   UNL d   1      26.218 -12.099  -3.465  0.00  0.00     0.055 A 
ENDBRANCH  10  13
ENDBRANCH   4   7
BRANCH   1  21
ATOM     21  C   UNL d   1      20.893 -19.536  -0.693  0.00  0.00     0.252 C 
ATOM     22  N   UNL d   1      20.594 -20.212   0.473  0.00  0.00    -0.348 N 
ATOM     23  H   UNL d   1      21.072 -19.995   1.342  0.00  0.00     0.163 HD
ATOM     24  O   UNL d   1      20.272 -19.721  -1.743  0.00  0.00    -0.268 OA
BRANCH  22  25
ATOM     25  C   UNL d   1      19.508 -21.203   0.545  0.00  0.00     0.233 C 
BRANCH  25  26
ATOM     26  C   UNL d   1      18.484 -20.837   1.622  0.00  0.00     0.276 C 
ATOM     27  O   UNL d   1      17.353 -21.321   1.676  0.00  0.00    -0.263 OA
BRANCH  26  28
ATOM     28  O   UNL d   1      18.973 -19.921   2.506  0.00  0.00    -0.325 OA
ATOM     29  C   UNL d   1      19.914 -20.450   3.455  0.00  0.00     0.213 C 
ENDBRANCH  26  28
ENDBRANCH  25  26
ENDBRANCH  22  25
ENDBRANCH   1  21
TORSDOF 6
ENDMDL
MODEL 4
REMARK VINA RESULT:    -8.243      2.420      3.196
REMARK INTER + INTRA:         -10.910
REMARK INTER:                 -10.033
REMARK INTRA:                  -0.877
REMARK CONF_INDEPENDENT:        1.790
REMARK UNBOUND:                -0.877
REMARK  6 active torsions:
REMARK  status: ('A' for Active; 'I' for Inactive)
REMARK    1  A    between atoms: O_2  and  C_3 
REMARK    2  A    between atoms: C_3  and  C_5 
REMARK    3  A    between atoms: C_5  and  N_6 
REMARK       I    between atoms: N_6  and  C_7 
REMARK    4  A    between atoms: C_7  and  C_9 
REMARK    5  A    between atoms: C_12  and  N_13 
REMARK       I    between atoms: N_13  and  C_14 
REMARK       I    between atoms: C_14  and  N_16 
REMARK    6  A    between atoms: N_16  and  C_17 
ROOT
ATOM      1  C   UNL d   1      23.700 -17.534  -0.824  0.00  0.00     0.032 A 
ATOM      2  C   UNL d   1      24.752 -18.201  -0.171  0.00  0.00     0.019 A 
ATOM      3  C   UNL d   1      26.102 -17.771  -0.305  0.00  0.00     0.030 A 
ATOM      4  C   UNL d   1      26.432 -16.703  -1.151  0.00  0.00     0.036 A 
ATOM      5  C   UNL d   1      25.356 -16.060  -1.783  0.00  0.00     0.030 A 
ATOM      6  C   UNL d   1      24.019 -16.464  -1.644  0.00  0.00     0.019 A 
ENDROOT
BRANCH   4   7
ATOM      7  N   UNL d   1      27.805 -16.312  -1.372  0.00  0.00    -0.309 N 
ATOM      8  C   UNL d   1      28.311 -15.972  -2.623  0.00  0.00     0.325 C 
ATOM      9  O   UNL d   1      27.631 -15.951  -3.647  0.00  0.00    -0.247 OA
ATOM     10  N   UNL d   1      29.666 -15.663  -2.695  0.00  0.00    -0.309 N 
ATOM     11  H   UNL d   1      30.302 -15.997  -1.985  0.00  0.00     0.170 HD
ATOM     12  H   UNL d   1      28.434 -16.362  -0.581  0.00  0.00     0.170 HD
BRANCH  10  13
ATOM     13  C   UNL d   1      30.221 -15.221  -3.945  0.00  0.00     0.038 A 
ATOM     14  C   UNL d   1      30.461 -13.871  -4.218  0.00  0.00     0.031 A 
ATOM     15  C   UNL d   1      30.968 -13.483  -5.477  0.00  0.00     0.028 A 
ATOM     16  C   UNL d   1      31.272 -14.438  -6.454  0.00  0.00     0.055 A 
ATOM     17 CL   UNL d   1      31.966 -13.901  -7.943  0.00  0.00    -0.083 Cl
ATOM     18  C   UNL d   1      31.028 -15.784  -6.191  0.00  0.00     0.058 A 
ATOM     19 CL   UNL d   1      31.287 -17.026  -7.363  0.00  0.00    -0.082 Cl
ATOM     20  C   UNL d   1      30.512 -16.162  -4.947  0.00  0.00     0.055 A 
ENDBRANCH  10  13
ENDBRANCH   4   7
BRANCH   1  21
ATOM     21  C   UNL d   1      22.272 -17.838  -0.494  0.00  0.00     0.252 C 
ATOM     22  N   UNL d   1      21.985 -18.984   0.220  0.00  0.00    -0.348 N 
ATOM     23  H   UNL d   1      22.727 -19.564   0.600  0.00  0.00     0.163 HD
ATOM     24  O   UNL d   1      21.392 -17.071  -0.895  0.00  0.00    -0.268 OA
BRANCH  22  25
ATOM     25  C   UNL d   1      20.605 -19.373   0.554  0.00  0.00     0.233 C 
BRANCH  25  26
ATOM     26  C   UNL d   1      19.814 -19.764  -0.697  0.00  0.00     0.276 C 
ATOM     27  O   UNL d   1      20.272 -19.700  -1.838  0.00  0.00    -0.263 OA
BRANCH  26  28
ATOM     28  O   UNL d   1      18.554 -20.191  -0.396  0.00  0.00    -0.325 OA
ATOM     29  C   UNL d   1      18.460 -20.973   0.806  0.00  0.00     0.213 C 
ENDBRANCH  26  28
ENDBRANCH  25  26
ENDBRANCH  22  25
ENDBRANCH   1  21
TORSDOF 6
ENDMDL
MODEL 5
REMARK VINA RESULT:    -7.860      4.783      5.548
REMARK INTER + INTRA:         -10.487
REMARK INTER:                  -9.650
REMARK INTRA:                  -0.837
REMARK CONF_INDEPENDENT:        1.790
REMARK UNBOUND:                -0.837
REMARK  6 active torsions:
REMARK  status: ('A' for Active; 'I' for Inactive)
REMARK    1  A    between atoms: O_2  and  C_3 
REMARK    2  A    between atoms: C_3  and  C_5 
REMARK    3  A    between atoms: C_5  and  N_6 
REMARK       I    between atoms: N_6  and  C_7 
REMARK    4  A    between atoms: C_7  and  C_9 
REMARK    5  A    between atoms: C_12  and  N_13 
REMARK       I    between atoms: N_13  and  C_14 
REMARK       I    between atoms: C_14  and  N_16 
REMARK    6  A    between atoms: N_16  and  C_17 
ROOT
ATOM      1  C   UNL d   1      23.976 -17.994  -0.741  0.00  0.00     0.032 A 
ATOM      2  C   UNL d   1      25.023 -18.394   0.109  0.00  0.00     0.019 A 
ATOM      3  C   UNL d   1      26.093 -17.516   0.436  0.00  0.00     0.030 A 
ATOM      4  C   UNL d   1      26.171 -16.239  -0.138  0.00  0.00     0.036 A 
ATOM      5  C   UNL d   1      25.107 -15.872  -0.978  0.00  0.00     0.030 A 
ATOM      6  C   UNL d   1      24.038 -16.724  -1.294  0.00  0.00     0.019 A 
ENDROOT
BRANCH   4   7
ATOM      7  N   UNL d   1      27.297 -15.368   0.109  0.00  0.00    -0.309 N 
ATOM      8  C   UNL d   1      27.204 -14.184   0.835  0.00  0.00     0.325 C 
ATOM      9  O   UNL d   1      26.161 -13.785   1.351  0.00  0.00    -0.247 OA
ATOM     10  N   UNL d   1      28.361 -13.420   0.951  0.00  0.00    -0.309 N 
ATOM     11  H   UNL d   1      29.108 -13.525   0.280  0.00  0.00     0.170 HD
ATOM     12  H   UNL d   1      28.174 -15.608  -0.334  0.00  0.00     0.170 HD
BRANCH  10  13
ATOM     13  C   UNL d   1      28.342 -12.234   1.762  0.00  0.00     0.038 A 
ATOM     14  C   UNL d   1      29.299 -11.992   2.751  0.00  0.00     0.031 A 
ATOM     15  C   UNL d   1      29.214 -10.832   3.551  0.00  0.00     0.028 A 
ATOM     16  C   UNL d   1      28.198  -9.891   3.344  0.00  0.00     0.055 A 
ATOM     17 CL   UNL d   1      28.198  -8.454   4.304  0.00  0.00    -0.083 Cl
ATOM     18  C   UNL d   1      27.236 -10.131   2.366  0.00  0.00     0.058 A 
ATOM     19 CL   UNL d   1      25.895  -9.074   2.096  0.00  0.00    -0.082 Cl
ATOM     20  C   UNL d   1      27.317 -11.289   1.586  0.00  0.00     0.055 A 
ENDBRANCH  10  13
ENDBRANCH   4   7
BRANCH   1  21
ATOM     21  C   UNL d   1      22.742 -18.828  -0.891  0.00  0.00     0.252 C 
ATOM     22  N   UNL d   1      22.049 -19.196   0.245  0.00  0.00    -0.348 N 
ATOM     23  H   UNL d   1      22.308 -18.834   1.158  0.00  0.00     0.163 HD
ATOM     24  O   UNL d   1      22.399 -19.186  -2.020  0.00  0.00    -0.268 OA
BRANCH  22  25
ATOM     25  C   UNL d   1      20.847 -20.044   0.187  0.00  0.00     0.233 C 
BRANCH  25  26
ATOM     26  C   UNL d   1      19.674 -19.312  -0.469  0.00  0.00     0.276 C 
ATOM     27  O   UNL d   1      19.746 -18.159  -0.896  0.00  0.00    -0.263 OA
BRANCH  26  28
ATOM     28  O   UNL d   1      18.551 -20.084  -0.523  0.00  0.00    -0.325 OA
ATOM     29  C   UNL d   1      18.374 -20.961   0.601  0.00  0.00     0.213 C 
ENDBRANCH  26  28
ENDBRANCH  25  26
ENDBRANCH  22  25
ENDBRANCH   1  21
TORSDOF 6
ENDMDL
MODEL 6
REMARK VINA RESULT:    -7.621      1.908      3.338
REMARK INTER + INTRA:         -10.600
REMARK INTER:                  -9.411
REMARK INTRA:                  -1.188
REMARK CONF_INDEPENDENT:        1.790
REMARK UNBOUND:                -1.188
REMARK  6 active torsions:
REMARK  status: ('A' for Active; 'I' for Inactive)
REMARK    1  A    between atoms: O_2  and  C_3 
REMARK    2  A    between atoms: C_3  and  C_5 
REMARK    3  A    between atoms: C_5  and  N_6 
REMARK       I    between atoms: N_6  and  C_7 
REMARK    4  A    between atoms: C_7  and  C_9 
REMARK    5  A    between atoms: C_12  and  N_13 
REMARK       I    between atoms: N_13  and  C_14 
REMARK       I    between atoms: C_14  and  N_16 
REMARK    6  A    between atoms: N_16  and  C_17 
ROOT
ATOM      1  C   UNL d   1      24.480 -17.362  -0.925  0.00  0.00     0.032 A 
ATOM      2  C   UNL d   1      25.866 -17.519  -0.748  0.00  0.00     0.019 A 
ATOM      3  C   UNL d   1      26.797 -16.596  -1.302  0.00  0.00     0.030 A 
ATOM      4  C   UNL d   1      26.358 -15.532  -2.102  0.00  0.00     0.036 A 
ATOM      5  C   UNL d   1      24.967 -15.405  -2.254  0.00  0.00     0.030 A 
ATOM      6  C   UNL d   1      24.040 -16.299  -1.698  0.00  0.00     0.019 A 
ENDROOT
BRANCH   4   7
ATOM      7  N   UNL d   1      27.292 -14.640  -2.750  0.00  0.00    -0.309 N 
ATOM      8  C   UNL d   1      27.168 -14.234  -4.075  0.00  0.00     0.325 C 
ATOM      9  O   UNL d   1      26.241 -14.579  -4.807  0.00  0.00    -0.247 OA
ATOM     10  N   UNL d   1      28.169 -13.411  -4.581  0.00  0.00    -0.309 N 
ATOM     11  H   UNL d   1      29.081 -13.396  -4.148  0.00  0.00     0.170 HD
ATOM     12  H   UNL d   1      28.109 -14.362  -2.222  0.00  0.00     0.170 HD
BRANCH  10  13
ATOM     13  C   UNL d   1      28.046 -12.893  -5.916  0.00  0.00     0.038 A 
ATOM     14  C   UNL d   1      28.648 -13.513  -7.014  0.00  0.00     0.031 A 
ATOM     15  C   UNL d   1      28.533 -12.943  -8.301  0.00  0.00     0.028 A 
ATOM     16  C   UNL d   1      27.790 -11.775  -8.504  0.00  0.00     0.055 A 
ATOM     17 CL   UNL d   1      27.623 -11.175 -10.116  0.00  0.00    -0.083 Cl
ATOM     18  C   UNL d   1      27.195 -11.147  -7.412  0.00  0.00     0.058 A 
ATOM     19 CL   UNL d   1      26.333  -9.656  -7.548  0.00  0.00    -0.082 Cl
ATOM     20  C   UNL d   1      27.323 -11.708  -6.138  0.00  0.00     0.055 A 
ENDBRANCH  10  13
ENDBRANCH   4   7
BRANCH   1  21
ATOM     21  C   UNL d   1      23.504 -18.190  -0.149  0.00  0.00     0.252 C 
ATOM     22  N   UNL d   1      22.275 -18.470  -0.712  0.00  0.00    -0.348 N 
ATOM     23  H   UNL d   1      22.065 -18.205  -1.669  0.00  0.00     0.163 HD
ATOM     24  O   UNL d   1      23.816 -18.573   0.982  0.00  0.00    -0.268 OA
BRANCH  22  25
ATOM     25  C   UNL d   1      21.247 -19.247   0.001  0.00  0.00     0.233 C 
BRANCH  25  26
ATOM     26  C   UNL d   1      20.130 -19.697  -0.943  0.00  0.00     0.276 C 
ATOM     27  O   UNL d   1      20.236 -19.701  -2.170  0.00  0.00    -0.263 OA
BRANCH  26  28
ATOM     28  O   UNL d   1      19.014 -20.093  -0.266  0.00  0.00    -0.325 OA
ATOM     29  C   UNL d   1      19.263 -20.585   1.061  0.00  0.00     0.213 C 
ENDBRANCH  26  28
ENDBRANCH  25  26
ENDBRANCH  22  25
ENDBRANCH   1  21
TORSDOF 6
ENDMDL
MODEL 7
REMARK VINA RESULT:    -7.586      5.104      5.670
REMARK INTER + INTRA:         -10.285
REMARK INTER:                  -9.376
REMARK INTRA:                  -0.910
REMARK CONF_INDEPENDENT:        1.790
REMARK UNBOUND:                -0.910
REMARK  6 active torsions:
REMARK  status: ('A' for Active; 'I' for Inactive)
REMARK    1  A    between atoms: O_2  and  C_3 
REMARK    2  A    between atoms: C_3  and  C_5 
REMARK    3  A    between atoms: C_5  and  N_6 
REMARK       I    between atoms: N_6  and  C_7 
REMARK    4  A    between atoms: C_7  and  C_9 
REMARK    5  A    between atoms: C_12  and  N_13 
REMARK       I    between atoms: N_13  and  C_14 
REMARK       I    between atoms: C_14  and  N_16 
REMARK    6  A    between atoms: N_16  and  C_17 
ROOT
ATOM      1  C   UNL d   1      23.312 -17.825  -0.597  0.00  0.00     0.032 A 
ATOM      2  C   UNL d   1      24.294 -18.577   0.072  0.00  0.00     0.019 A 
ATOM      3  C   UNL d   1      25.617 -18.084   0.248  0.00  0.00     0.030 A 
ATOM      4  C   UNL d   1      26.001 -16.854  -0.303  0.00  0.00     0.036 A 
ATOM      5  C   UNL d   1      24.993 -16.129  -0.961  0.00  0.00     0.030 A 
ATOM      6  C   UNL d   1      23.681 -16.598  -1.124  0.00  0.00     0.019 A 
ENDROOT
BRANCH   4   7
ATOM      7  N   UNL d   1      27.363 -16.380  -0.216  0.00  0.00    -0.309 N 
ATOM      8  C   UNL d   1      27.782 -15.423   0.705  0.00  0.00     0.325 C 
ATOM      9  O   UNL d   1      27.037 -14.913   1.540  0.00  0.00    -0.247 OA
ATOM     10  N   UNL d   1      29.114 -15.025   0.642  0.00  0.00    -0.309 N 
ATOM     11  H   UNL d   1      29.640 -15.147  -0.211  0.00  0.00     0.170 HD
ATOM     12  H   UNL d   1      28.016 -16.717  -0.910  0.00  0.00     0.170 HD
BRANCH  10  13
ATOM     13  C   UNL d   1      29.619 -14.105   1.623  0.00  0.00     0.038 A 
ATOM     14  C   UNL d   1      30.339 -12.960   1.269  0.00  0.00     0.031 A 
ATOM     15  C   UNL d   1      30.852 -12.108   2.271  0.00  0.00     0.028 A 
ATOM     16  C   UNL d   1      30.620 -12.373   3.626  0.00  0.00     0.055 A 
ATOM     17 CL   UNL d   1      31.207 -11.246   4.798  0.00  0.00    -0.083 Cl
ATOM     18  C   UNL d   1      29.912 -13.517   3.985  0.00  0.00     0.058 A 
ATOM     19 CL   UNL d   1      29.652 -13.976   5.630  0.00  0.00    -0.082 Cl
ATOM     20  C   UNL d   1      29.418 -14.365   2.989  0.00  0.00     0.055 A 
ENDBRANCH  10  13
ENDBRANCH   4   7
BRANCH   1  21
ATOM     21  C   UNL d   1      21.873 -18.238  -0.571  0.00  0.00     0.252 C 
ATOM     22  N   UNL d   1      21.548 -19.477  -0.056  0.00  0.00    -0.348 N 
ATOM     23  H   UNL d   1      22.251 -20.062   0.386  0.00  0.00     0.163 HD
ATOM     24  O   UNL d   1      21.026 -17.473  -1.037  0.00  0.00    -0.268 OA
BRANCH  22  25
ATOM     25  C   UNL d   1      20.162 -19.972  -0.027  0.00  0.00     0.233 C 
BRANCH  25  26
ATOM     26  C   UNL d   1      19.611 -20.016   1.401  0.00  0.00     0.276 C 
ATOM     27  O   UNL d   1      20.291 -19.778   2.399  0.00  0.00    -0.263 OA
BRANCH  26  28
ATOM     28  O   UNL d   1      18.287 -20.345   1.431  0.00  0.00    -0.325 OA
ATOM     29  C   UNL d   1      17.992 -21.678   0.983  0.00  0.00     0.213 C 
ENDBRANCH  26  28
ENDBRANCH  25  26
ENDBRANCH  22  25
ENDBRANCH   1  21
TORSDOF 6
ENDMDL
MODEL 8
REMARK VINA RESULT:    -7.490      3.702      4.287
REMARK INTER + INTRA:         -10.542
REMARK INTER:                  -9.279
REMARK INTRA:                  -1.263
REMARK CONF_INDEPENDENT:        1.790
REMARK UNBOUND:                -1.263
REMARK  6 active torsions:
REMARK  status: ('A' for Active; 'I' for Inactive)
REMARK    1  A    between atoms: O_2  and  C_3 
REMARK    2  A    between atoms: C_3  and  C_5 
REMARK    3  A    between atoms: C_5  and  N_6 
REMARK       I    between atoms: N_6  and  C_7 
REMARK    4  A    between atoms: C_7  and  C_9 
REMARK    5  A    between atoms: C_12  and  N_13 
REMARK       I    between atoms: N_13  and  C_14 
REMARK       I    between atoms: C_14  and  N_16 
REMARK    6  A    between atoms: N_16  and  C_17 
ROOT
ATOM      1  C   UNL d   1      22.341 -18.473  -0.551  0.00  0.00     0.032 A 
ATOM      2  C   UNL d   1      22.316 -17.099  -0.851  0.00  0.00     0.019 A 
ATOM      3  C   UNL d   1      23.510 -16.324  -0.894  0.00  0.00     0.030 A 
ATOM      4  C   UNL d   1      24.747 -16.900  -0.570  0.00  0.00     0.036 A 
ATOM      5  C   UNL d   1      24.733 -18.274  -0.280  0.00  0.00     0.030 A 
ATOM      6  C   UNL d   1      23.565 -19.050  -0.252  0.00  0.00     0.019 A 
ENDROOT
BRANCH   4   7
ATOM      7  N   UNL d   1      25.955 -16.110  -0.517  0.00  0.00    -0.309 N 
ATOM      8  C   UNL d   1      27.231 -16.666  -0.477  0.00  0.00     0.325 C 
ATOM      9  O   UNL d   1      27.444 -17.876  -0.507  0.00  0.00    -0.247 OA
ATOM     10  N   UNL d   1      28.303 -15.783  -0.378  0.00  0.00    -0.309 N 
ATOM     11  H   UNL d   1      28.162 -14.853  -0.011  0.00  0.00     0.170 HD
ATOM     12  H   UNL d   1      25.850 -15.107  -0.434  0.00  0.00     0.170 HD
BRANCH  10  13
ATOM     13  C   UNL d   1      29.643 -16.298  -0.420  0.00  0.00     0.038 A 
ATOM     14  C   UNL d   1      30.602 -15.959   0.539  0.00  0.00     0.031 A 
ATOM     15  C   UNL d   1      31.918 -16.458   0.432  0.00  0.00     0.028 A 
ATOM     16  C   UNL d   1      32.275 -17.323  -0.609  0.00  0.00     0.055 A 
ATOM     17 CL   UNL d   1      33.881 -17.961  -0.636  0.00  0.00    -0.083 Cl
ATOM     18  C   UNL d   1      31.326 -17.658  -1.572  0.00  0.00     0.058 A 
ATOM     19 CL   UNL d   1      31.695 -18.647  -2.940  0.00  0.00    -0.082 Cl
ATOM     20  C   UNL d   1      30.028 -17.151  -1.469  0.00  0.00     0.055 A 
ENDBRANCH  10  13
ENDBRANCH   4   7
BRANCH   1  21
ATOM     21  C   UNL d   1      21.125 -19.325  -0.741  0.00  0.00     0.252 C 
ATOM     22  N   UNL d   1      20.628 -20.022   0.342  0.00  0.00    -0.348 N 
ATOM     23  H   UNL d   1      21.015 -19.891   1.272  0.00  0.00     0.163 HD
ATOM     24  O   UNL d   1      20.622 -19.403  -1.864  0.00  0.00    -0.268 OA
BRANCH  22  25
ATOM     25  C   UNL d   1      19.459 -20.910   0.231  0.00  0.00     0.233 C 
BRANCH  25  26
ATOM     26  C   UNL d   1      18.564 -20.817   1.469  0.00  0.00     0.276 C 
ATOM     27  O   UNL d   1      17.546 -21.492   1.623  0.00  0.00    -0.263 OA
BRANCH  26  28
ATOM     28  O   UNL d   1      19.028 -19.906   2.372  0.00  0.00    -0.325 OA
ATOM     29  C   UNL d   1      19.905 -20.450   3.372  0.00  0.00     0.213 C 
ENDBRANCH  26  28
ENDBRANCH  25  26
ENDBRANCH  22  25
ENDBRANCH   1  21
TORSDOF 6
ENDMDL
