MODEL 1
REMARK VINA RESULT:    -8.143      0.000      0.000
REMARK INTER + INTRA:         -11.096
REMARK INTER:                 -10.231
REMARK INTRA:                  -0.865
REMARK CONF_INDEPENDENT:        2.088
REMARK UNBOUND:                -0.865
REMARK  7 active torsions:
REMARK  status: ('A' for Active; 'I' for Inactive)
REMARK       I    between atoms: C_2  and  N_4 
REMARK    1  A    between atoms: N_4  and  C_5 
REMARK    2  A    between atoms: C_5  and  N_7 
REMARK    3  A    between atoms: N_7  and  N_8 
REMARK       I    between atoms: N_8  and  C_9 
REMARK    4  A    between atoms: C_9  and  C_11 
REMARK    5  A    between atoms: C_11  and  C_12 
REMARK    6  A    between atoms: C_12  and  C_13 
REMARK       I    between atoms: C_13  and  N_15 
REMARK    7  A    between atoms: N_15  and  C_16 
ROOT
ATOM      1  N   UNL d   1      26.515 -16.628   0.213  0.00  0.00    -0.268 N 
ATOM      2  C   UNL d   1      26.147 -17.954   0.033  0.00  0.00     0.236 C 
ATOM      3  O   UNL d   1      26.794 -18.881   0.529  0.00  0.00    -0.272 OA
ATOM      4  H   UNL d   1      25.991 -15.848  -0.189  0.00  0.00     0.190 HD
ENDROOT
BRANCH   2   5
ATOM      5  C   UNL d   1      24.888 -18.190  -0.820  0.00  0.00     0.114 C 
BRANCH   5   6
ATOM      6  C   UNL d   1      23.607 -17.545  -0.227  0.00  0.00     0.112 C 
BRANCH   6   7
ATOM      7  C   UNL d   1      22.380 -18.435  -0.429  0.00  0.00     0.222 C 
ATOM      8  O   UNL d   1      22.167 -18.954  -1.529  0.00  0.00    -0.273 OA
ATOM      9  N   UNL d   1      21.535 -18.577   0.670  0.00  0.00    -0.327 N 
ATOM     10  H   UNL d   1      21.644 -17.967   1.471  0.00  0.00     0.169 HD
BRANCH   9  11
ATOM     11  C   UNL d   1      20.392 -19.425   0.652  0.00  0.00     0.034 A 
ATOM     12  C   UNL d   1      19.672 -19.644  -0.530  0.00  0.00     0.029 A 
ATOM     13  C   UNL d   1      18.518 -20.446  -0.518  0.00  0.00     0.002 A 
ATOM     14  C   UNL d   1      18.090 -21.048   0.665  0.00  0.00     0.000 A 
ATOM     15  C   UNL d   1      18.795 -20.826   1.842  0.00  0.00     0.002 A 
ATOM     16  C   UNL d   1      19.936 -20.021   1.832  0.00  0.00     0.029 A 
ENDBRANCH   9  11
ENDBRANCH   6   7
ENDBRANCH   5   6
ENDBRANCH   2   5
BRANCH   1  17
ATOM     17  N   UNL d   1      27.688 -16.251   0.999  0.00  0.00    -0.273 N 
ATOM     18  H   UNL d   1      28.376 -16.993   1.112  0.00  0.00     0.189 HD
BRANCH  17  19
ATOM     19  C   UNL d   1      27.774 -14.945   1.518  0.00  0.00     0.193 C 
ATOM     20  S   UNL d   1      27.323 -13.640   0.545  0.00  0.00    -0.039 SA
BRANCH  19  21
ATOM     21  N   UNL d   1      28.245 -14.838   2.850  0.00  0.00    -0.303 N 
ATOM     22  C   UNL d   1      27.677 -14.057   3.876  0.00  0.00     0.219 C 
ATOM     23  C   UNL d   1      28.330 -14.073   5.242  0.00  0.00     0.117 C 
ATOM     24  O   UNL d   1      26.674 -13.349   3.749  0.00  0.00    -0.274 OA
ATOM     25  H   UNL d   1      29.069 -15.368   3.101  0.00  0.00     0.171 HD
ENDBRANCH  19  21
ENDBRANCH  17  19
ENDBRANCH   1  17
TORSDOF 7
ENDMDL
MODEL 2
REMARK VINA RESULT:    -7.457      3.944      4.833
REMARK INTER + INTRA:         -10.747
REMARK INTER:                  -9.545
REMARK INTRA:                  -1.202
REMARK CONF_INDEPENDENT:        2.088
REMARK UNBOUND:                -1.202
REMARK  7 active torsions:
REMARK  status: ('A' for Active; 'I' for Inactive)
REMARK       I    between atoms: C_2  and  N_4 
REMARK    1  A    between atoms: N_4  and  C_5 
REMARK    2  A    between atoms: C_5  and  N_7 
REMARK    3  A    between atoms: N_7  and  N_8 
REMARK       I    between atoms: N_8  and  C_9 
REMARK    4  A    between atoms: C_9  and  C_11 
REMARK    5  A    between atoms: C_11  and  C_12 
REMARK    6  A    between atoms: C_12  and  C_13 
REMARK       I    between atoms: C_13  and  N_15 
REMARK    7  A    between atoms: N_15  and  C_16 
ROOT
ATOM      1  N   UNL d   1      25.420 -15.498  -2.636  0.00  0.00    -0.268 N 
ATOM      2  C   UNL d   1      24.649 -16.223  -1.738  0.00  0.00     0.236 C 
ATOM      3  O   UNL d   1      23.458 -15.960  -1.543  0.00  0.00    -0.272 OA
ATOM      4  H   UNL d   1      26.406 -15.701  -2.812  0.00  0.00     0.190 HD
ENDROOT
BRANCH   2   5
ATOM      5  C   UNL d   1      25.372 -17.367  -1.007  0.00  0.00     0.114 C 
BRANCH   5   6
ATOM      6  C   UNL d   1      24.632 -17.853   0.269  0.00  0.00     0.112 C 
BRANCH   6   7
ATOM      7  C   UNL d   1      23.390 -18.675  -0.077  0.00  0.00     0.222 C 
ATOM      8  O   UNL d   1      23.474 -19.620  -0.867  0.00  0.00    -0.273 OA
ATOM      9  N   UNL d   1      22.197 -18.266   0.515  0.00  0.00    -0.327 N 
ATOM     10  H   UNL d   1      22.148 -17.368   0.981  0.00  0.00     0.169 HD
BRANCH   9  11
ATOM     11  C   UNL d   1      20.973 -18.972   0.340  0.00  0.00     0.034 A 
ATOM     12  C   UNL d   1      20.405 -19.707   1.389  0.00  0.00     0.029 A 
ATOM     13  C   UNL d   1      19.222 -20.436   1.183  0.00  0.00     0.002 A 
ATOM     14  C   UNL d   1      18.590 -20.419  -0.060  0.00  0.00     0.000 A 
ATOM     15  C   UNL d   1      19.155 -19.700  -1.107  0.00  0.00     0.002 A 
ATOM     16  C   UNL d   1      20.336 -18.983  -0.905  0.00  0.00     0.029 A 
ENDBRANCH   9  11
ENDBRANCH   6   7
ENDBRANCH   5   6
ENDBRANCH   2   5
BRANCH   1  17
ATOM     17  N   UNL d   1      24.869 -14.382  -3.404  0.00  0.00    -0.273 N 
ATOM     18  H   UNL d   1      23.930 -14.101  -3.125  0.00  0.00     0.189 HD
BRANCH  17  19
ATOM     19  C   UNL d   1      25.645 -13.805  -4.426  0.00  0.00     0.193 C 
ATOM     20  S   UNL d   1      26.657 -14.792  -5.351  0.00  0.00    -0.039 SA
BRANCH  19  21
ATOM     21  N   UNL d   1      25.505 -12.404  -4.595  0.00  0.00    -0.303 N 
ATOM     22  C   UNL d   1      26.285 -11.408  -3.976  0.00  0.00     0.219 C 
ATOM     23  C   UNL d   1      25.979  -9.956  -4.284  0.00  0.00     0.117 C 
ATOM     24  O   UNL d   1      27.212 -11.624  -3.191  0.00  0.00    -0.274 OA
ATOM     25  H   UNL d   1      24.777 -12.077  -5.216  0.00  0.00     0.171 HD
ENDBRANCH  19  21
ENDBRANCH  17  19
ENDBRANCH   1  17
TORSDOF 7
ENDMDL
MODEL 3
REMARK VINA RESULT:    -7.341      1.889      8.711
REMARK INTER + INTRA:         -10.327
REMARK INTER:                  -9.429
REMARK INTRA:                  -0.898
REMARK CONF_INDEPENDENT:        2.088
REMARK UNBOUND:                -0.898
REMARK  7 active torsions:
REMARK  status: ('A' for Active; 'I' for Inactive)
REMARK       I    between atoms: C_2  and  N_4 
REMARK    1  A    between atoms: N_4  and  C_5 
REMARK    2  A    between atoms: C_5  and  N_7 
REMARK    3  A    between atoms: N_7  and  N_8 
REMARK       I    between atoms: N_8  and  C_9 
REMARK    4  A    between atoms: C_9  and  C_11 
REMARK    5  A    between atoms: C_11  and  C_12 
REMARK    6  A    between atoms: C_12  and  C_13 
REMARK       I    between atoms: C_13  and  N_15 
REMARK    7  A    between atoms: N_15  and  C_16 
ROOT
ATOM      1  N   UNL d   1      25.368 -17.525  -0.043  0.00  0.00    -0.268 N 
ATOM      2  C   UNL d   1      26.578 -17.708   0.610  0.00  0.00     0.236 C 
ATOM      3  O   UNL d   1      26.778 -18.676   1.351  0.00  0.00    -0.272 OA
ATOM      4  H   UNL d   1      25.185 -16.732  -0.661  0.00  0.00     0.190 HD
ENDROOT
BRANCH   2   5
ATOM      5  C   UNL d   1      27.647 -16.632   0.353  0.00  0.00     0.114 C 
BRANCH   5   6
ATOM      6  C   UNL d   1      27.067 -15.198   0.226  0.00  0.00     0.112 C 
BRANCH   6   7
ATOM      7  C   UNL d   1      27.360 -14.357   1.468  0.00  0.00     0.222 C 
ATOM      8  O   UNL d   1      27.031 -13.167   1.502  0.00  0.00    -0.273 OA
ATOM      9  N   UNL d   1      28.036 -15.001   2.503  0.00  0.00    -0.327 N 
ATOM     10  H   UNL d   1      28.463 -15.905   2.338  0.00  0.00     0.169 HD
BRANCH   9  11
ATOM     11  C   UNL d   1      28.320 -14.367   3.745  0.00  0.00     0.034 A 
ATOM     12  C   UNL d   1      29.355 -14.825   4.570  0.00  0.00     0.029 A 
ATOM     13  C   UNL d   1      29.590 -14.215   5.815  0.00  0.00     0.002 A 
ATOM     14  C   UNL d   1      28.810 -13.137   6.231  0.00  0.00     0.000 A 
ATOM     15  C   UNL d   1      27.775 -12.685   5.419  0.00  0.00     0.002 A 
ATOM     16  C   UNL d   1      27.536 -13.297   4.187  0.00  0.00     0.029 A 
ENDBRANCH   9  11
ENDBRANCH   6   7
ENDBRANCH   5   6
ENDBRANCH   2   5
BRANCH   1  17
ATOM     17  N   UNL d   1      24.259 -18.466   0.106  0.00  0.00    -0.273 N 
ATOM     18  H   UNL d   1      24.535 -19.401   0.401  0.00  0.00     0.189 HD
BRANCH  17  19
ATOM     19  C   UNL d   1      22.948 -18.027  -0.159  0.00  0.00     0.193 C 
ATOM     20  S   UNL d   1      22.698 -16.434  -0.664  0.00  0.00    -0.039 SA
BRANCH  19  21
ATOM     21  N   UNL d   1      21.923 -18.988   0.027  0.00  0.00    -0.303 N 
ATOM     22  C   UNL d   1      20.630 -18.948  -0.531  0.00  0.00     0.219 C 
ATOM     23  C   UNL d   1      19.670 -20.075  -0.212  0.00  0.00     0.117 C 
ATOM     24  O   UNL d   1      20.209 -18.054  -1.270  0.00  0.00    -0.274 OA
ATOM     25  H   UNL d   1      22.128 -19.784   0.616  0.00  0.00     0.171 HD
ENDBRANCH  19  21
ENDBRANCH  17  19
ENDBRANCH   1  17
TORSDOF 7
ENDMDL
MODEL 4
REMARK VINA RESULT:    -7.338      2.975      3.813
REMARK INTER + INTRA:         -10.870
REMARK INTER:                  -9.426
REMARK INTRA:                  -1.444
REMARK CONF_INDEPENDENT:        2.088
REMARK UNBOUND:                -1.444
REMARK  7 active torsions:
REMARK  status: ('A' for Active; 'I' for Inactive)
REMARK       I    between atoms: C_2  and  N_4 
REMARK    1  A    between atoms: N_4  and  C_5 
REMARK    2  A    between atoms: C_5  and  N_7 
REMARK    3  A    between atoms: N_7  and  N_8 
REMARK       I    between atoms: N_8  and  C_9 
REMARK    4  A    between atoms: C_9  and  C_11 
REMARK    5  A    between atoms: C_11  and  C_12 
REMARK    6  A    between atoms: C_12  and  C_13 
REMARK       I    between atoms: C_13  and  N_15 
REMARK    7  A    between atoms: N_15  and  C_16 
ROOT
ATOM      1  N   UNL d   1      26.142 -16.277  -0.479  0.00  0.00    -0.268 N 
ATOM      2  C   UNL d   1      25.838 -17.583  -0.124  0.00  0.00     0.236 C 
ATOM      3  O   UNL d   1      26.703 -18.465  -0.085  0.00  0.00    -0.272 OA
ATOM      4  H   UNL d   1      25.441 -15.534  -0.516  0.00  0.00     0.190 HD
ENDROOT
BRANCH   2   5
ATOM      5  C   UNL d   1      24.364 -17.859   0.217  0.00  0.00     0.114 C 
BRANCH   5   6
ATOM      6  C   UNL d   1      23.405 -17.690  -0.993  0.00  0.00     0.112 C 
BRANCH   6   7
ATOM      7  C   UNL d   1      21.969 -18.073  -0.635  0.00  0.00     0.222 C 
ATOM      8  O   UNL d   1      21.027 -17.378  -1.027  0.00  0.00    -0.273 OA
ATOM      9  N   UNL d   1      21.815 -19.200   0.170  0.00  0.00    -0.327 N 
ATOM     10  H   UNL d   1      22.622 -19.603   0.632  0.00  0.00     0.169 HD
BRANCH   9  11
ATOM     11  C   UNL d   1      20.538 -19.715   0.531  0.00  0.00     0.034 A 
ATOM     12  C   UNL d   1      20.187 -19.902   1.874  0.00  0.00     0.029 A 
ATOM     13  C   UNL d   1      18.940 -20.457   2.209  0.00  0.00     0.002 A 
ATOM     14  C   UNL d   1      18.032 -20.807   1.210  0.00  0.00     0.000 A 
ATOM     15  C   UNL d   1      18.380 -20.632  -0.125  0.00  0.00     0.002 A 
ATOM     16  C   UNL d   1      19.623 -20.090  -0.457  0.00  0.00     0.029 A 
ENDBRANCH   9  11
ENDBRANCH   6   7
ENDBRANCH   5   6
ENDBRANCH   2   5
BRANCH   1  17
ATOM     17  N   UNL d   1      27.501 -15.867  -0.830  0.00  0.00    -0.273 N 
ATOM     18  H   UNL d   1      28.111 -15.704  -0.031  0.00  0.00     0.189 HD
BRANCH  17  19
ATOM     19  C   UNL d   1      27.848 -15.734  -2.187  0.00  0.00     0.193 C 
ATOM     20  S   UNL d   1      29.079 -16.700  -2.823  0.00  0.00    -0.039 SA
BRANCH  19  21
ATOM     21  N   UNL d   1      27.111 -14.772  -2.923  0.00  0.00    -0.303 N 
ATOM     22  C   UNL d   1      25.714 -14.752  -3.105  0.00  0.00     0.219 C 
ATOM     23  C   UNL d   1      25.110 -13.635  -3.931  0.00  0.00     0.117 C 
ATOM     24  O   UNL d   1      24.931 -15.584  -2.640  0.00  0.00    -0.274 OA
ATOM     25  H   UNL d   1      27.627 -14.024  -3.366  0.00  0.00     0.171 HD
ENDBRANCH  19  21
ENDBRANCH  17  19
ENDBRANCH   1  17
TORSDOF 7
ENDMDL
MODEL 5
REMARK VINA RESULT:    -7.203      3.694      4.841
REMARK INTER + INTRA:         -10.851
REMARK INTER:                  -9.291
REMARK INTRA:                  -1.561
REMARK CONF_INDEPENDENT:        2.088
REMARK UNBOUND:                -1.561
REMARK  7 active torsions:
REMARK  status: ('A' for Active; 'I' for Inactive)
REMARK       I    between atoms: C_2  and  N_4 
REMARK    1  A    between atoms: N_4  and  C_5 
REMARK    2  A    between atoms: C_5  and  N_7 
REMARK    3  A    between atoms: N_7  and  N_8 
REMARK       I    between atoms: N_8  and  C_9 
REMARK    4  A    between atoms: C_9  and  C_11 
REMARK    5  A    between atoms: C_11  and  C_12 
REMARK    6  A    between atoms: C_12  and  C_13 
REMARK       I    between atoms: C_13  and  N_15 
REMARK    7  A    between atoms: N_15  and  C_16 
ROOT
ATOM      1  N   UNL d   1      25.463 -15.388  -2.882  0.00  0.00    -0.268 N 
ATOM      2  C   UNL d   1      24.685 -16.012  -1.918  0.00  0.00     0.236 C 
ATOM      3  O   UNL d   1      23.572 -15.579  -1.600  0.00  0.00    -0.272 OA
ATOM      4  H   UNL d   1      26.385 -15.731  -3.159  0.00  0.00     0.190 HD
ENDROOT
BRANCH   2   5
ATOM      5  C   UNL d   1      25.295 -17.269  -1.275  0.00  0.00     0.114 C 
BRANCH   5   6
ATOM      6  C   UNL d   1      24.585 -17.703   0.036  0.00  0.00     0.112 C 
BRANCH   6   7
ATOM      7  C   UNL d   1      23.355 -18.566  -0.247  0.00  0.00     0.222 C 
ATOM      8  O   UNL d   1      23.412 -19.468  -1.088  0.00  0.00    -0.273 OA
ATOM      9  N   UNL d   1      22.200 -18.242   0.462  0.00  0.00    -0.327 N 
ATOM     10  H   UNL d   1      22.152 -17.370   0.976  0.00  0.00     0.169 HD
BRANCH   9  11
ATOM     11  C   UNL d   1      20.997 -18.996   0.354  0.00  0.00     0.034 A 
ATOM     12  C   UNL d   1      20.242 -18.987  -0.827  0.00  0.00     0.029 A 
ATOM     13  C   UNL d   1      19.034 -19.700  -0.899  0.00  0.00     0.002 A 
ATOM     14  C   UNL d   1      18.584 -20.440   0.195  0.00  0.00     0.000 A 
ATOM     15  C   UNL d   1      19.325 -20.444   1.371  0.00  0.00     0.002 A 
ATOM     16  C   UNL d   1      20.521 -19.728   1.446  0.00  0.00     0.029 A 
ENDBRANCH   9  11
ENDBRANCH   6   7
ENDBRANCH   5   6
ENDBRANCH   2   5
BRANCH   1  17
ATOM     17  N   UNL d   1      25.014 -14.183  -3.579  0.00  0.00    -0.273 N 
ATOM     18  H   UNL d   1      24.002 -14.074  -3.622  0.00  0.00     0.189 HD
BRANCH  17  19
ATOM     19  C   UNL d   1      25.973 -13.303  -4.114  0.00  0.00     0.193 C 
ATOM     20  S   UNL d   1      25.536 -11.704  -4.440  0.00  0.00    -0.039 SA
BRANCH  19  21
ATOM     21  N   UNL d   1      27.261 -13.853  -4.339  0.00  0.00    -0.303 N 
ATOM     22  C   UNL d   1      27.544 -15.086  -4.958  0.00  0.00     0.219 C 
ATOM     23  C   UNL d   1      28.993 -15.503  -5.106  0.00  0.00     0.117 C 
ATOM     24  O   UNL d   1      26.695 -15.867  -5.395  0.00  0.00    -0.274 OA
ATOM     25  H   UNL d   1      28.060 -13.318  -4.028  0.00  0.00     0.171 HD
ENDBRANCH  19  21
ENDBRANCH  17  19
ENDBRANCH   1  17
TORSDOF 7
ENDMDL
MODEL 6
REMARK VINA RESULT:    -7.125      1.894      2.371
REMARK INTER + INTRA:         -10.383
REMARK INTER:                  -9.214
REMARK INTRA:                  -1.170
REMARK CONF_INDEPENDENT:        2.088
REMARK UNBOUND:                -1.170
REMARK  7 active torsions:
REMARK  status: ('A' for Active; 'I' for Inactive)
REMARK       I    between atoms: C_2  and  N_4 
REMARK    1  A    between atoms: N_4  and  C_5 
REMARK    2  A    between atoms: C_5  and  N_7 
REMARK    3  A    between atoms: N_7  and  N_8 
REMARK       I    between atoms: N_8  and  C_9 
REMARK    4  A    between atoms: C_9  and  C_11 
REMARK    5  A    between atoms: C_11  and  C_12 
REMARK    6  A    between atoms: C_12  and  C_13 
REMARK       I    between atoms: C_13  and  N_15 
REMARK    7  A    between atoms: N_15  and  C_16 
ROOT
ATOM      1  N   UNL d   1      26.092 -17.523  -0.503  0.00  0.00    -0.268 N 
ATOM      2  C   UNL d   1      24.871 -17.866   0.062  0.00  0.00     0.236 C 
ATOM      3  O   UNL d   1      24.799 -18.490   1.125  0.00  0.00    -0.272 OA
ATOM      4  H   UNL d   1      26.171 -17.006  -1.381  0.00  0.00     0.190 HD
ENDROOT
BRANCH   2   5
ATOM      5  C   UNL d   1      23.623 -17.421  -0.720  0.00  0.00     0.114 C 
BRANCH   5   6
ATOM      6  C   UNL d   1      23.074 -18.509  -1.682  0.00  0.00     0.112 C 
BRANCH   6   7
ATOM      7  C   UNL d   1      21.731 -19.062  -1.203  0.00  0.00     0.222 C 
ATOM      8  O   UNL d   1      20.843 -19.325  -2.020  0.00  0.00    -0.273 OA
ATOM      9  N   UNL d   1      21.580 -19.203   0.175  0.00  0.00    -0.327 N 
ATOM     10  H   UNL d   1      22.254 -18.779   0.802  0.00  0.00     0.169 HD
BRANCH   9  11
ATOM     11  C   UNL d   1      20.413 -19.766   0.764  0.00  0.00     0.034 A 
ATOM     12  C   UNL d   1      20.273 -19.848   2.156  0.00  0.00     0.029 A 
ATOM     13  C   UNL d   1      19.134 -20.450   2.718  0.00  0.00     0.002 A 
ATOM     14  C   UNL d   1      18.124 -20.952   1.898  0.00  0.00     0.000 A 
ATOM     15  C   UNL d   1      18.262 -20.881   0.517  0.00  0.00     0.002 A 
ATOM     16  C   UNL d   1      19.398 -20.292  -0.042  0.00  0.00     0.029 A 
ENDBRANCH   9  11
ENDBRANCH   6   7
ENDBRANCH   5   6
ENDBRANCH   2   5
BRANCH   1  17
ATOM     17  N   UNL d   1      27.362 -17.879   0.127  0.00  0.00    -0.273 N 
ATOM     18  H   UNL d   1      27.339 -18.742   0.665  0.00  0.00     0.189 HD
BRANCH  17  19
ATOM     19  C   UNL d   1      28.475 -17.035  -0.052  0.00  0.00     0.193 C 
ATOM     20  S   UNL d   1      29.598 -17.395  -1.262  0.00  0.00    -0.039 SA
BRANCH  19  21
ATOM     21  N   UNL d   1      28.557 -15.924   0.826  0.00  0.00    -0.303 N 
ATOM     22  C   UNL d   1      27.669 -14.832   0.873  0.00  0.00     0.219 C 
ATOM     23  C   UNL d   1      27.927 -13.735   1.886  0.00  0.00     0.117 C 
ATOM     24  O   UNL d   1      26.683 -14.693   0.144  0.00  0.00    -0.274 OA
ATOM     25  H   UNL d   1      29.323 -15.903   1.485  0.00  0.00     0.171 HD
ENDBRANCH  19  21
ENDBRANCH  17  19
ENDBRANCH   1  17
TORSDOF 7
ENDMDL
MODEL 7
REMARK VINA RESULT:    -6.817      2.609      3.243
REMARK INTER + INTRA:         -10.483
REMARK INTER:                  -8.905
REMARK INTRA:                  -1.578
REMARK CONF_INDEPENDENT:        2.088
REMARK UNBOUND:                -1.578
REMARK  7 active torsions:
REMARK  status: ('A' for Active; 'I' for Inactive)
REMARK       I    between atoms: C_2  and  N_4 
REMARK    1  A    between atoms: N_4  and  C_5 
REMARK    2  A    between atoms: C_5  and  N_7 
REMARK    3  A    between atoms: N_7  and  N_8 
REMARK       I    between atoms: N_8  and  C_9 
REMARK    4  A    between atoms: C_9  and  C_11 
REMARK    5  A    between atoms: C_11  and  C_12 
REMARK    6  A    between atoms: C_12  and  C_13 
REMARK       I    between atoms: C_13  and  N_15 
REMARK    7  A    between atoms: N_15  and  C_16 
ROOT
ATOM      1  N   UNL d   1      26.253 -15.951  -0.557  0.00  0.00    -0.268 N 
ATOM      2  C   UNL d   1      25.454 -16.124  -1.678  0.00  0.00     0.236 C 
ATOM      3  O   UNL d   1      25.913 -16.046  -2.822  0.00  0.00    -0.272 OA
ATOM      4  H   UNL d   1      25.892 -16.013   0.397  0.00  0.00     0.190 HD
ENDROOT
BRANCH   2   5
ATOM      5  C   UNL d   1      23.969 -16.417  -1.404  0.00  0.00     0.114 C 
BRANCH   5   6
ATOM      6  C   UNL d   1      23.682 -17.906  -1.070  0.00  0.00     0.112 C 
BRANCH   6   7
ATOM      7  C   UNL d   1      22.233 -18.117  -0.628  0.00  0.00     0.222 C 
ATOM      8  O   UNL d   1      21.394 -17.231  -0.817  0.00  0.00    -0.273 OA
ATOM      9  N   UNL d   1      21.955 -19.322   0.014  0.00  0.00    -0.327 N 
ATOM     10  H   UNL d   1      22.716 -19.913   0.327  0.00  0.00     0.169 HD
BRANCH   9  11
ATOM     11  C   UNL d   1      20.641 -19.686   0.423  0.00  0.00     0.034 A 
ATOM     12  C   UNL d   1      20.287 -19.709   1.779  0.00  0.00     0.029 A 
ATOM     13  C   UNL d   1      18.999 -20.118   2.166  0.00  0.00     0.002 A 
ATOM     14  C   UNL d   1      18.056 -20.483   1.206  0.00  0.00     0.000 A 
ATOM     15  C   UNL d   1      18.406 -20.471  -0.139  0.00  0.00     0.002 A 
ATOM     16  C   UNL d   1      19.689 -20.075  -0.524  0.00  0.00     0.029 A 
ENDBRANCH   9  11
ENDBRANCH   6   7
ENDBRANCH   5   6
ENDBRANCH   2   5
BRANCH   1  17
ATOM     17  N   UNL d   1      27.683 -15.667  -0.663  0.00  0.00    -0.273 N 
ATOM     18  H   UNL d   1      28.027 -15.582  -1.618  0.00  0.00     0.189 HD
BRANCH  17  19
ATOM     19  C   UNL d   1      28.445 -15.537   0.514  0.00  0.00     0.193 C 
ATOM     20  S   UNL d   1      27.814 -14.657   1.811  0.00  0.00    -0.039 SA
BRANCH  19  21
ATOM     21  N   UNL d   1      29.711 -16.175   0.506  0.00  0.00    -0.303 N 
ATOM     22  C   UNL d   1      30.326 -16.794  -0.599  0.00  0.00     0.219 C 
ATOM     23  C   UNL d   1      31.689 -17.426  -0.407  0.00  0.00     0.117 C 
ATOM     24  O   UNL d   1      29.836 -16.866  -1.729  0.00  0.00    -0.274 OA
ATOM     25  H   UNL d   1      30.232 -16.194   1.373  0.00  0.00     0.171 HD
ENDBRANCH  19  21
ENDBRANCH  17  19
ENDBRANCH   1  17
TORSDOF 7
ENDMDL
MODEL 8
REMARK VINA RESULT:    -6.807      5.247      9.175
REMARK INTER + INTRA:         -10.618
REMARK INTER:                  -8.895
REMARK INTRA:                  -1.723
REMARK CONF_INDEPENDENT:        2.088
REMARK UNBOUND:                -1.723
REMARK  7 active torsions:
REMARK  status: ('A' for Active; 'I' for Inactive)
REMARK       I    between atoms: C_2  and  N_4 
REMARK    1  A    between atoms: N_4  and  C_5 
REMARK    2  A    between atoms: C_5  and  N_7 
REMARK    3  A    between atoms: N_7  and  N_8 
REMARK       I    between atoms: N_8  and  C_9 
REMARK    4  A    between atoms: C_9  and  C_11 
REMARK    5  A    between atoms: C_11  and  C_12 
REMARK    6  A    between atoms: C_12  and  C_13 
REMARK       I    between atoms: C_13  and  N_15 
REMARK    7  A    between atoms: N_15  and  C_16 
ROOT
ATOM      1  N   UNL d   1      25.218 -16.176  -1.652  0.00  0.00    -0.268 N 
ATOM      2  C   UNL d   1      25.086 -15.020  -2.409  0.00  0.00     0.236 C 
ATOM      3  O   UNL d   1      23.990 -14.648  -2.842  0.00  0.00    -0.272 OA
ATOM      4  H   UNL d   1      26.115 -16.499  -1.285  0.00  0.00     0.190 HD
ENDROOT
BRANCH   2   5
ATOM      5  C   UNL d   1      26.385 -14.239  -2.671  0.00  0.00     0.114 C 
BRANCH   5   6
ATOM      6  C   UNL d   1      26.588 -13.855  -4.161  0.00  0.00     0.112 C 
BRANCH   6   7
ATOM      7  C   UNL d   1      27.366 -14.930  -4.921  0.00  0.00     0.222 C 
ATOM      8  O   UNL d   1      26.815 -15.575  -5.819  0.00  0.00    -0.273 OA
ATOM      9  N   UNL d   1      28.681 -15.144  -4.511  0.00  0.00    -0.327 N 
ATOM     10  H   UNL d   1      29.009 -14.739  -3.642  0.00  0.00     0.169 HD
BRANCH   9  11
ATOM     11  C   UNL d   1      29.547 -16.064  -5.166  0.00  0.00     0.034 A 
ATOM     12  C   UNL d   1      29.947 -15.862  -6.493  0.00  0.00     0.029 A 
ATOM     13  C   UNL d   1      30.764 -16.806  -7.138  0.00  0.00     0.002 A 
ATOM     14  C   UNL d   1      31.202 -17.942  -6.457  0.00  0.00     0.000 A 
ATOM     15  C   UNL d   1      30.800 -18.152  -5.143  0.00  0.00     0.002 A 
ATOM     16  C   UNL d   1      29.980 -17.219  -4.506  0.00  0.00     0.029 A 
ENDBRANCH   9  11
ENDBRANCH   6   7
ENDBRANCH   5   6
ENDBRANCH   2   5
BRANCH   1  17
ATOM     17  N   UNL d   1      24.071 -17.020  -1.324  0.00  0.00    -0.273 N 
ATOM     18  H   UNL d   1      23.219 -16.792  -1.832  0.00  0.00     0.189 HD
BRANCH  17  19
ATOM     19  C   UNL d   1      24.224 -18.042  -0.368  0.00  0.00     0.193 C 
ATOM     20  S   UNL d   1      25.700 -18.202   0.439  0.00  0.00    -0.039 SA
BRANCH  19  21
ATOM     21  N   UNL d   1      23.093 -18.872  -0.161  0.00  0.00    -0.303 N 
ATOM     22  C   UNL d   1      21.755 -18.545  -0.453  0.00  0.00     0.219 C 
ATOM     23  C   UNL d   1      20.680 -19.571  -0.157  0.00  0.00     0.117 C 
ATOM     24  O   UNL d   1      21.380 -17.474  -0.937  0.00  0.00    -0.274 OA
ATOM     25  H   UNL d   1      23.250 -19.788   0.236  0.00  0.00     0.171 HD
ENDBRANCH  19  21
ENDBRANCH  17  19
ENDBRANCH   1  17
TORSDOF 7
ENDMDL
MODEL 9
REMARK VINA RESULT:    -5.994      2.436      8.374
REMARK INTER + INTRA:         -10.445
REMARK INTER:                  -8.082
REMARK INTRA:                  -2.363
REMARK CONF_INDEPENDENT:        2.088
REMARK UNBOUND:                -2.363
REMARK  7 active torsions:
REMARK  status: ('A' for Active; 'I' for Inactive)
REMARK       I    between atoms: C_2  and  N_4 
REMARK    1  A    between atoms: N_4  and  C_5 
REMARK    2  A    between atoms: C_5  and  N_7 
REMARK    3  A    between atoms: N_7  and  N_8 
REMARK       I    between atoms: N_8  and  C_9 
REMARK    4  A    between atoms: C_9  and  C_11 
REMARK    5  A    between atoms: C_11  and  C_12 
REMARK    6  A    between atoms: C_12  and  C_13 
REMARK       I    between atoms: C_13  and  N_15 
REMARK    7  A    between atoms: N_15  and  C_16 
ROOT
ATOM      1  N   UNL d   1      24.870 -15.759  -0.999  0.00  0.00    -0.268 N 
ATOM      2  C   UNL d   1      25.279 -15.005  -2.089  0.00  0.00     0.236 C 
ATOM      3  O   UNL d   1      24.875 -15.240  -3.232  0.00  0.00    -0.272 OA
ATOM      4  H   UNL d   1      25.193 -15.579  -0.047  0.00  0.00     0.190 HD
ENDROOT
BRANCH   2   5
ATOM      5  C   UNL d   1      26.264 -13.864  -1.782  0.00  0.00     0.114 C 
BRANCH   5   6
ATOM      6  C   UNL d   1      27.432 -14.286  -0.851  0.00  0.00     0.112 C 
BRANCH   6   7
ATOM      7  C   UNL d   1      27.115 -14.005   0.618  0.00  0.00     0.222 C 
ATOM      8  O   UNL d   1      25.946 -13.828   0.976  0.00  0.00    -0.273 OA
ATOM      9  N   UNL d   1      28.207 -13.927   1.480  0.00  0.00    -0.327 N 
ATOM     10  H   UNL d   1      29.145 -13.871   1.100  0.00  0.00     0.169 HD
BRANCH   9  11
ATOM     11  C   UNL d   1      28.064 -13.737   2.883  0.00  0.00     0.034 A 
ATOM     12  C   UNL d   1      27.873 -12.458   3.423  0.00  0.00     0.029 A 
ATOM     13  C   UNL d   1      27.781 -12.285   4.815  0.00  0.00     0.002 A 
ATOM     14  C   UNL d   1      27.858 -13.384   5.670  0.00  0.00     0.000 A 
ATOM     15  C   UNL d   1      28.057 -14.653   5.139  0.00  0.00     0.002 A 
ATOM     16  C   UNL d   1      28.158 -14.825   3.757  0.00  0.00     0.029 A 
ENDBRANCH   9  11
ENDBRANCH   6   7
ENDBRANCH   5   6
ENDBRANCH   2   5
BRANCH   1  17
ATOM     17  N   UNL d   1      23.937 -16.876  -1.138  0.00  0.00    -0.273 N 
ATOM     18  H   UNL d   1      23.257 -16.767  -1.889  0.00  0.00     0.189 HD
BRANCH  17  19
ATOM     19  C   UNL d   1      24.044 -17.972  -0.261  0.00  0.00     0.193 C 
ATOM     20  S   UNL d   1      25.478 -18.199   0.602  0.00  0.00    -0.039 SA
BRANCH  19  21
ATOM     21  N   UNL d   1      22.905 -18.812  -0.177  0.00  0.00    -0.303 N 
ATOM     22  C   UNL d   1      21.619 -18.525  -0.673  0.00  0.00     0.219 C 
ATOM     23  C   UNL d   1      20.525 -19.556  -0.483  0.00  0.00     0.117 C 
ATOM     24  O   UNL d   1      21.305 -17.485  -1.257  0.00  0.00    -0.274 OA
ATOM     25  H   UNL d   1      23.015 -19.706   0.282  0.00  0.00     0.171 HD
ENDBRANCH  19  21
ENDBRANCH  17  19
ENDBRANCH   1  17
TORSDOF 7
ENDMDL
