MODEL 1
REMARK VINA RESULT:    -8.416      0.000      0.000
REMARK INTER + INTRA:         -13.555
REMARK INTER:                 -11.697
REMARK INTRA:                  -1.858
REMARK CONF_INDEPENDENT:        3.281
REMARK UNBOUND:                -1.858
REMARK  11 active torsions:
REMARK  status: ('A' for Active; 'I' for Inactive)
REMARK    1  A    between atoms: C_2  and  C_3 
REMARK    2  A    between atoms: C_3  and  O_4 
REMARK    3  A    between atoms: O_4  and  C_5 
REMARK    4  A    between atoms: C_5  and  C_7 
REMARK    5  A    between atoms: C_7  and  C_8 
REMARK    6  A    between atoms: C_8  and  C_9 
REMARK       I    between atoms: C_9  and  N_11 
REMARK    7  A    between atoms: N_11  and  C_12 
REMARK    8  A    between atoms: C_12  and  N_14 
REMARK    9  A    between atoms: N_14  and  C_15 
REMARK   10  A    between atoms: C_19  and  C_20 
REMARK       I    between atoms: C_20  and  N_22 
REMARK   11  A    between atoms: N_22  and  C_23 
ROOT
ATOM      1  C   UNL d   1      25.942 -14.469  -1.600  0.00  0.00     0.178 C 
ATOM      2  S   UNL d   1      26.655 -14.453  -0.057  0.00  0.00    -0.040 SA
ENDROOT
BRANCH   1   3
ATOM      3  N   UNL d   1      26.508 -13.784  -2.709  0.00  0.00    -0.304 N 
ATOM      4  C   UNL d   1      25.840 -13.582  -3.936  0.00  0.00     0.224 C 
ATOM      5  O   UNL d   1      24.744 -14.075  -4.206  0.00  0.00    -0.273 OA
ATOM      6  H   UNL d   1      27.433 -13.385  -2.610  0.00  0.00     0.171 HD
BRANCH   4   7
ATOM      7  C   UNL d   1      26.485 -12.744  -5.030  0.00  0.00     0.113 C 
BRANCH   7   8
ATOM      8  C   UNL d   1      27.663 -13.555  -5.667  0.00  0.00     0.120 C 
BRANCH   8   9
ATOM      9  C   UNL d   1      27.445 -15.045  -5.601  0.00  0.00     0.259 C 
ATOM     10  O   UNL d   1      26.357 -15.576  -5.829  0.00  0.00    -0.265 OA
BRANCH   9  11
ATOM     11  O   UNL d   1      28.581 -15.729  -5.265  0.00  0.00    -0.321 OA
BRANCH  11  12
ATOM     12  C   UNL d   1      29.110 -15.380  -3.966  0.00  0.00     0.178 C 
BRANCH  12  13
ATOM     13  C   UNL d   1      29.282 -16.620  -3.084  0.00  0.00     0.022 C 
ATOM     14  C   UNL d   1      29.482 -16.245  -1.619  0.00  0.00     0.007 C 
ENDBRANCH  12  13
ENDBRANCH  11  12
ENDBRANCH   9  11
ENDBRANCH   8   9
ENDBRANCH   7   8
ENDBRANCH   4   7
ENDBRANCH   1   3
BRANCH   1  15
ATOM     15  N   UNL d   1      24.756 -15.204  -1.875  0.00  0.00    -0.333 N 
ATOM     16  H   UNL d   1      24.173 -14.963  -2.668  0.00  0.00     0.168 HD
BRANCH  15  17
ATOM     17  C   UNL d   1      24.476 -16.495  -1.279  0.00  0.00     0.035 A 
ATOM     18  C   UNL d   1      25.464 -17.315  -0.729  0.00  0.00     0.029 A 
ATOM     19  C   UNL d   1      25.108 -18.550  -0.146  0.00  0.00     0.003 A 
ATOM     20  C   UNL d   1      23.765 -18.948  -0.066  0.00  0.00     0.017 A 
ATOM     21  C   UNL d   1      22.768 -18.153  -0.633  0.00  0.00     0.034 A 
ATOM     22  C   UNL d   1      23.154 -16.964  -1.263  0.00  0.00     0.046 A 
BRANCH  21  23
ATOM     23  C   UNL d   1      21.337 -18.597  -0.606  0.00  0.00     0.251 C 
ATOM     24  O   UNL d   1      20.487 -17.963  -1.233  0.00  0.00    -0.268 OA
ATOM     25  N   UNL d   1      21.018 -19.709   0.156  0.00  0.00    -0.357 N 
ATOM     26  H   UNL d   1      21.732 -20.260   0.605  0.00  0.00     0.162 HD
BRANCH  25  27
ATOM     27  C   UNL d   1      19.659 -20.193   0.269  0.00  0.00     0.118 C 
ATOM     28  C   UNL d   1      19.199 -20.250   1.717  0.00  0.00     0.026 C 
ENDBRANCH  25  27
ENDBRANCH  21  23
ENDBRANCH  15  17
ENDBRANCH   1  15
TORSDOF 11
ENDMDL
MODEL 2
REMARK VINA RESULT:    -8.094      3.779      8.271
REMARK INTER + INTRA:         -12.603
REMARK INTER:                 -11.375
REMARK INTRA:                  -1.228
REMARK CONF_INDEPENDENT:        3.281
REMARK UNBOUND:                -1.228
REMARK  11 active torsions:
REMARK  status: ('A' for Active; 'I' for Inactive)
REMARK    1  A    between atoms: C_2  and  C_3 
REMARK    2  A    between atoms: C_3  and  O_4 
REMARK    3  A    between atoms: O_4  and  C_5 
REMARK    4  A    between atoms: C_5  and  C_7 
REMARK    5  A    between atoms: C_7  and  C_8 
REMARK    6  A    between atoms: C_8  and  C_9 
REMARK       I    between atoms: C_9  and  N_11 
REMARK    7  A    between atoms: N_11  and  C_12 
REMARK    8  A    between atoms: C_12  and  N_14 
REMARK    9  A    between atoms: N_14  and  C_15 
REMARK   10  A    between atoms: C_19  and  C_20 
REMARK       I    between atoms: C_20  and  N_22 
REMARK   11  A    between atoms: N_22  and  C_23 
ROOT
ATOM      1  C   UNL d   1      25.436 -16.337  -1.494  0.00  0.00     0.178 C 
ATOM      2  S   UNL d   1      25.443 -14.901  -2.402  0.00  0.00    -0.040 SA
ENDROOT
BRANCH   1   3
ATOM      3  N   UNL d   1      24.257 -17.105  -1.289  0.00  0.00    -0.304 N 
ATOM      4  C   UNL d   1      24.220 -18.315  -0.565  0.00  0.00     0.224 C 
ATOM      5  O   UNL d   1      25.223 -18.883  -0.131  0.00  0.00    -0.273 OA
ATOM      6  H   UNL d   1      23.382 -16.752  -1.655  0.00  0.00     0.171 HD
BRANCH   4   7
ATOM      7  C   UNL d   1      22.892 -19.014  -0.308  0.00  0.00     0.113 C 
BRANCH   7   8
ATOM      8  C   UNL d   1      21.734 -18.142  -0.901  0.00  0.00     0.120 C 
BRANCH   8   9
ATOM      9  C   UNL d   1      20.459 -18.924  -1.095  0.00  0.00     0.259 C 
ATOM     10  O   UNL d   1      20.290 -19.714  -2.025  0.00  0.00    -0.265 OA
BRANCH   9  11
ATOM     11  O   UNL d   1      19.527 -18.657  -0.130  0.00  0.00    -0.321 OA
BRANCH  11  12
ATOM     12  C   UNL d   1      19.591 -19.548   1.006  0.00  0.00     0.178 C 
BRANCH  12  13
ATOM     13  C   UNL d   1      19.290 -20.994   0.598  0.00  0.00     0.022 C 
ATOM     14  C   UNL d   1      18.040 -21.525   1.292  0.00  0.00     0.007 C 
ENDBRANCH  12  13
ENDBRANCH  11  12
ENDBRANCH   9  11
ENDBRANCH   8   9
ENDBRANCH   7   8
ENDBRANCH   4   7
ENDBRANCH   1   3
BRANCH   1  15
ATOM     15  N   UNL d   1      26.621 -16.871  -0.917  0.00  0.00    -0.333 N 
ATOM     16  H   UNL d   1      26.908 -17.822  -1.119  0.00  0.00     0.168 HD
BRANCH  15  17
ATOM     17  C   UNL d   1      27.637 -16.043  -0.301  0.00  0.00     0.035 A 
ATOM     18  C   UNL d   1      28.860 -15.750  -0.908  0.00  0.00     0.029 A 
ATOM     19  C   UNL d   1      29.790 -14.915  -0.252  0.00  0.00     0.003 A 
ATOM     20  C   UNL d   1      29.484 -14.331   0.987  0.00  0.00     0.017 A 
ATOM     21  C   UNL d   1      28.277 -14.634   1.620  0.00  0.00     0.034 A 
ATOM     22  C   UNL d   1      27.400 -15.516   0.978  0.00  0.00     0.046 A 
BRANCH  21  23
ATOM     23  C   UNL d   1      27.967 -14.063   2.971  0.00  0.00     0.251 C 
ATOM     24  O   UNL d   1      27.470 -12.939   3.061  0.00  0.00    -0.268 OA
ATOM     25  N   UNL d   1      28.278 -14.826   4.084  0.00  0.00    -0.357 N 
ATOM     26  H   UNL d   1      28.617 -15.771   3.994  0.00  0.00     0.162 HD
BRANCH  25  27
ATOM     27  C   UNL d   1      28.045 -14.345   5.428  0.00  0.00     0.118 C 
ATOM     28  C   UNL d   1      29.348 -14.063   6.160  0.00  0.00     0.026 C 
ENDBRANCH  25  27
ENDBRANCH  21  23
ENDBRANCH  15  17
ENDBRANCH   1  15
TORSDOF 11
ENDMDL
MODEL 3
REMARK VINA RESULT:    -7.913      2.643      8.573
REMARK INTER + INTRA:         -12.581
REMARK INTER:                 -11.195
REMARK INTRA:                  -1.386
REMARK CONF_INDEPENDENT:        3.281
REMARK UNBOUND:                -1.386
REMARK  11 active torsions:
REMARK  status: ('A' for Active; 'I' for Inactive)
REMARK    1  A    between atoms: C_2  and  C_3 
REMARK    2  A    between atoms: C_3  and  O_4 
REMARK    3  A    between atoms: O_4  and  C_5 
REMARK    4  A    between atoms: C_5  and  C_7 
REMARK    5  A    between atoms: C_7  and  C_8 
REMARK    6  A    between atoms: C_8  and  C_9 
REMARK       I    between atoms: C_9  and  N_11 
REMARK    7  A    between atoms: N_11  and  C_12 
REMARK    8  A    between atoms: C_12  and  N_14 
REMARK    9  A    between atoms: N_14  and  C_15 
REMARK   10  A    between atoms: C_19  and  C_20 
REMARK       I    between atoms: C_20  and  N_22 
REMARK   11  A    between atoms: N_22  and  C_23 
ROOT
ATOM      1  C   UNL d   1      26.056 -16.073  -1.443  0.00  0.00     0.178 C 
ATOM      2  S   UNL d   1      27.589 -15.477  -1.017  0.00  0.00    -0.040 SA
ENDROOT
BRANCH   1   3
ATOM      3  N   UNL d   1      25.361 -17.030  -0.653  0.00  0.00    -0.304 N 
ATOM      4  C   UNL d   1      23.956 -17.150  -0.615  0.00  0.00     0.224 C 
ATOM      5  O   UNL d   1      23.187 -16.369  -1.176  0.00  0.00    -0.273 OA
ATOM      6  H   UNL d   1      25.902 -17.689  -0.107  0.00  0.00     0.171 HD
BRANCH   4   7
ATOM      7  C   UNL d   1      23.305 -18.274   0.180  0.00  0.00     0.113 C 
BRANCH   7   8
ATOM      8  C   UNL d   1      22.551 -19.227  -0.807  0.00  0.00     0.120 C 
BRANCH   8   9
ATOM      9  C   UNL d   1      21.092 -18.877  -0.952  0.00  0.00     0.259 C 
ATOM     10  O   UNL d   1      20.668 -17.722  -0.895  0.00  0.00    -0.265 OA
BRANCH   9  11
ATOM     11  O   UNL d   1      20.305 -19.978  -1.153  0.00  0.00    -0.321 OA
BRANCH  11  12
ATOM     12  C   UNL d   1      19.010 -19.895  -0.516  0.00  0.00     0.178 C 
BRANCH  12  13
ATOM     13  C   UNL d   1      19.140 -19.859   1.010  0.00  0.00     0.022 C 
ATOM     14  C   UNL d   1      18.567 -21.118   1.653  0.00  0.00     0.007 C 
ENDBRANCH  12  13
ENDBRANCH  11  12
ENDBRANCH   9  11
ENDBRANCH   8   9
ENDBRANCH   7   8
ENDBRANCH   4   7
ENDBRANCH   1   3
BRANCH   1  15
ATOM     15  N   UNL d   1      25.364 -15.618  -2.600  0.00  0.00    -0.333 N 
ATOM     16  H   UNL d   1      24.376 -15.814  -2.720  0.00  0.00     0.168 HD
BRANCH  15  17
ATOM     17  C   UNL d   1      25.899 -14.606  -3.487  0.00  0.00     0.035 A 
ATOM     18  C   UNL d   1      26.595 -14.907  -4.661  0.00  0.00     0.029 A 
ATOM     19  C   UNL d   1      27.067 -13.865  -5.486  0.00  0.00     0.003 A 
ATOM     20  C   UNL d   1      26.805 -12.522  -5.171  0.00  0.00     0.017 A 
ATOM     21  C   UNL d   1      26.134 -12.203  -3.990  0.00  0.00     0.034 A 
ATOM     22  C   UNL d   1      25.734 -13.253  -3.156  0.00  0.00     0.046 A 
BRANCH  21  23
ATOM     23  C   UNL d   1      25.903 -10.771  -3.613  0.00  0.00     0.251 C 
ATOM     24  O   UNL d   1      26.340 -10.340  -2.545  0.00  0.00    -0.268 OA
ATOM     25  N   UNL d   1      25.174  -9.981  -4.486  0.00  0.00    -0.357 N 
ATOM     26  H   UNL d   1      24.885 -10.325  -5.389  0.00  0.00     0.162 HD
BRANCH  25  27
ATOM     27  C   UNL d   1      24.872  -8.596  -4.194  0.00  0.00     0.118 C 
ATOM     28  C   UNL d   1      23.755  -8.064  -5.076  0.00  0.00     0.026 C 
ENDBRANCH  25  27
ENDBRANCH  21  23
ENDBRANCH  15  17
ENDBRANCH   1  15
TORSDOF 11
ENDMDL
MODEL 4
REMARK VINA RESULT:    -7.313      0.913      1.370
REMARK INTER + INTRA:         -13.089
REMARK INTER:                 -10.594
REMARK INTRA:                  -2.495
REMARK CONF_INDEPENDENT:        3.281
REMARK UNBOUND:                -2.495
REMARK  11 active torsions:
REMARK  status: ('A' for Active; 'I' for Inactive)
REMARK    1  A    between atoms: C_2  and  C_3 
REMARK    2  A    between atoms: C_3  and  O_4 
REMARK    3  A    between atoms: O_4  and  C_5 
REMARK    4  A    between atoms: C_5  and  C_7 
REMARK    5  A    between atoms: C_7  and  C_8 
REMARK    6  A    between atoms: C_8  and  C_9 
REMARK       I    between atoms: C_9  and  N_11 
REMARK    7  A    between atoms: N_11  and  C_12 
REMARK    8  A    between atoms: C_12  and  N_14 
REMARK    9  A    between atoms: N_14  and  C_15 
REMARK   10  A    between atoms: C_19  and  C_20 
REMARK       I    between atoms: C_20  and  N_22 
REMARK   11  A    between atoms: N_22  and  C_23 
ROOT
ATOM      1  C   UNL d   1      26.153 -14.529  -2.031  0.00  0.00     0.178 C 
ATOM      2  S   UNL d   1      26.743 -13.757  -0.637  0.00  0.00    -0.040 SA
ENDROOT
BRANCH   1   3
ATOM      3  N   UNL d   1      26.901 -14.600  -3.238  0.00  0.00    -0.304 N 
ATOM      4  C   UNL d   1      26.335 -14.870  -4.502  0.00  0.00     0.224 C 
ATOM      5  O   UNL d   1      25.155 -15.180  -4.670  0.00  0.00    -0.273 OA
ATOM      6  H   UNL d   1      27.896 -14.415  -3.202  0.00  0.00     0.171 HD
BRANCH   4   7
ATOM      7  C   UNL d   1      27.199 -14.821  -5.755  0.00  0.00     0.113 C 
BRANCH   7   8
ATOM      8  C   UNL d   1      28.679 -14.520  -5.342  0.00  0.00     0.120 C 
BRANCH   8   9
ATOM      9  C   UNL d   1      29.378 -15.726  -4.765  0.00  0.00     0.259 C 
ATOM     10  O   UNL d   1      29.618 -16.741  -5.420  0.00  0.00    -0.265 OA
BRANCH   9  11
ATOM     11  O   UNL d   1      29.710 -15.560  -3.449  0.00  0.00    -0.321 OA
BRANCH  11  12
ATOM     12  C   UNL d   1      29.035 -16.474  -2.556  0.00  0.00     0.178 C 
BRANCH  12  13
ATOM     13  C   UNL d   1      29.569 -16.353  -1.126  0.00  0.00     0.022 C 
ATOM     14  C   UNL d   1      28.704 -17.124  -0.135  0.00  0.00     0.007 C 
ENDBRANCH  12  13
ENDBRANCH  11  12
ENDBRANCH   9  11
ENDBRANCH   8   9
ENDBRANCH   7   8
ENDBRANCH   4   7
ENDBRANCH   1   3
BRANCH   1  15
ATOM     15  N   UNL d   1      24.890 -15.182  -2.055  0.00  0.00    -0.333 N 
ATOM     16  H   UNL d   1      24.216 -14.973  -2.783  0.00  0.00     0.168 HD
BRANCH  15  17
ATOM     17  C   UNL d   1      24.608 -16.375  -1.284  0.00  0.00     0.035 A 
ATOM     18  C   UNL d   1      25.576 -17.053  -0.539  0.00  0.00     0.029 A 
ATOM     19  C   UNL d   1      25.218 -18.196   0.206  0.00  0.00     0.003 A 
ATOM     20  C   UNL d   1      23.886 -18.638   0.251  0.00  0.00     0.017 A 
ATOM     21  C   UNL d   1      22.912 -17.988  -0.507  0.00  0.00     0.034 A 
ATOM     22  C   UNL d   1      23.305 -16.896  -1.289  0.00  0.00     0.046 A 
BRANCH  21  23
ATOM     23  C   UNL d   1      21.499 -18.489  -0.514  0.00  0.00     0.251 C 
ATOM     24  O   UNL d   1      20.617 -17.826  -1.063  0.00  0.00    -0.268 OA
ATOM     25  N   UNL d   1      21.232 -19.686   0.129  0.00  0.00    -0.357 N 
ATOM     26  H   UNL d   1      21.973 -20.253   0.511  0.00  0.00     0.162 HD
BRANCH  25  27
ATOM     27  C   UNL d   1      19.894 -20.231   0.203  0.00  0.00     0.118 C 
ATOM     28  C   UNL d   1      19.260 -19.989   1.564  0.00  0.00     0.026 C 
ENDBRANCH  25  27
ENDBRANCH  21  23
ENDBRANCH  15  17
ENDBRANCH   1  15
TORSDOF 11
ENDMDL
MODEL 5
REMARK VINA RESULT:    -7.206      1.700      3.168
REMARK INTER + INTRA:         -12.368
REMARK INTER:                 -10.487
REMARK INTRA:                  -1.880
REMARK CONF_INDEPENDENT:        3.281
REMARK UNBOUND:                -1.880
REMARK  11 active torsions:
REMARK  status: ('A' for Active; 'I' for Inactive)
REMARK    1  A    between atoms: C_2  and  C_3 
REMARK    2  A    between atoms: C_3  and  O_4 
REMARK    3  A    between atoms: O_4  and  C_5 
REMARK    4  A    between atoms: C_5  and  C_7 
REMARK    5  A    between atoms: C_7  and  C_8 
REMARK    6  A    between atoms: C_8  and  C_9 
REMARK       I    between atoms: C_9  and  N_11 
REMARK    7  A    between atoms: N_11  and  C_12 
REMARK    8  A    between atoms: C_12  and  N_14 
REMARK    9  A    between atoms: N_14  and  C_15 
REMARK   10  A    between atoms: C_19  and  C_20 
REMARK       I    between atoms: C_20  and  N_22 
REMARK   11  A    between atoms: N_22  and  C_23 
ROOT
ATOM      1  C   UNL d   1      26.994 -17.131  -0.664  0.00  0.00     0.178 C 
ATOM      2  S   UNL d   1      27.474 -16.442   0.814  0.00  0.00    -0.040 SA
ENDROOT
BRANCH   1   3
ATOM      3  N   UNL d   1      27.670 -16.864  -1.886  0.00  0.00    -0.304 N 
ATOM      4  C   UNL d   1      29.062 -17.006  -2.065  0.00  0.00     0.224 C 
ATOM      5  O   UNL d   1      29.845 -17.268  -1.151  0.00  0.00    -0.273 OA
ATOM      6  H   UNL d   1      27.121 -16.587  -2.690  0.00  0.00     0.171 HD
BRANCH   4   7
ATOM      7  C   UNL d   1      29.683 -16.799  -3.439  0.00  0.00     0.113 C 
BRANCH   7   8
ATOM      8  C   UNL d   1      29.282 -15.383  -3.972  0.00  0.00     0.120 C 
BRANCH   8   9
ATOM      9  C   UNL d   1      28.196 -15.442  -5.017  0.00  0.00     0.259 C 
ATOM     10  O   UNL d   1      28.407 -15.262  -6.217  0.00  0.00    -0.265 OA
BRANCH   9  11
ATOM     11  O   UNL d   1      26.966 -15.714  -4.482  0.00  0.00    -0.321 OA
BRANCH  11  12
ATOM     12  C   UNL d   1      25.901 -14.899  -5.019  0.00  0.00     0.178 C 
BRANCH  12  13
ATOM     13  C   UNL d   1      25.653 -13.662  -4.151  0.00  0.00     0.022 C 
ATOM     14  C   UNL d   1      24.934 -14.020  -2.855  0.00  0.00     0.007 C 
ENDBRANCH  12  13
ENDBRANCH  11  12
ENDBRANCH   9  11
ENDBRANCH   8   9
ENDBRANCH   7   8
ENDBRANCH   4   7
ENDBRANCH   1   3
BRANCH   1  15
ATOM     15  N   UNL d   1      25.909 -18.046  -0.752  0.00  0.00    -0.333 N 
ATOM     16  H   UNL d   1      26.053 -19.034  -0.575  0.00  0.00     0.168 HD
BRANCH  15  17
ATOM     17  C   UNL d   1      24.524 -17.622  -0.771  0.00  0.00     0.035 A 
ATOM     18  C   UNL d   1      24.134 -16.282  -0.837  0.00  0.00     0.029 A 
ATOM     19  C   UNL d   1      22.763 -15.950  -0.874  0.00  0.00     0.003 A 
ATOM     20  C   UNL d   1      21.780 -16.951  -0.895  0.00  0.00     0.017 A 
ATOM     21  C   UNL d   1      22.151 -18.293  -0.803  0.00  0.00     0.034 A 
ATOM     22  C   UNL d   1      23.514 -18.593  -0.702  0.00  0.00     0.046 A 
BRANCH  21  23
ATOM     23  C   UNL d   1      21.106 -19.367  -0.763  0.00  0.00     0.251 C 
ATOM     24  O   UNL d   1      20.531 -19.700  -1.801  0.00  0.00    -0.268 OA
ATOM     25  N   UNL d   1      20.808 -19.937   0.463  0.00  0.00    -0.357 N 
ATOM     26  H   UNL d   1      21.336 -19.707   1.290  0.00  0.00     0.162 HD
BRANCH  25  27
ATOM     27  C   UNL d   1      19.791 -20.957   0.605  0.00  0.00     0.118 C 
ATOM     28  C   UNL d   1      18.757 -20.580   1.652  0.00  0.00     0.026 C 
ENDBRANCH  25  27
ENDBRANCH  21  23
ENDBRANCH  15  17
ENDBRANCH   1  15
TORSDOF 11
ENDMDL
MODEL 6
REMARK VINA RESULT:    -7.160      1.941      2.483
REMARK INTER + INTRA:         -12.616
REMARK INTER:                 -10.441
REMARK INTRA:                  -2.175
REMARK CONF_INDEPENDENT:        3.281
REMARK UNBOUND:                -2.175
REMARK  11 active torsions:
REMARK  status: ('A' for Active; 'I' for Inactive)
REMARK    1  A    between atoms: C_2  and  C_3 
REMARK    2  A    between atoms: C_3  and  O_4 
REMARK    3  A    between atoms: O_4  and  C_5 
REMARK    4  A    between atoms: C_5  and  C_7 
REMARK    5  A    between atoms: C_7  and  C_8 
REMARK    6  A    between atoms: C_8  and  C_9 
REMARK       I    between atoms: C_9  and  N_11 
REMARK    7  A    between atoms: N_11  and  C_12 
REMARK    8  A    between atoms: C_12  and  N_14 
REMARK    9  A    between atoms: N_14  and  C_15 
REMARK   10  A    between atoms: C_19  and  C_20 
REMARK       I    between atoms: C_20  and  N_22 
REMARK   11  A    between atoms: N_22  and  C_23 
ROOT
ATOM      1  C   UNL d   1      26.735 -14.825  -2.708  0.00  0.00     0.178 C 
ATOM      2  S   UNL d   1      26.586 -13.745  -1.404  0.00  0.00    -0.040 SA
ENDROOT
BRANCH   1   3
ATOM      3  N   UNL d   1      27.756 -14.701  -3.690  0.00  0.00    -0.304 N 
ATOM      4  C   UNL d   1      27.563 -14.954  -5.064  0.00  0.00     0.224 C 
ATOM      5  O   UNL d   1      26.522 -15.413  -5.535  0.00  0.00    -0.273 OA
ATOM      6  H   UNL d   1      28.671 -14.381  -3.397  0.00  0.00     0.171 HD
BRANCH   4   7
ATOM      7  C   UNL d   1      28.688 -14.692  -6.056  0.00  0.00     0.113 C 
BRANCH   7   8
ATOM      8  C   UNL d   1      29.629 -15.942  -6.102  0.00  0.00     0.120 C 
BRANCH   8   9
ATOM      9  C   UNL d   1      29.871 -16.539  -4.739  0.00  0.00     0.259 C 
ATOM     10  O   UNL d   1      30.223 -15.870  -3.766  0.00  0.00    -0.265 OA
BRANCH   9  11
ATOM     11  O   UNL d   1      29.655 -17.889  -4.710  0.00  0.00    -0.321 OA
BRANCH  11  12
ATOM     12  C   UNL d   1      30.868 -18.675  -4.721  0.00  0.00     0.178 C 
BRANCH  12  13
ATOM     13  C   UNL d   1      30.587 -20.128  -5.117  0.00  0.00     0.022 C 
ATOM     14  C   UNL d   1      31.488 -21.100  -4.363  0.00  0.00     0.007 C 
ENDBRANCH  12  13
ENDBRANCH  11  12
ENDBRANCH   9  11
ENDBRANCH   8   9
ENDBRANCH   7   8
ENDBRANCH   4   7
ENDBRANCH   1   3
BRANCH   1  15
ATOM     15  N   UNL d   1      25.866 -15.940  -2.867  0.00  0.00    -0.333 N 
ATOM     16  H   UNL d   1      25.709 -16.343  -3.783  0.00  0.00     0.168 HD
BRANCH  15  17
ATOM     17  C   UNL d   1      25.422 -16.755  -1.754  0.00  0.00     0.035 A 
ATOM     18  C   UNL d   1      26.281 -17.222  -0.757  0.00  0.00     0.029 A 
ATOM     19  C   UNL d   1      25.768 -17.993   0.309  0.00  0.00     0.003 A 
ATOM     20  C   UNL d   1      24.394 -18.258   0.409  0.00  0.00     0.017 A 
ATOM     21  C   UNL d   1      23.526 -17.821  -0.592  0.00  0.00     0.034 A 
ATOM     22  C   UNL d   1      24.069 -17.114  -1.672  0.00  0.00     0.046 A 
BRANCH  21  23
ATOM     23  C   UNL d   1      22.065 -18.151  -0.526  0.00  0.00     0.251 C 
ATOM     24  O   UNL d   1      21.234 -17.326  -0.909  0.00  0.00    -0.268 OA
ATOM     25  N   UNL d   1      21.702 -19.381  -0.005  0.00  0.00    -0.357 N 
ATOM     26  H   UNL d   1      22.393 -20.074   0.237  0.00  0.00     0.162 HD
BRANCH  25  27
ATOM     27  C   UNL d   1      20.316 -19.774   0.129  0.00  0.00     0.118 C 
ATOM     28  C   UNL d   1      19.906 -19.909   1.587  0.00  0.00     0.026 C 
ENDBRANCH  25  27
ENDBRANCH  21  23
ENDBRANCH  15  17
ENDBRANCH   1  15
TORSDOF 11
ENDMDL
MODEL 7
REMARK VINA RESULT:    -7.111      1.483      2.772
REMARK INTER + INTRA:         -12.821
REMARK INTER:                 -10.392
REMARK INTRA:                  -2.429
REMARK CONF_INDEPENDENT:        3.281
REMARK UNBOUND:                -2.429
REMARK  11 active torsions:
REMARK  status: ('A' for Active; 'I' for Inactive)
REMARK    1  A    between atoms: C_2  and  C_3 
REMARK    2  A    between atoms: C_3  and  O_4 
REMARK    3  A    between atoms: O_4  and  C_5 
REMARK    4  A    between atoms: C_5  and  C_7 
REMARK    5  A    between atoms: C_7  and  C_8 
REMARK    6  A    between atoms: C_8  and  C_9 
REMARK       I    between atoms: C_9  and  N_11 
REMARK    7  A    between atoms: N_11  and  C_12 
REMARK    8  A    between atoms: C_12  and  N_14 
REMARK    9  A    between atoms: N_14  and  C_15 
REMARK   10  A    between atoms: C_19  and  C_20 
REMARK       I    between atoms: C_20  and  N_22 
REMARK   11  A    between atoms: N_22  and  C_23 
ROOT
ATOM      1  C   UNL d   1      26.220 -14.638  -1.914  0.00  0.00     0.178 C 
ATOM      2  S   UNL d   1      26.875 -13.903  -0.529  0.00  0.00    -0.040 SA
ENDROOT
BRANCH   1   3
ATOM      3  N   UNL d   1      26.946 -14.760  -3.130  0.00  0.00    -0.304 N 
ATOM      4  C   UNL d   1      26.347 -14.783  -4.407  0.00  0.00     0.224 C 
ATOM      5  O   UNL d   1      25.130 -14.812  -4.591  0.00  0.00    -0.273 OA
ATOM      6  H   UNL d   1      27.957 -14.799  -3.086  0.00  0.00     0.171 HD
BRANCH   4   7
ATOM      7  C   UNL d   1      27.214 -14.808  -5.659  0.00  0.00     0.113 C 
BRANCH   7   8
ATOM      8  C   UNL d   1      27.763 -13.368  -5.929  0.00  0.00     0.120 C 
BRANCH   8   9
ATOM      9  C   UNL d   1      28.342 -12.725  -4.693  0.00  0.00     0.259 C 
ATOM     10  O   UNL d   1      29.199 -13.266  -3.994  0.00  0.00    -0.265 OA
BRANCH   9  11
ATOM     11  O   UNL d   1      27.812 -11.489  -4.446  0.00  0.00    -0.321 OA
BRANCH  11  12
ATOM     12  C   UNL d   1      26.401 -11.389  -4.742  0.00  0.00     0.178 C 
BRANCH  12  13
ATOM     13  C   UNL d   1      25.610 -10.897  -3.525  0.00  0.00     0.022 C 
ATOM     14  C   UNL d   1      25.345  -9.397  -3.596  0.00  0.00     0.007 C 
ENDBRANCH  12  13
ENDBRANCH  11  12
ENDBRANCH   9  11
ENDBRANCH   8   9
ENDBRANCH   7   8
ENDBRANCH   4   7
ENDBRANCH   1   3
BRANCH   1  15
ATOM     15  N   UNL d   1      24.917 -15.210  -1.920  0.00  0.00    -0.333 N 
ATOM     16  H   UNL d   1      24.231 -14.920  -2.608  0.00  0.00     0.168 HD
BRANCH  15  17
ATOM     17  C   UNL d   1      24.589 -16.424  -1.200  0.00  0.00     0.035 A 
ATOM     18  C   UNL d   1      25.521 -17.147  -0.453  0.00  0.00     0.029 A 
ATOM     19  C   UNL d   1      25.119 -18.309   0.239  0.00  0.00     0.003 A 
ATOM     20  C   UNL d   1      23.778 -18.725   0.229  0.00  0.00     0.017 A 
ATOM     21  C   UNL d   1      22.839 -18.029  -0.533  0.00  0.00     0.034 A 
ATOM     22  C   UNL d   1      23.277 -16.917  -1.262  0.00  0.00     0.046 A 
BRANCH  21  23
ATOM     23  C   UNL d   1      21.418 -18.499  -0.598  0.00  0.00     0.251 C 
ATOM     24  O   UNL d   1      20.596 -17.873  -1.270  0.00  0.00    -0.268 OA
ATOM     25  N   UNL d   1      21.073 -19.626   0.129  0.00  0.00    -0.357 N 
ATOM     26  H   UNL d   1      21.769 -20.170   0.615  0.00  0.00     0.162 HD
BRANCH  25  27
ATOM     27  C   UNL d   1      19.720 -20.136   0.154  0.00  0.00     0.118 C 
ATOM     28  C   UNL d   1      19.136 -20.120   1.557  0.00  0.00     0.026 C 
ENDBRANCH  25  27
ENDBRANCH  21  23
ENDBRANCH  15  17
ENDBRANCH   1  15
TORSDOF 11
ENDMDL
MODEL 8
REMARK VINA RESULT:    -6.971      1.976      3.043
REMARK INTER + INTRA:         -12.433
REMARK INTER:                 -10.252
REMARK INTRA:                  -2.181
REMARK CONF_INDEPENDENT:        3.281
REMARK UNBOUND:                -2.181
REMARK  11 active torsions:
REMARK  status: ('A' for Active; 'I' for Inactive)
REMARK    1  A    between atoms: C_2  and  C_3 
REMARK    2  A    between atoms: C_3  and  O_4 
REMARK    3  A    between atoms: O_4  and  C_5 
REMARK    4  A    between atoms: C_5  and  C_7 
REMARK    5  A    between atoms: C_7  and  C_8 
REMARK    6  A    between atoms: C_8  and  C_9 
REMARK       I    between atoms: C_9  and  N_11 
REMARK    7  A    between atoms: N_11  and  C_12 
REMARK    8  A    between atoms: C_12  and  N_14 
REMARK    9  A    between atoms: N_14  and  C_15 
REMARK   10  A    between atoms: C_19  and  C_20 
REMARK       I    between atoms: C_20  and  N_22 
REMARK   11  A    between atoms: N_22  and  C_23 
ROOT
ATOM      1  C   UNL d   1      26.069 -15.000  -3.126  0.00  0.00     0.178 C 
ATOM      2  S   UNL d   1      25.389 -14.501  -4.601  0.00  0.00    -0.040 SA
ENDROOT
BRANCH   1   3
ATOM      3  N   UNL d   1      27.432 -15.386  -3.005  0.00  0.00    -0.304 N 
ATOM      4  C   UNL d   1      28.293 -15.596  -4.103  0.00  0.00     0.224 C 
ATOM      5  O   UNL d   1      27.920 -15.575  -5.277  0.00  0.00    -0.273 OA
ATOM      6  H   UNL d   1      27.825 -15.486  -2.078  0.00  0.00     0.171 HD
BRANCH   4   7
ATOM      7  C   UNL d   1      29.766 -15.904  -3.874  0.00  0.00     0.113 C 
BRANCH   7   8
ATOM      8  C   UNL d   1      29.887 -17.143  -2.925  0.00  0.00     0.120 C 
BRANCH   8   9
ATOM      9  C   UNL d   1      29.377 -16.861  -1.534  0.00  0.00     0.259 C 
ATOM     10  O   UNL d   1      28.722 -17.673  -0.880  0.00  0.00    -0.265 OA
BRANCH   9  11
ATOM     11  O   UNL d   1      29.725 -15.615  -1.089  0.00  0.00    -0.321 OA
BRANCH  11  12
ATOM     12  C   UNL d   1      29.667 -15.469   0.347  0.00  0.00     0.178 C 
BRANCH  12  13
ATOM     13  C   UNL d   1      28.928 -14.189   0.748  0.00  0.00     0.022 C 
ATOM     14  C   UNL d   1      27.465 -14.226   0.319  0.00  0.00     0.007 C 
ENDBRANCH  12  13
ENDBRANCH  11  12
ENDBRANCH   9  11
ENDBRANCH   8   9
ENDBRANCH   7   8
ENDBRANCH   4   7
ENDBRANCH   1   3
BRANCH   1  15
ATOM     15  N   UNL d   1      25.318 -15.023  -1.918  0.00  0.00    -0.333 N 
ATOM     16  H   UNL d   1      24.800 -14.205  -1.619  0.00  0.00     0.168 HD
BRANCH  15  17
ATOM     17  C   UNL d   1      24.976 -16.251  -1.229  0.00  0.00     0.035 A 
ATOM     18  C   UNL d   1      25.908 -17.024  -0.533  0.00  0.00     0.029 A 
ATOM     19  C   UNL d   1      25.492 -18.196   0.133  0.00  0.00     0.003 A 
ATOM     20  C   UNL d   1      24.141 -18.575   0.148  0.00  0.00     0.017 A 
ATOM     21  C   UNL d   1      23.201 -17.829  -0.564  0.00  0.00     0.034 A 
ATOM     22  C   UNL d   1      23.650 -16.706  -1.270  0.00  0.00     0.046 A 
BRANCH  21  23
ATOM     23  C   UNL d   1      21.765 -18.259  -0.604  0.00  0.00     0.251 C 
ATOM     24  O   UNL d   1      20.916 -17.510  -1.090  0.00  0.00    -0.268 OA
ATOM     25  N   UNL d   1      21.442 -19.491  -0.063  0.00  0.00    -0.357 N 
ATOM     26  H   UNL d   1      22.156 -20.124   0.266  0.00  0.00     0.162 HD
BRANCH  25  27
ATOM     27  C   UNL d   1      20.080 -19.977  -0.027  0.00  0.00     0.118 C 
ATOM     28  C   UNL d   1      19.570 -20.120   1.398  0.00  0.00     0.026 C 
ENDBRANCH  25  27
ENDBRANCH  21  23
ENDBRANCH  15  17
ENDBRANCH   1  15
TORSDOF 11
ENDMDL
MODEL 9
REMARK VINA RESULT:    -6.563      1.995      2.518
REMARK INTER + INTRA:         -12.353
REMARK INTER:                  -9.844
REMARK INTRA:                  -2.509
REMARK CONF_INDEPENDENT:        3.281
REMARK UNBOUND:                -2.509
REMARK  11 active torsions:
REMARK  status: ('A' for Active; 'I' for Inactive)
REMARK    1  A    between atoms: C_2  and  C_3 
REMARK    2  A    between atoms: C_3  and  O_4 
REMARK    3  A    between atoms: O_4  and  C_5 
REMARK    4  A    between atoms: C_5  and  C_7 
REMARK    5  A    between atoms: C_7  and  C_8 
REMARK    6  A    between atoms: C_8  and  C_9 
REMARK       I    between atoms: C_9  and  N_11 
REMARK    7  A    between atoms: N_11  and  C_12 
REMARK    8  A    between atoms: C_12  and  N_14 
REMARK    9  A    between atoms: N_14  and  C_15 
REMARK   10  A    between atoms: C_19  and  C_20 
REMARK       I    between atoms: C_20  and  N_22 
REMARK   11  A    between atoms: N_22  and  C_23 
ROOT
ATOM      1  C   UNL d   1      25.447 -14.346  -3.238  0.00  0.00     0.178 C 
ATOM      2  S   UNL d   1      25.531 -15.574  -4.409  0.00  0.00    -0.040 SA
ENDROOT
BRANCH   1   3
ATOM      3  N   UNL d   1      25.257 -12.978  -3.577  0.00  0.00    -0.304 N 
ATOM      4  C   UNL d   1      25.923 -11.908  -2.943  0.00  0.00     0.224 C 
ATOM      5  O   UNL d   1      26.650 -12.043  -1.958  0.00  0.00    -0.273 OA
ATOM      6  H   UNL d   1      24.633 -12.753  -4.342  0.00  0.00     0.171 HD
BRANCH   4   7
ATOM      7  C   UNL d   1      25.736 -10.483  -3.445  0.00  0.00     0.113 C 
BRANCH   7   8
ATOM      8  C   UNL d   1      26.575 -10.289  -4.752  0.00  0.00     0.120 C 
BRANCH   8   9
ATOM      9  C   UNL d   1      26.288 -11.345  -5.790  0.00  0.00     0.259 C 
ATOM     10  O   UNL d   1      25.147 -11.652  -6.139  0.00  0.00    -0.265 OA
BRANCH   9  11
ATOM     11  O   UNL d   1      27.427 -11.912  -6.292  0.00  0.00    -0.321 OA
BRANCH  11  12
ATOM     12  C   UNL d   1      28.239 -12.573  -5.296  0.00  0.00     0.178 C 
BRANCH  12  13
ATOM     13  C   UNL d   1      28.452 -14.049  -5.641  0.00  0.00     0.022 C 
ATOM     14  C   UNL d   1      28.693 -14.890  -4.391  0.00  0.00     0.007 C 
ENDBRANCH  12  13
ENDBRANCH  11  12
ENDBRANCH   9  11
ENDBRANCH   8   9
ENDBRANCH   7   8
ENDBRANCH   4   7
ENDBRANCH   1   3
BRANCH   1  15
ATOM     15  N   UNL d   1      25.524 -14.625  -1.845  0.00  0.00    -0.333 N 
ATOM     16  H   UNL d   1      25.568 -13.870  -1.170  0.00  0.00     0.168 HD
BRANCH  15  17
ATOM     17  C   UNL d   1      25.225 -15.928  -1.288  0.00  0.00     0.035 A 
ATOM     18  C   UNL d   1      26.199 -16.776  -0.755  0.00  0.00     0.029 A 
ATOM     19  C   UNL d   1      25.824 -18.022  -0.209  0.00  0.00     0.003 A 
ATOM     20  C   UNL d   1      24.475 -18.405  -0.148  0.00  0.00     0.017 A 
ATOM     21  C   UNL d   1      23.492 -17.582  -0.699  0.00  0.00     0.034 A 
ATOM     22  C   UNL d   1      23.897 -16.380  -1.293  0.00  0.00     0.046 A 
BRANCH  21  23
ATOM     23  C   UNL d   1      22.055 -18.009  -0.693  0.00  0.00     0.251 C 
ATOM     24  O   UNL d   1      21.198 -17.278  -1.191  0.00  0.00    -0.268 OA
ATOM     25  N   UNL d   1      21.741 -19.218  -0.096  0.00  0.00    -0.357 N 
ATOM     26  H   UNL d   1      22.460 -19.839   0.243  0.00  0.00     0.162 HD
BRANCH  25  27
ATOM     27  C   UNL d   1      20.379 -19.698  -0.013  0.00  0.00     0.118 C 
ATOM     28  C   UNL d   1      19.970 -19.990   1.422  0.00  0.00     0.026 C 
ENDBRANCH  25  27
ENDBRANCH  21  23
ENDBRANCH  15  17
ENDBRANCH   1  15
TORSDOF 11
ENDMDL
