MODEL 1
REMARK VINA RESULT:    -7.845      0.000      0.000
REMARK INTER + INTRA:         -16.378
REMARK INTER:                 -11.723
REMARK INTRA:                  -4.656
REMARK CONF_INDEPENDENT:        3.878
REMARK UNBOUND:                -4.656
REMARK  13 active torsions:
REMARK  status: ('A' for Active; 'I' for Inactive)
REMARK    1  A    between atoms: O_2  and  C_3 
REMARK    2  A    between atoms: C_8  and  O_9 
REMARK    3  A    between atoms: O_9  and  C_10 
REMARK    4  A    between atoms: C_11  and  C_12 
REMARK    5  A    between atoms: N_13  and  C_12 
REMARK    6  A    between atoms: N_13  and  C_23 
REMARK    7  A    between atoms: N_13  and  C_14 
REMARK    8  A    between atoms: C_14  and  C_15 
REMARK    9  A    between atoms: C_15  and  O_16 
REMARK   10  A    between atoms: C_15  and  C_17 
REMARK   11  A    between atoms: C_17  and  O_18 
REMARK   12  A    between atoms: O_18  and  C_19 
REMARK   13  A    between atoms: N_29  and  C_30 
ROOT
ATOM      1  C   UNL d   1      27.201 -15.655  -0.921  0.00  0.00     0.181 A 
ATOM      2  C   UNL d   1      28.587 -15.937  -0.859  0.00  0.00     0.047 A 
ATOM      3  C   UNL d   1      28.673 -17.369  -0.766  0.00  0.00     0.063 A 
ATOM      4  C   UNL d   1      29.860 -18.260  -0.522  0.00  0.00     0.073 C 
ATOM      5  N   UNL d   1      27.469 -17.916  -0.719  0.00  0.00    -0.170 NA
ATOM      6  N   UNL d   1      26.569 -16.906  -0.859  0.00  0.00    -0.210 N 
ENDROOT
BRANCH   2   7
ATOM      7  C   UNL d   1      29.744 -15.012  -0.608  0.00  0.00     0.280 C 
BRANCH   7   8
ATOM      8  N   UNL d   1      30.017 -14.690   0.861  0.00  0.00    -0.060 N 
ATOM      9  H   UNL d   1      29.590 -15.497   1.340  0.00  0.00     0.280 HD
BRANCH   8  10
ATOM     10  C   UNL d   1      31.471 -14.711   1.234  0.00  0.00     0.188 A 
ATOM     11  C   UNL d   1      31.898 -15.194   2.602  0.00  0.00     0.035 A 
ATOM     12  C   UNL d   1      32.117 -16.060   1.400  0.00  0.00     0.035 A 
ENDBRANCH   8  10
BRANCH   8  13
ATOM     13  C   UNL d   1      29.277 -13.495   1.391  0.00  0.00     0.269 C 
BRANCH  13  14
ATOM     14  C   UNL d   1      27.879 -13.836   1.866  0.00  0.00     0.167 C 
BRANCH  14  15
ATOM     15  O   UNL d   1      27.785 -15.239   2.085  0.00  0.00    -0.392 OA
ATOM     16  H   UNL d   1      28.192 -15.474   2.938  0.00  0.00     0.210 HD
ENDBRANCH  14  15
BRANCH  14  17
ATOM     17  C   UNL d   1      27.589 -13.013   3.082  0.00  0.00     0.202 C 
BRANCH  17  18
ATOM     18  O   UNL d   1      27.344 -13.917   4.144  0.00  0.00    -0.379 OA
BRANCH  18  19
ATOM     19  C   UNL d   1      28.280 -13.809   5.217  0.00  0.00     0.050 C 
ATOM     20  C   UNL d   1      27.747 -12.809   6.246  0.00  0.00     0.045 C 
ATOM     21  C   UNL d   1      28.541 -15.192   5.825  0.00  0.00     0.045 C 
ATOM     22  C   UNL d   1      29.579 -13.273   4.613  0.00  0.00     0.045 C 
ENDBRANCH  18  19
ENDBRANCH  17  18
ENDBRANCH  14  17
ENDBRANCH  13  14
ENDBRANCH   8  13
ENDBRANCH   7   8
ENDBRANCH   2   7
BRANCH   1  23
ATOM     23  O   UNL d   1      26.558 -14.463  -0.785  0.00  0.00    -0.288 OA
BRANCH  23  24
ATOM     24  C   UNL d   1      26.333 -13.506  -1.786  0.00  0.00     0.111 A 
ATOM     25  C   UNL d   1      26.831 -12.209  -1.491  0.00  0.00     0.040 A 
ATOM     26  C   UNL d   1      26.727 -11.124  -2.396  0.00  0.00     0.003 A 
ATOM     27  C   UNL d   1      26.139 -11.320  -3.641  0.00  0.00     0.003 A 
ATOM     28  C   UNL d   1      25.623 -12.561  -3.930  0.00  0.00     0.039 A 
ATOM     29  C   UNL d   1      25.673 -13.648  -3.031  0.00  0.00     0.102 A 
BRANCH  29  30
ATOM     30  O   UNL d   1      25.115 -14.719  -3.647  0.00  0.00    -0.353 OA
ATOM     31  C   UNL d   1      25.900 -15.574  -4.429  0.00  0.00     0.210 C 
ENDBRANCH  29  30
ENDBRANCH  23  24
ENDBRANCH   1  23
BRANCH   6  32
ATOM     32  C   UNL d   1      25.193 -17.170  -0.721  0.00  0.00     0.061 A 
ATOM     33  C   UNL d   1      24.229 -16.186  -1.030  0.00  0.00     0.031 A 
ATOM     34  C   UNL d   1      22.877 -16.474  -0.905  0.00  0.00     0.002 A 
ATOM     35  C   UNL d   1      22.476 -17.717  -0.417  0.00  0.00     0.000 A 
ATOM     36  C   UNL d   1      23.437 -18.689  -0.116  0.00  0.00     0.002 A 
ATOM     37  C   UNL d   1      24.789 -18.436  -0.302  0.00  0.00     0.031 A 
ENDBRANCH   6  32
TORSDOF 13
ENDMDL
MODEL 2
REMARK VINA RESULT:    -7.661      0.764      1.352
REMARK INTER + INTRA:         -16.146
REMARK INTER:                 -11.539
REMARK INTRA:                  -4.607
REMARK CONF_INDEPENDENT:        3.878
REMARK UNBOUND:                -4.607
REMARK  13 active torsions:
REMARK  status: ('A' for Active; 'I' for Inactive)
REMARK    1  A    between atoms: O_2  and  C_3 
REMARK    2  A    between atoms: C_8  and  O_9 
REMARK    3  A    between atoms: O_9  and  C_10 
REMARK    4  A    between atoms: C_11  and  C_12 
REMARK    5  A    between atoms: N_13  and  C_12 
REMARK    6  A    between atoms: N_13  and  C_23 
REMARK    7  A    between atoms: N_13  and  C_14 
REMARK    8  A    between atoms: C_14  and  C_15 
REMARK    9  A    between atoms: C_15  and  O_16 
REMARK   10  A    between atoms: C_15  and  C_17 
REMARK   11  A    between atoms: C_17  and  O_18 
REMARK   12  A    between atoms: O_18  and  C_19 
REMARK   13  A    between atoms: N_29  and  C_30 
ROOT
ATOM      1  C   UNL d   1      26.737 -15.630  -1.298  0.00  0.00     0.181 A 
ATOM      2  C   UNL d   1      28.141 -15.786  -1.201  0.00  0.00     0.047 A 
ATOM      3  C   UNL d   1      28.341 -17.175  -0.890  0.00  0.00     0.063 A 
ATOM      4  C   UNL d   1      29.594 -17.920  -0.520  0.00  0.00     0.073 C 
ATOM      5  N   UNL d   1      27.184 -17.805  -0.754  0.00  0.00    -0.170 NA
ATOM      6  N   UNL d   1      26.207 -16.904  -1.042  0.00  0.00    -0.210 N 
ENDROOT
BRANCH   2   7
ATOM      7  C   UNL d   1      29.217 -14.744  -1.101  0.00  0.00     0.280 C 
BRANCH   7   8
ATOM      8  N   UNL d   1      29.483 -14.211   0.308  0.00  0.00    -0.060 N 
ATOM      9  H   UNL d   1      29.345 -15.054   0.884  0.00  0.00     0.280 HD
BRANCH   8  10
ATOM     10  C   UNL d   1      30.899 -13.777   0.543  0.00  0.00     0.188 A 
ATOM     11  C   UNL d   1      31.439 -13.673   1.951  0.00  0.00     0.035 A 
ATOM     12  C   UNL d   1      31.855 -14.811   1.072  0.00  0.00     0.035 A 
ENDBRANCH   8  10
BRANCH   8  13
ATOM     13  C   UNL d   1      28.461 -13.232   0.812  0.00  0.00     0.269 C 
BRANCH  13  14
ATOM     14  C   UNL d   1      27.542 -13.831   1.858  0.00  0.00     0.167 C 
BRANCH  14  15
ATOM     15  O   UNL d   1      27.877 -15.200   2.049  0.00  0.00    -0.392 OA
ATOM     16  H   UNL d   1      28.611 -15.281   2.683  0.00  0.00     0.210 HD
ENDBRANCH  14  15
BRANCH  14  17
ATOM     17  C   UNL d   1      27.651 -13.002   3.099  0.00  0.00     0.202 C 
BRANCH  17  18
ATOM     18  O   UNL d   1      28.885 -13.334   3.711  0.00  0.00    -0.379 OA
BRANCH  18  19
ATOM     19  C   UNL d   1      28.749 -13.830   5.043  0.00  0.00     0.050 C 
ATOM     20  C   UNL d   1      29.879 -14.825   5.323  0.00  0.00     0.045 C 
ATOM     21  C   UNL d   1      28.737 -12.663   6.037  0.00  0.00     0.045 C 
ATOM     22  C   UNL d   1      27.405 -14.557   5.105  0.00  0.00     0.045 C 
ENDBRANCH  18  19
ENDBRANCH  17  18
ENDBRANCH  14  17
ENDBRANCH  13  14
ENDBRANCH   8  13
ENDBRANCH   7   8
ENDBRANCH   2   7
BRANCH   1  23
ATOM     23  O   UNL d   1      25.998 -14.487  -1.342  0.00  0.00    -0.288 OA
BRANCH  23  24
ATOM     24  C   UNL d   1      26.009 -13.514  -2.352  0.00  0.00     0.111 A 
ATOM     25  C   UNL d   1      26.531 -12.252  -1.957  0.00  0.00     0.040 A 
ATOM     26  C   UNL d   1      26.652 -11.160  -2.850  0.00  0.00     0.003 A 
ATOM     27  C   UNL d   1      26.275 -11.312  -4.180  0.00  0.00     0.003 A 
ATOM     28  C   UNL d   1      25.738 -12.516  -4.571  0.00  0.00     0.039 A 
ATOM     29  C   UNL d   1      25.565 -13.607  -3.693  0.00  0.00     0.102 A 
BRANCH  29  30
ATOM     30  O   UNL d   1      25.054 -14.638  -4.412  0.00  0.00    -0.353 OA
ATOM     31  C   UNL d   1      25.905 -15.575  -5.009  0.00  0.00     0.210 C 
ENDBRANCH  29  30
ENDBRANCH  23  24
ENDBRANCH   1  23
BRANCH   6  32
ATOM     32  C   UNL d   1      24.856 -17.254  -0.858  0.00  0.00     0.061 A 
ATOM     33  C   UNL d   1      24.489 -18.563  -0.478  0.00  0.00     0.031 A 
ATOM     34  C   UNL d   1      23.152 -18.881  -0.283  0.00  0.00     0.002 A 
ATOM     35  C   UNL d   1      22.170 -17.920  -0.521  0.00  0.00     0.000 A 
ATOM     36  C   UNL d   1      22.541 -16.623  -0.895  0.00  0.00     0.002 A 
ATOM     37  C   UNL d   1      23.878 -16.276  -1.026  0.00  0.00     0.031 A 
ENDBRANCH   6  32
TORSDOF 13
ENDMDL
MODEL 3
REMARK VINA RESULT:    -6.357      1.823      2.710
REMARK INTER + INTRA:         -15.910
REMARK INTER:                 -10.235
REMARK INTRA:                  -5.676
REMARK CONF_INDEPENDENT:        3.878
REMARK UNBOUND:                -5.676
REMARK  13 active torsions:
REMARK  status: ('A' for Active; 'I' for Inactive)
REMARK    1  A    between atoms: O_2  and  C_3 
REMARK    2  A    between atoms: C_8  and  O_9 
REMARK    3  A    between atoms: O_9  and  C_10 
REMARK    4  A    between atoms: C_11  and  C_12 
REMARK    5  A    between atoms: N_13  and  C_12 
REMARK    6  A    between atoms: N_13  and  C_23 
REMARK    7  A    between atoms: N_13  and  C_14 
REMARK    8  A    between atoms: C_14  and  C_15 
REMARK    9  A    between atoms: C_15  and  O_16 
REMARK   10  A    between atoms: C_15  and  C_17 
REMARK   11  A    between atoms: C_17  and  O_18 
REMARK   12  A    between atoms: O_18  and  C_19 
REMARK   13  A    between atoms: N_29  and  C_30 
ROOT
ATOM      1  C   UNL d   1      26.260 -16.192  -2.371  0.00  0.00     0.181 A 
ATOM      2  C   UNL d   1      27.649 -16.072  -2.122  0.00  0.00     0.047 A 
ATOM      3  C   UNL d   1      27.895 -16.902  -0.975  0.00  0.00     0.063 A 
ATOM      4  C   UNL d   1      29.138 -17.073  -0.145  0.00  0.00     0.073 C 
ATOM      5  N   UNL d   1      26.772 -17.437  -0.523  0.00  0.00    -0.170 NA
ATOM      6  N   UNL d   1      25.783 -17.061  -1.377  0.00  0.00    -0.210 N 
ENDROOT
BRANCH   2   7
ATOM      7  C   UNL d   1      28.638 -15.083  -2.667  0.00  0.00     0.280 C 
BRANCH   7   8
ATOM      8  N   UNL d   1      28.990 -13.926  -1.730  0.00  0.00    -0.060 N 
ATOM      9  H   UNL d   1      28.670 -14.285  -0.819  0.00  0.00     0.280 HD
BRANCH   8  10
ATOM     10  C   UNL d   1      30.463 -13.680  -1.584  0.00  0.00     0.188 A 
ATOM     11  C   UNL d   1      31.222 -14.281  -0.423  0.00  0.00     0.035 A 
ATOM     12  C   UNL d   1      31.379 -14.855  -1.797  0.00  0.00     0.035 A 
ENDBRANCH   8  10
BRANCH   8  13
ATOM     13  C   UNL d   1      28.189 -12.674  -1.951  0.00  0.00     0.269 C 
BRANCH  13  14
ATOM     14  C   UNL d   1      27.077 -12.503  -0.935  0.00  0.00     0.167 C 
BRANCH  14  15
ATOM     15  O   UNL d   1      26.431 -13.754  -0.730  0.00  0.00    -0.392 OA
ATOM     16  H   UNL d   1      26.029 -14.064  -1.560  0.00  0.00     0.210 HD
ENDBRANCH  14  15
BRANCH  14  17
ATOM     17  C   UNL d   1      27.672 -11.919   0.307  0.00  0.00     0.202 C 
BRANCH  17  18
ATOM     18  O   UNL d   1      28.606 -12.862   0.802  0.00  0.00    -0.379 OA
BRANCH  18  19
ATOM     19  C   UNL d   1      28.323 -13.309   2.128  0.00  0.00     0.050 C 
ATOM     20  C   UNL d   1      29.522 -12.997   3.027  0.00  0.00     0.045 C 
ATOM     21  C   UNL d   1      27.028 -12.663   2.632  0.00  0.00     0.045 C 
ATOM     22  C   UNL d   1      28.130 -14.824   2.047  0.00  0.00     0.045 C 
ENDBRANCH  18  19
ENDBRANCH  17  18
ENDBRANCH  14  17
ENDBRANCH  13  14
ENDBRANCH   8  13
ENDBRANCH   7   8
ENDBRANCH   2   7
BRANCH   1  23
ATOM     23  O   UNL d   1      25.463 -15.446  -3.185  0.00  0.00    -0.288 OA
BRANCH  23  24
ATOM     24  C   UNL d   1      25.844 -14.333  -3.949  0.00  0.00     0.111 A 
ATOM     25  C   UNL d   1      25.240 -13.108  -3.558  0.00  0.00     0.040 A 
ATOM     26  C   UNL d   1      25.530 -11.875  -4.191  0.00  0.00     0.003 A 
ATOM     27  C   UNL d   1      26.459 -11.833  -5.225  0.00  0.00     0.003 A 
ATOM     28  C   UNL d   1      27.028 -13.014  -5.638  0.00  0.00     0.039 A 
ATOM     29  C   UNL d   1      26.726 -14.264  -5.055  0.00  0.00     0.102 A 
BRANCH  29  30
ATOM     30  O   UNL d   1      27.489 -15.201  -5.670  0.00  0.00    -0.353 OA
ATOM     31  C   UNL d   1      28.593 -14.821  -6.441  0.00  0.00     0.210 C 
ENDBRANCH  29  30
ENDBRANCH  23  24
ENDBRANCH   1  23
BRANCH   6  32
ATOM     32  C   UNL d   1      24.443 -17.377  -1.081  0.00  0.00     0.061 A 
ATOM     33  C   UNL d   1      24.071 -18.688  -0.713  0.00  0.00     0.031 A 
ATOM     34  C   UNL d   1      22.747 -18.974  -0.405  0.00  0.00     0.002 A 
ATOM     35  C   UNL d   1      21.779 -17.977  -0.520  0.00  0.00     0.000 A 
ATOM     36  C   UNL d   1      22.157 -16.679  -0.883  0.00  0.00     0.002 A 
ATOM     37  C   UNL d   1      23.486 -16.366  -1.126  0.00  0.00     0.031 A 
ENDBRANCH   6  32
TORSDOF 13
ENDMDL
MODEL 4
REMARK VINA RESULT:    -6.179      2.904      5.680
REMARK INTER + INTRA:         -16.383
REMARK INTER:                 -10.057
REMARK INTRA:                  -6.326
REMARK CONF_INDEPENDENT:        3.878
REMARK UNBOUND:                -6.326
REMARK  13 active torsions:
REMARK  status: ('A' for Active; 'I' for Inactive)
REMARK    1  A    between atoms: O_2  and  C_3 
REMARK    2  A    between atoms: C_8  and  O_9 
REMARK    3  A    between atoms: O_9  and  C_10 
REMARK    4  A    between atoms: C_11  and  C_12 
REMARK    5  A    between atoms: N_13  and  C_12 
REMARK    6  A    between atoms: N_13  and  C_23 
REMARK    7  A    between atoms: N_13  and  C_14 
REMARK    8  A    between atoms: C_14  and  C_15 
REMARK    9  A    between atoms: C_15  and  O_16 
REMARK   10  A    between atoms: C_15  and  C_17 
REMARK   11  A    between atoms: C_17  and  O_18 
REMARK   12  A    between atoms: O_18  and  C_19 
REMARK   13  A    between atoms: N_29  and  C_30 
ROOT
ATOM      1  C   UNL d   1      26.308 -15.868  -1.666  0.00  0.00     0.181 A 
ATOM      2  C   UNL d   1      27.428 -15.241  -1.068  0.00  0.00     0.047 A 
ATOM      3  C   UNL d   1      27.376 -15.625   0.316  0.00  0.00     0.063 A 
ATOM      4  C   UNL d   1      28.200 -15.164   1.486  0.00  0.00     0.073 C 
ATOM      5  N   UNL d   1      26.308 -16.367   0.565  0.00  0.00    -0.170 NA
ATOM      6  N   UNL d   1      25.677 -16.564  -0.623  0.00  0.00    -0.210 N 
ENDROOT
BRANCH   2   7
ATOM      7  C   UNL d   1      28.316 -14.153  -1.601  0.00  0.00     0.280 C 
BRANCH   7   8
ATOM      8  N   UNL d   1      29.540 -14.633  -2.382  0.00  0.00    -0.060 N 
ATOM      9  H   UNL d   1      29.110 -15.041  -3.224  0.00  0.00     0.280 HD
BRANCH   8  10
ATOM     10  C   UNL d   1      30.431 -13.527  -2.867  0.00  0.00     0.188 A 
ATOM     11  C   UNL d   1      30.826 -13.454  -4.324  0.00  0.00     0.035 A 
ATOM     12  C   UNL d   1      29.814 -12.497  -3.774  0.00  0.00     0.035 A 
ENDBRANCH   8  10
BRANCH   8  13
ATOM     13  C   UNL d   1      30.286 -15.771  -1.743  0.00  0.00     0.269 C 
BRANCH  13  14
ATOM     14  C   UNL d   1      29.992 -17.105  -2.400  0.00  0.00     0.167 C 
BRANCH  14  15
ATOM     15  O   UNL d   1      28.684 -17.075  -2.961  0.00  0.00    -0.392 OA
ATOM     16  H   UNL d   1      28.734 -16.908  -3.918  0.00  0.00     0.210 HD
ENDBRANCH  14  15
BRANCH  14  17
ATOM     17  C   UNL d   1      31.072 -17.377  -3.398  0.00  0.00     0.202 C 
BRANCH  17  18
ATOM     18  O   UNL d   1      30.445 -17.512  -4.660  0.00  0.00    -0.379 OA
BRANCH  18  19
ATOM     19  C   UNL d   1      31.081 -18.458  -5.519  0.00  0.00     0.050 C 
ATOM     20  C   UNL d   1      32.575 -18.510  -5.187  0.00  0.00     0.045 C 
ATOM     21  C   UNL d   1      30.403 -19.826  -5.383  0.00  0.00     0.045 C 
ATOM     22  C   UNL d   1      30.896 -17.947  -6.948  0.00  0.00     0.045 C 
ENDBRANCH  18  19
ENDBRANCH  17  18
ENDBRANCH  14  17
ENDBRANCH  13  14
ENDBRANCH   8  13
ENDBRANCH   7   8
ENDBRANCH   2   7
BRANCH   1  23
ATOM     23  O   UNL d   1      25.754 -15.655  -2.892  0.00  0.00    -0.288 OA
BRANCH  23  24
ATOM     24  C   UNL d   1      26.104 -14.659  -3.815  0.00  0.00     0.111 A 
ATOM     25  C   UNL d   1      25.303 -13.487  -3.757  0.00  0.00     0.040 A 
ATOM     26  C   UNL d   1      25.530 -12.363  -4.587  0.00  0.00     0.003 A 
ATOM     27  C   UNL d   1      26.590 -12.374  -5.488  0.00  0.00     0.003 A 
ATOM     28  C   UNL d   1      27.355 -13.512  -5.580  0.00  0.00     0.039 A 
ATOM     29  C   UNL d   1      27.125 -14.664  -4.796  0.00  0.00     0.102 A 
BRANCH  29  30
ATOM     30  O   UNL d   1      28.081 -15.573  -5.110  0.00  0.00    -0.353 OA
ATOM     31  C   UNL d   1      28.983 -15.323  -6.150  0.00  0.00     0.210 C 
ENDBRANCH  29  30
ENDBRANCH  23  24
ENDBRANCH   1  23
BRANCH   6  32
ATOM     32  C   UNL d   1      24.430 -17.217  -0.654  0.00  0.00     0.061 A 
ATOM     33  C   UNL d   1      23.234 -16.491  -0.849  0.00  0.00     0.031 A 
ATOM     34  C   UNL d   1      22.017 -17.157  -0.895  0.00  0.00     0.002 A 
ATOM     35  C   UNL d   1      21.974 -18.536  -0.690  0.00  0.00     0.000 A 
ATOM     36  C   UNL d   1      23.164 -19.249  -0.500  0.00  0.00     0.002 A 
ATOM     37  C   UNL d   1      24.392 -18.603  -0.520  0.00  0.00     0.031 A 
ENDBRANCH   6  32
TORSDOF 13
ENDMDL
MODEL 5
REMARK VINA RESULT:    -5.915      3.079      6.025
REMARK INTER + INTRA:         -16.580
REMARK INTER:                  -9.793
REMARK INTRA:                  -6.787
REMARK CONF_INDEPENDENT:        3.878
REMARK UNBOUND:                -6.787
REMARK  13 active torsions:
REMARK  status: ('A' for Active; 'I' for Inactive)
REMARK    1  A    between atoms: O_2  and  C_3 
REMARK    2  A    between atoms: C_8  and  O_9 
REMARK    3  A    between atoms: O_9  and  C_10 
REMARK    4  A    between atoms: C_11  and  C_12 
REMARK    5  A    between atoms: N_13  and  C_12 
REMARK    6  A    between atoms: N_13  and  C_23 
REMARK    7  A    between atoms: N_13  and  C_14 
REMARK    8  A    between atoms: C_14  and  C_15 
REMARK    9  A    between atoms: C_15  and  O_16 
REMARK   10  A    between atoms: C_15  and  C_17 
REMARK   11  A    between atoms: C_17  and  O_18 
REMARK   12  A    between atoms: O_18  and  C_19 
REMARK   13  A    between atoms: N_29  and  C_30 
ROOT
ATOM      1  C   UNL d   1      27.546 -16.283  -1.196  0.00  0.00     0.181 A 
ATOM      2  C   UNL d   1      28.606 -15.587  -0.567  0.00  0.00     0.047 A 
ATOM      3  C   UNL d   1      28.223 -15.492   0.815  0.00  0.00     0.063 A 
ATOM      4  C   UNL d   1      28.858 -14.741   1.952  0.00  0.00     0.073 C 
ATOM      5  N   UNL d   1      27.028 -16.023   1.016  0.00  0.00    -0.170 NA
ATOM      6  N   UNL d   1      26.623 -16.547  -0.172  0.00  0.00    -0.210 N 
ENDROOT
BRANCH   2   7
ATOM      7  C   UNL d   1      29.737 -14.809  -1.178  0.00  0.00     0.280 C 
BRANCH   7   8
ATOM      8  N   UNL d   1      29.563 -14.452  -2.654  0.00  0.00    -0.060 N 
ATOM      9  H   UNL d   1      28.785 -15.068  -2.933  0.00  0.00     0.280 HD
BRANCH   8  10
ATOM     10  C   UNL d   1      29.086 -13.050  -2.896  0.00  0.00     0.188 A 
ATOM     11  C   UNL d   1      27.903 -12.507  -2.127  0.00  0.00     0.035 A 
ATOM     12  C   UNL d   1      29.289 -12.056  -1.785  0.00  0.00     0.035 A 
ENDBRANCH   8  10
BRANCH   8  13
ATOM     13  C   UNL d   1      30.708 -14.860  -3.538  0.00  0.00     0.269 C 
BRANCH  13  14
ATOM     14  C   UNL d   1      30.817 -16.363  -3.699  0.00  0.00     0.167 C 
BRANCH  14  15
ATOM     15  O   UNL d   1      29.621 -16.974  -3.229  0.00  0.00    -0.392 OA
ATOM     16  H   UNL d   1      28.937 -16.949  -3.921  0.00  0.00     0.210 HD
ENDBRANCH  14  15
BRANCH  14  17
ATOM     17  C   UNL d   1      31.121 -16.653  -5.135  0.00  0.00     0.202 C 
BRANCH  17  18
ATOM     18  O   UNL d   1      30.266 -17.709  -5.533  0.00  0.00    -0.379 OA
BRANCH  18  19
ATOM     19  C   UNL d   1      30.960 -18.851  -6.036  0.00  0.00     0.050 C 
ATOM     20  C   UNL d   1      32.448 -18.719  -5.700  0.00  0.00     0.045 C 
ATOM     21  C   UNL d   1      30.342 -20.132  -5.465  0.00  0.00     0.045 C 
ATOM     22  C   UNL d   1      30.779 -18.840  -7.555  0.00  0.00     0.045 C 
ENDBRANCH  18  19
ENDBRANCH  17  18
ENDBRANCH  14  17
ENDBRANCH  13  14
ENDBRANCH   8  13
ENDBRANCH   7   8
ENDBRANCH   2   7
BRANCH   1  23
ATOM     23  O   UNL d   1      27.285 -16.440  -2.523  0.00  0.00    -0.288 OA
BRANCH  23  24
ATOM     24  C   UNL d   1      26.776 -15.474  -3.403  0.00  0.00     0.111 A 
ATOM     25  C   UNL d   1      25.658 -14.750  -2.909  0.00  0.00     0.040 A 
ATOM     26  C   UNL d   1      25.033 -13.712  -3.642  0.00  0.00     0.003 A 
ATOM     27  C   UNL d   1      25.533 -13.352  -4.889  0.00  0.00     0.003 A 
ATOM     28  C   UNL d   1      26.595 -14.063  -5.396  0.00  0.00     0.039 A 
ATOM     29  C   UNL d   1      27.209 -15.131  -4.707  0.00  0.00     0.102 A 
BRANCH  29  30
ATOM     30  O   UNL d   1      28.240 -15.574  -5.469  0.00  0.00    -0.353 OA
ATOM     31  C   UNL d   1      28.769 -14.768  -6.482  0.00  0.00     0.210 C 
ENDBRANCH  29  30
ENDBRANCH  23  24
ENDBRANCH   1  23
BRANCH   6  32
ATOM     32  C   UNL d   1      25.322 -17.072  -0.299  0.00  0.00     0.061 A 
ATOM     33  C   UNL d   1      25.078 -18.454  -0.147  0.00  0.00     0.031 A 
ATOM     34  C   UNL d   1      23.785 -18.948  -0.256  0.00  0.00     0.002 A 
ATOM     35  C   UNL d   1      22.739 -18.082  -0.576  0.00  0.00     0.000 A 
ATOM     36  C   UNL d   1      22.988 -16.712  -0.723  0.00  0.00     0.002 A 
ATOM     37  C   UNL d   1      24.265 -16.199  -0.548  0.00  0.00     0.031 A 
ENDBRANCH   6  32
TORSDOF 13
ENDMDL
MODEL 6
REMARK VINA RESULT:    -5.273      1.709      4.230
REMARK INTER + INTRA:         -16.267
REMARK INTER:                  -9.151
REMARK INTRA:                  -7.116
REMARK CONF_INDEPENDENT:        3.878
REMARK UNBOUND:                -7.116
REMARK  13 active torsions:
REMARK  status: ('A' for Active; 'I' for Inactive)
REMARK    1  A    between atoms: O_2  and  C_3 
REMARK    2  A    between atoms: C_8  and  O_9 
REMARK    3  A    between atoms: O_9  and  C_10 
REMARK    4  A    between atoms: C_11  and  C_12 
REMARK    5  A    between atoms: N_13  and  C_12 
REMARK    6  A    between atoms: N_13  and  C_23 
REMARK    7  A    between atoms: N_13  and  C_14 
REMARK    8  A    between atoms: C_14  and  C_15 
REMARK    9  A    between atoms: C_15  and  O_16 
REMARK   10  A    between atoms: C_15  and  C_17 
REMARK   11  A    between atoms: C_17  and  O_18 
REMARK   12  A    between atoms: O_18  and  C_19 
REMARK   13  A    between atoms: N_29  and  C_30 
ROOT
ATOM      1  C   UNL d   1      26.164 -14.915  -0.866  0.00  0.00     0.181 A 
ATOM      2  C   UNL d   1      26.506 -13.872  -1.760  0.00  0.00     0.047 A 
ATOM      3  C   UNL d   1      25.477 -13.889  -2.764  0.00  0.00     0.063 A 
ATOM      4  C   UNL d   1      25.364 -13.126  -4.055  0.00  0.00     0.073 C 
ATOM      5  N   UNL d   1      24.618 -14.872  -2.549  0.00  0.00    -0.170 NA
ATOM      6  N   UNL d   1      24.985 -15.472  -1.386  0.00  0.00    -0.210 N 
ENDROOT
BRANCH   2   7
ATOM      7  C   UNL d   1      27.790 -13.104  -1.891  0.00  0.00     0.280 C 
BRANCH   7   8
ATOM      8  N   UNL d   1      28.451 -12.706  -0.570  0.00  0.00    -0.060 N 
ATOM      9  H   UNL d   1      28.285 -13.540   0.011  0.00  0.00     0.280 HD
BRANCH   8  10
ATOM     10  C   UNL d   1      29.941 -12.549  -0.653  0.00  0.00     0.188 A 
ATOM     11  C   UNL d   1      30.541 -11.338  -1.331  0.00  0.00     0.035 A 
ATOM     12  C   UNL d   1      30.560 -11.446   0.162  0.00  0.00     0.035 A 
ENDBRANCH   8  10
BRANCH   8  13
ATOM     13  C   UNL d   1      27.766 -11.587   0.163  0.00  0.00     0.269 C 
BRANCH  13  14
ATOM     14  C   UNL d   1      27.131 -12.041   1.462  0.00  0.00     0.167 C 
BRANCH  14  15
ATOM     15  O   UNL d   1      26.782 -13.417   1.359  0.00  0.00    -0.392 OA
ATOM     16  H   UNL d   1      27.555 -13.975   1.556  0.00  0.00     0.210 HD
ENDBRANCH  14  15
BRANCH  14  17
ATOM     17  C   UNL d   1      28.085 -11.740   2.574  0.00  0.00     0.202 C 
BRANCH  17  18
ATOM     18  O   UNL d   1      28.508 -12.984   3.104  0.00  0.00    -0.379 OA
BRANCH  18  19
ATOM     19  C   UNL d   1      28.255 -13.127   4.501  0.00  0.00     0.050 C 
ATOM     20  C   UNL d   1      28.002 -11.744   5.108  0.00  0.00     0.045 C 
ATOM     21  C   UNL d   1      27.081 -14.088   4.725  0.00  0.00     0.045 C 
ATOM     22  C   UNL d   1      29.520 -13.729   5.116  0.00  0.00     0.045 C 
ENDBRANCH  18  19
ENDBRANCH  17  18
ENDBRANCH  14  17
ENDBRANCH  13  14
ENDBRANCH   8  13
ENDBRANCH   7   8
ENDBRANCH   2   7
BRANCH   1  23
ATOM     23  O   UNL d   1      26.910 -15.482   0.122  0.00  0.00    -0.288 OA
BRANCH  23  24
ATOM     24  C   UNL d   1      28.213 -15.988   0.010  0.00  0.00     0.111 A 
ATOM     25  C   UNL d   1      28.335 -17.138  -0.816  0.00  0.00     0.040 A 
ATOM     26  C   UNL d   1      29.578 -17.766  -1.075  0.00  0.00     0.003 A 
ATOM     27  C   UNL d   1      30.743 -17.241  -0.527  0.00  0.00     0.003 A 
ATOM     28  C   UNL d   1      30.639 -16.148   0.300  0.00  0.00     0.039 A 
ATOM     29  C   UNL d   1      29.410 -15.527   0.611  0.00  0.00     0.102 A 
BRANCH  29  30
ATOM     30  O   UNL d   1      29.674 -14.466   1.412  0.00  0.00    -0.353 OA
ATOM     31  C   UNL d   1      30.893 -14.381   2.095  0.00  0.00     0.210 C 
ENDBRANCH  29  30
ENDBRANCH  23  24
ENDBRANCH   1  23
BRANCH   6  32
ATOM     32  C   UNL d   1      24.326 -16.642  -0.962  0.00  0.00     0.061 A 
ATOM     33  C   UNL d   1      25.054 -17.789  -0.579  0.00  0.00     0.031 A 
ATOM     34  C   UNL d   1      24.384 -18.925  -0.146  0.00  0.00     0.002 A 
ATOM     35  C   UNL d   1      22.990 -18.949  -0.147  0.00  0.00     0.000 A 
ATOM     36  C   UNL d   1      22.274 -17.807  -0.526  0.00  0.00     0.002 A 
ATOM     37  C   UNL d   1      22.934 -16.644  -0.895  0.00  0.00     0.031 A 
ENDBRANCH   6  32
TORSDOF 13
ENDMDL
