MODEL 1
REMARK VINA RESULT:   -11.668      0.000      0.000
REMARK INTER + INTRA:         -16.046
REMARK INTER:                 -14.054
REMARK INTRA:                  -1.991
REMARK CONF_INDEPENDENT:        2.386
REMARK UNBOUND:                -1.991
REMARK  8 active torsions:
REMARK  status: ('A' for Active; 'I' for Inactive)
REMARK    1  A    between atoms: O_2  and  C_3 
REMARK    2  A    between atoms: C_5  and  N_6 
REMARK    3  A    between atoms: N_6  and  C_7 
REMARK    4  A    between atoms: C_7  and  N_9 
REMARK       I    between atoms: N_9  and  C_10 
REMARK    5  A    between atoms: C_10  and  C_12 
REMARK    6  A    between atoms: C_18  and  O_19 
REMARK    7  A    between atoms: C_23  and  N_24 
REMARK       I    between atoms: N_24  and  C_25 
REMARK    8  A    between atoms: C_25  and  C_27 
ROOT
ATOM      1  C   UNL d   1      25.634 -16.441  -2.002  0.00  0.00     0.097 C 
ATOM      2  C   UNL d   1      26.927 -15.961  -1.486  0.00  0.00     0.068 C 
ATOM      3  C   UNL d   1      27.522 -16.523  -0.346  0.00  0.00     0.037 C 
ATOM      4  C   UNL d   1      26.670 -17.394   0.313  0.00  0.00     0.032 C 
ATOM      5  C   UNL d   1      25.476 -17.933  -0.190  0.00  0.00     0.035 C 
ATOM      6  C   UNL d   1      24.914 -17.496  -1.374  0.00  0.00     0.068 C 
ENDROOT
BRANCH   3   7
ATOM      7  N   UNL d   1      28.918 -16.316   0.100  0.00  0.00    -0.333 N 
ATOM      8  H   UNL d   1      29.499 -17.150   0.048  0.00  0.00     0.168 HD
BRANCH   7   9
ATOM      9  C   UNL d   1      29.451 -15.113   0.706  0.00  0.00     0.179 C 
ATOM     10  S   UNL d   1      30.684 -14.134   0.093  0.00  0.00    -0.040 SA
BRANCH   9  11
ATOM     11  N   UNL d   1      28.887 -14.750   1.956  0.00  0.00    -0.299 N 
ATOM     12  C   UNL d   1      28.033 -13.615   2.125  0.00  0.00     0.260 C 
ATOM     13  O   UNL d   1      27.420 -13.030   1.254  0.00  0.00    -0.267 OA
ATOM     14  H   UNL d   1      29.170 -15.233   2.792  0.00  0.00     0.171 HD
BRANCH  12  15
ATOM     15  C   UNL d   1      27.804 -13.013   3.453  0.00  0.00     0.066 A 
ATOM     16  C   UNL d   1      27.526 -11.621   3.375  0.00  0.00     0.020 A 
ATOM     17  C   UNL d   1      27.554 -10.805   4.500  0.00  0.00     0.002 A 
ATOM     18  C   UNL d   1      27.797 -11.379   5.735  0.00  0.00     0.009 A 
ATOM     19  C   UNL d   1      28.113 -12.745   5.834  0.00  0.00    -0.028 A 
ATOM     20  C   UNL d   1      28.464 -13.309   7.185  0.00  0.00     0.051 C 
ATOM     21  C   UNL d   1      28.161 -13.576   4.685  0.00  0.00     0.089 A 
BRANCH  21  22
ATOM     22  O   UNL d   1      28.642 -14.831   4.974  0.00  0.00    -0.354 OA
ATOM     23  C   UNL d   1      30.031 -15.062   5.044  0.00  0.00     0.210 C 
ENDBRANCH  21  22
ENDBRANCH  12  15
ENDBRANCH   9  11
ENDBRANCH   7   9
ENDBRANCH   3   7
BRANCH   1  24
ATOM     24  O   UNL d   1      25.280 -15.805  -3.168  0.00  0.00    -0.354 OA
ATOM     25  C   UNL d   1      25.399 -14.395  -3.238  0.00  0.00     0.210 C 
ENDBRANCH   1  24
BRANCH   6  26
ATOM     26  N   UNL d   1      23.637 -18.120  -1.725  0.00  0.00    -0.319 N 
ATOM     27  C   UNL d   1      22.426 -17.870  -1.078  0.00  0.00     0.280 C 
ATOM     28  O   UNL d   1      22.316 -16.799  -0.465  0.00  0.00    -0.265 OA
ATOM     29  H   UNL d   1      23.559 -18.471  -2.670  0.00  0.00     0.169 HD
BRANCH  27  30
ATOM     30  C   UNL d   1      21.346 -18.898  -0.858  0.00  0.00     0.144 C 
ATOM     31  C   UNL d   1      21.461 -19.741   0.230  0.00  0.00     0.057 C 
ATOM     32  C   UNL d   1      20.174 -20.062   0.638  0.00  0.00     0.001 C 
ATOM     33  C   UNL d   1      19.653 -20.433   1.880  0.00  0.00     0.014 C 
ATOM     34  C   UNL d   1      19.386 -20.023  -0.503  0.00  0.00     0.086 C 
ATOM     35  C   UNL d   1      18.386 -20.980   1.960  0.00  0.00     0.001 C 
ATOM     36  C   UNL d   1      17.655 -21.161   0.788  0.00  0.00     0.003 C 
ATOM     37  C   UNL d   1      18.131 -20.687  -0.480  0.00  0.00     0.038 C 
ATOM     38  O   UNL d   1      20.096 -19.208  -1.460  0.00  0.00    -0.304 OA
ENDBRANCH  27  30
ENDBRANCH   6  26
TORSDOF 8
ENDMDL
MODEL 2
REMARK VINA RESULT:   -11.134      1.707      2.582
REMARK INTER + INTRA:         -15.103
REMARK INTER:                 -13.520
REMARK INTRA:                  -1.583
REMARK CONF_INDEPENDENT:        2.386
REMARK UNBOUND:                -1.583
REMARK  8 active torsions:
REMARK  status: ('A' for Active; 'I' for Inactive)
REMARK    1  A    between atoms: O_2  and  C_3 
REMARK    2  A    between atoms: C_5  and  N_6 
REMARK    3  A    between atoms: N_6  and  C_7 
REMARK    4  A    between atoms: C_7  and  N_9 
REMARK       I    between atoms: N_9  and  C_10 
REMARK    5  A    between atoms: C_10  and  C_12 
REMARK    6  A    between atoms: C_18  and  O_19 
REMARK    7  A    between atoms: C_23  and  N_24 
REMARK       I    between atoms: N_24  and  C_25 
REMARK    8  A    between atoms: C_25  and  C_27 
ROOT
ATOM      1  C   UNL d   1      25.987 -16.564  -0.353  0.00  0.00     0.097 C 
ATOM      2  C   UNL d   1      27.075 -15.581  -0.218  0.00  0.00     0.068 C 
ATOM      3  C   UNL d   1      27.155 -14.450  -1.045  0.00  0.00     0.037 C 
ATOM      4  C   UNL d   1      26.242 -14.498  -2.086  0.00  0.00     0.032 C 
ATOM      5  C   UNL d   1      25.146 -15.368  -2.197  0.00  0.00     0.035 C 
ATOM      6  C   UNL d   1      24.959 -16.426  -1.328  0.00  0.00     0.068 C 
ENDROOT
BRANCH   3   7
ATOM      7  N   UNL d   1      28.027 -13.274  -0.831  0.00  0.00    -0.333 N 
ATOM      8  H   UNL d   1      28.745 -13.153  -1.542  0.00  0.00     0.168 HD
BRANCH   7   9
ATOM      9  C   UNL d   1      28.022 -12.408   0.331  0.00  0.00     0.179 C 
ATOM     10  S   UNL d   1      27.560 -10.784   0.378  0.00  0.00    -0.040 SA
BRANCH   9  11
ATOM     11  N   UNL d   1      28.481 -12.994   1.538  0.00  0.00    -0.299 N 
ATOM     12  C   UNL d   1      27.646 -13.166   2.687  0.00  0.00     0.260 C 
ATOM     13  O   UNL d   1      26.432 -13.166   2.710  0.00  0.00    -0.267 OA
ATOM     14  H   UNL d   1      29.458 -13.207   1.651  0.00  0.00     0.171 HD
BRANCH  12  15
ATOM     15  C   UNL d   1      28.217 -13.373   4.032  0.00  0.00     0.066 A 
ATOM     16  C   UNL d   1      28.558 -14.732   4.273  0.00  0.00     0.020 A 
ATOM     17  C   UNL d   1      28.845 -15.199   5.550  0.00  0.00     0.002 A 
ATOM     18  C   UNL d   1      28.861 -14.300   6.602  0.00  0.00     0.009 A 
ATOM     19  C   UNL d   1      28.491 -12.959   6.397  0.00  0.00    -0.028 A 
ATOM     20  C   UNL d   1      28.429 -12.038   7.585  0.00  0.00     0.051 C 
ATOM     21  C   UNL d   1      28.122 -12.484   5.111  0.00  0.00     0.089 A 
BRANCH  21  22
ATOM     22  O   UNL d   1      27.644 -11.197   5.153  0.00  0.00    -0.354 OA
ATOM     23  C   UNL d   1      28.250 -10.187   4.378  0.00  0.00     0.210 C 
ENDBRANCH  21  22
ENDBRANCH  12  15
ENDBRANCH   9  11
ENDBRANCH   7   9
ENDBRANCH   3   7
BRANCH   1  24
ATOM     24  O   UNL d   1      26.061 -17.545   0.607  0.00  0.00    -0.354 OA
ATOM     25  C   UNL d   1      27.024 -18.575   0.456  0.00  0.00     0.210 C 
ENDBRANCH   1  24
BRANCH   6  26
ATOM     26  N   UNL d   1      23.800 -17.272  -1.619  0.00  0.00    -0.319 N 
ATOM     27  C   UNL d   1      22.541 -17.126  -1.034  0.00  0.00     0.280 C 
ATOM     28  O   UNL d   1      22.253 -16.014  -0.568  0.00  0.00    -0.265 OA
ATOM     29  H   UNL d   1      23.811 -17.747  -2.512  0.00  0.00     0.169 HD
BRANCH  27  30
ATOM     30  C   UNL d   1      21.615 -18.267  -0.703  0.00  0.00     0.144 C 
ATOM     31  C   UNL d   1      21.822 -18.954   0.477  0.00  0.00     0.057 C 
ATOM     32  C   UNL d   1      20.586 -19.409   0.911  0.00  0.00     0.001 C 
ATOM     33  C   UNL d   1      20.093 -19.706   2.185  0.00  0.00     0.014 C 
ATOM     34  C   UNL d   1      19.827 -19.615  -0.232  0.00  0.00     0.086 C 
ATOM     35  C   UNL d   1      18.916 -20.417   2.319  0.00  0.00     0.001 C 
ATOM     36  C   UNL d   1      18.247 -20.836   1.171  0.00  0.00     0.003 C 
ATOM     37  C   UNL d   1      18.680 -20.447  -0.140  0.00  0.00     0.038 C 
ATOM     38  O   UNL d   1      20.436 -18.822  -1.273  0.00  0.00    -0.304 OA
ENDBRANCH  27  30
ENDBRANCH   6  26
TORSDOF 8
ENDMDL
MODEL 3
REMARK VINA RESULT:   -10.585      3.664      6.121
REMARK INTER + INTRA:         -15.341
REMARK INTER:                 -12.971
REMARK INTRA:                  -2.369
REMARK CONF_INDEPENDENT:        2.386
REMARK UNBOUND:                -2.369
REMARK  8 active torsions:
REMARK  status: ('A' for Active; 'I' for Inactive)
REMARK    1  A    between atoms: O_2  and  C_3 
REMARK    2  A    between atoms: C_5  and  N_6 
REMARK    3  A    between atoms: N_6  and  C_7 
REMARK    4  A    between atoms: C_7  and  N_9 
REMARK       I    between atoms: N_9  and  C_10 
REMARK    5  A    between atoms: C_10  and  C_12 
REMARK    6  A    between atoms: C_18  and  O_19 
REMARK    7  A    between atoms: C_23  and  N_24 
REMARK       I    between atoms: N_24  and  C_25 
REMARK    8  A    between atoms: C_25  and  C_27 
ROOT
ATOM      1  C   UNL d   1      25.372 -16.237  -1.783  0.00  0.00     0.097 C 
ATOM      2  C   UNL d   1      26.640 -15.679  -1.284  0.00  0.00     0.068 C 
ATOM      3  C   UNL d   1      27.398 -16.333  -0.301  0.00  0.00     0.037 C 
ATOM      4  C   UNL d   1      26.719 -17.404   0.258  0.00  0.00     0.032 C 
ATOM      5  C   UNL d   1      25.557 -18.008  -0.244  0.00  0.00     0.035 C 
ATOM      6  C   UNL d   1      24.842 -17.465  -1.295  0.00  0.00     0.068 C 
ENDROOT
BRANCH   3   7
ATOM      7  N   UNL d   1      28.795 -16.018   0.075  0.00  0.00    -0.333 N 
ATOM      8  H   UNL d   1      29.059 -16.342   1.003  0.00  0.00     0.168 HD
BRANCH   7   9
ATOM      9  C   UNL d   1      29.721 -15.204  -0.685  0.00  0.00     0.179 C 
ATOM     10  S   UNL d   1      31.030 -14.326  -0.077  0.00  0.00    -0.040 SA
BRANCH   9  11
ATOM     11  N   UNL d   1      29.472 -15.126  -2.080  0.00  0.00    -0.299 N 
ATOM     12  C   UNL d   1      29.462 -16.272  -2.935  0.00  0.00     0.260 C 
ATOM     13  O   UNL d   1      29.328 -17.431  -2.597  0.00  0.00    -0.267 OA
ATOM     14  H   UNL d   1      29.401 -14.226  -2.525  0.00  0.00     0.171 HD
BRANCH  12  15
ATOM     15  C   UNL d   1      29.623 -16.145  -4.397  0.00  0.00     0.066 A 
ATOM     16  C   UNL d   1      30.126 -17.335  -4.991  0.00  0.00     0.020 A 
ATOM     17  C   UNL d   1      30.614 -17.352  -6.292  0.00  0.00     0.002 A 
ATOM     18  C   UNL d   1      30.547 -16.195  -7.047  0.00  0.00     0.009 A 
ATOM     19  C   UNL d   1      30.090 -14.996  -6.471  0.00  0.00    -0.028 A 
ATOM     20  C   UNL d   1      30.124 -13.739  -7.298  0.00  0.00     0.051 C 
ATOM     21  C   UNL d   1      29.659 -14.945  -5.120  0.00  0.00     0.089 A 
BRANCH  21  22
ATOM     22  O   UNL d   1      29.406 -13.659  -4.706  0.00  0.00    -0.354 OA
ATOM     23  C   UNL d   1      28.081 -13.178  -4.652  0.00  0.00     0.210 C 
ENDBRANCH  21  22
ENDBRANCH  12  15
ENDBRANCH   9  11
ENDBRANCH   7   9
ENDBRANCH   3   7
BRANCH   1  24
ATOM     24  O   UNL d   1      24.840 -15.476  -2.795  0.00  0.00    -0.354 OA
ATOM     25  C   UNL d   1      25.644 -15.189  -3.927  0.00  0.00     0.210 C 
ENDBRANCH   1  24
BRANCH   6  26
ATOM     26  N   UNL d   1      23.620 -18.188  -1.656  0.00  0.00    -0.319 N 
ATOM     27  C   UNL d   1      22.350 -17.903  -1.154  0.00  0.00     0.280 C 
ATOM     28  O   UNL d   1      22.153 -16.762  -0.712  0.00  0.00    -0.265 OA
ATOM     29  H   UNL d   1      23.638 -18.671  -2.545  0.00  0.00     0.169 HD
BRANCH  27  30
ATOM     30  C   UNL d   1      21.289 -18.937  -0.878  0.00  0.00     0.144 C 
ATOM     31  C   UNL d   1      21.442 -19.749   0.229  0.00  0.00     0.057 C 
ATOM     32  C   UNL d   1      20.170 -20.073   0.679  0.00  0.00     0.001 C 
ATOM     33  C   UNL d   1      19.686 -20.416   1.944  0.00  0.00     0.014 C 
ATOM     34  C   UNL d   1      19.352 -20.074  -0.441  0.00  0.00     0.086 C 
ATOM     35  C   UNL d   1      18.428 -20.975   2.072  0.00  0.00     0.001 C 
ATOM     36  C   UNL d   1      17.669 -21.196   0.925  0.00  0.00     0.003 C 
ATOM     37  C   UNL d   1      18.106 -20.751  -0.367  0.00  0.00     0.038 C 
ATOM     38  O   UNL d   1      20.027 -19.277  -1.439  0.00  0.00    -0.304 OA
ENDBRANCH  27  30
ENDBRANCH   6  26
TORSDOF 8
ENDMDL
MODEL 4
REMARK VINA RESULT:   -10.582      3.677      6.064
REMARK INTER + INTRA:         -15.139
REMARK INTER:                 -12.968
REMARK INTRA:                  -2.171
REMARK CONF_INDEPENDENT:        2.386
REMARK UNBOUND:                -2.171
REMARK  8 active torsions:
REMARK  status: ('A' for Active; 'I' for Inactive)
REMARK    1  A    between atoms: O_2  and  C_3 
REMARK    2  A    between atoms: C_5  and  N_6 
REMARK    3  A    between atoms: N_6  and  C_7 
REMARK    4  A    between atoms: C_7  and  N_9 
REMARK       I    between atoms: N_9  and  C_10 
REMARK    5  A    between atoms: C_10  and  C_12 
REMARK    6  A    between atoms: C_18  and  O_19 
REMARK    7  A    between atoms: C_23  and  N_24 
REMARK       I    between atoms: N_24  and  C_25 
REMARK    8  A    between atoms: C_25  and  C_27 
ROOT
ATOM      1  C   UNL d   1      25.837 -15.884  -1.979  0.00  0.00     0.097 C 
ATOM      2  C   UNL d   1      27.162 -15.459  -1.499  0.00  0.00     0.068 C 
ATOM      3  C   UNL d   1      27.783 -16.075  -0.401  0.00  0.00     0.037 C 
ATOM      4  C   UNL d   1      26.931 -16.943   0.263  0.00  0.00     0.032 C 
ATOM      5  C   UNL d   1      25.703 -17.430  -0.209  0.00  0.00     0.035 C 
ATOM      6  C   UNL d   1      25.110 -16.939  -1.357  0.00  0.00     0.068 C 
ENDROOT
BRANCH   3   7
ATOM      7  N   UNL d   1      29.201 -15.923  -0.003  0.00  0.00    -0.333 N 
ATOM      8  H   UNL d   1      29.383 -16.130   0.976  0.00  0.00     0.168 HD
BRANCH   7   9
ATOM      9  C   UNL d   1      30.267 -15.394  -0.829  0.00  0.00     0.179 C 
ATOM     10  S   UNL d   1      30.787 -13.788  -0.900  0.00  0.00    -0.040 SA
BRANCH   9  11
ATOM     11  N   UNL d   1      30.912 -16.329  -1.678  0.00  0.00    -0.299 N 
ATOM     12  C   UNL d   1      30.540 -16.527  -3.044  0.00  0.00     0.260 C 
ATOM     13  O   UNL d   1      29.908 -15.761  -3.745  0.00  0.00    -0.267 OA
ATOM     14  H   UNL d   1      31.591 -16.965  -1.296  0.00  0.00     0.171 HD
BRANCH  12  15
ATOM     15  C   UNL d   1      30.909 -17.755  -3.775  0.00  0.00     0.066 A 
ATOM     16  C   UNL d   1      30.418 -17.761  -5.109  0.00  0.00     0.020 A 
ATOM     17  C   UNL d   1      30.405 -18.918  -5.879  0.00  0.00     0.002 A 
ATOM     18  C   UNL d   1      30.944 -20.077  -5.352  0.00  0.00     0.009 A 
ATOM     19  C   UNL d   1      31.401 -20.108  -4.022  0.00  0.00    -0.028 A 
ATOM     20  C   UNL d   1      31.891 -21.415  -3.457  0.00  0.00     0.051 C 
ATOM     21  C   UNL d   1      31.351 -18.954  -3.198  0.00  0.00     0.089 A 
BRANCH  21  22
ATOM     22  O   UNL d   1      31.692 -19.233  -1.897  0.00  0.00    -0.354 OA
ATOM     23  C   UNL d   1      30.720 -19.165  -0.877  0.00  0.00     0.210 C 
ENDBRANCH  21  22
ENDBRANCH  12  15
ENDBRANCH   9  11
ENDBRANCH   7   9
ENDBRANCH   3   7
BRANCH   1  24
ATOM     24  O   UNL d   1      25.458 -15.201  -3.109  0.00  0.00    -0.354 OA
ATOM     25  C   UNL d   1      26.424 -14.963  -4.118  0.00  0.00     0.210 C 
ENDBRANCH   1  24
BRANCH   6  26
ATOM     26  N   UNL d   1      23.802 -17.514  -1.676  0.00  0.00    -0.319 N 
ATOM     27  C   UNL d   1      22.653 -17.359  -0.899  0.00  0.00     0.280 C 
ATOM     28  O   UNL d   1      22.606 -16.382  -0.138  0.00  0.00    -0.265 OA
ATOM     29  H   UNL d   1      23.640 -17.732  -2.651  0.00  0.00     0.169 HD
BRANCH  27  30
ATOM     30  C   UNL d   1      21.589 -18.412  -0.728  0.00  0.00     0.144 C 
ATOM     31  C   UNL d   1      21.782 -19.384   0.233  0.00  0.00     0.057 C 
ATOM     32  C   UNL d   1      20.528 -19.759   0.695  0.00  0.00     0.001 C 
ATOM     33  C   UNL d   1      20.102 -20.286   1.917  0.00  0.00     0.014 C 
ATOM     34  C   UNL d   1      19.656 -19.581  -0.368  0.00  0.00     0.086 C 
ATOM     35  C   UNL d   1      18.842 -20.844   2.024  0.00  0.00     0.001 C 
ATOM     36  C   UNL d   1      18.023 -20.880   0.898  0.00  0.00     0.003 C 
ATOM     37  C   UNL d   1      18.403 -20.248  -0.333  0.00  0.00     0.038 C 
ATOM     38  O   UNL d   1      20.295 -18.649  -1.267  0.00  0.00    -0.304 OA
ENDBRANCH  27  30
ENDBRANCH   6  26
TORSDOF 8
ENDMDL
MODEL 5
REMARK VINA RESULT:   -10.518      4.747      7.974
REMARK INTER + INTRA:         -14.478
REMARK INTER:                 -12.904
REMARK INTRA:                  -1.574
REMARK CONF_INDEPENDENT:        2.386
REMARK UNBOUND:                -1.574
REMARK  8 active torsions:
REMARK  status: ('A' for Active; 'I' for Inactive)
REMARK    1  A    between atoms: O_2  and  C_3 
REMARK    2  A    between atoms: C_5  and  N_6 
REMARK    3  A    between atoms: N_6  and  C_7 
REMARK    4  A    between atoms: C_7  and  N_9 
REMARK       I    between atoms: N_9  and  C_10 
REMARK    5  A    between atoms: C_10  and  C_12 
REMARK    6  A    between atoms: C_18  and  O_19 
REMARK    7  A    between atoms: C_23  and  N_24 
REMARK       I    between atoms: N_24  and  C_25 
REMARK    8  A    between atoms: C_25  and  C_27 
ROOT
ATOM      1  C   UNL d   1      25.624 -14.947  -3.284  0.00  0.00     0.097 C 
ATOM      2  C   UNL d   1      27.029 -14.700  -3.648  0.00  0.00     0.068 C 
ATOM      3  C   UNL d   1      28.083 -15.404  -3.046  0.00  0.00     0.037 C 
ATOM      4  C   UNL d   1      27.656 -16.166  -1.970  0.00  0.00     0.032 C 
ATOM      5  C   UNL d   1      26.328 -16.487  -1.649  0.00  0.00     0.035 C 
ATOM      6  C   UNL d   1      25.255 -15.908  -2.301  0.00  0.00     0.068 C 
ENDROOT
BRANCH   3   7
ATOM      7  N   UNL d   1      29.487 -15.440  -3.514  0.00  0.00    -0.333 N 
ATOM      8  H   UNL d   1      30.175 -15.301  -2.777  0.00  0.00     0.168 HD
BRANCH   7   9
ATOM      9  C   UNL d   1      29.926 -15.515  -4.892  0.00  0.00     0.179 C 
ATOM     10  S   UNL d   1      30.463 -14.234  -5.853  0.00  0.00    -0.040 SA
BRANCH   9  11
ATOM     11  N   UNL d   1      29.866 -16.800  -5.489  0.00  0.00    -0.299 N 
ATOM     12  C   UNL d   1      30.287 -17.991  -4.819  0.00  0.00     0.260 C 
ATOM     13  O   UNL d   1      30.423 -18.142  -3.622  0.00  0.00    -0.267 OA
ATOM     14  H   UNL d   1      29.621 -16.889  -6.461  0.00  0.00     0.171 HD
BRANCH  12  15
ATOM     15  C   UNL d   1      30.615 -19.222  -5.565  0.00  0.00     0.066 A 
ATOM     16  C   UNL d   1      31.009 -20.286  -4.708  0.00  0.00     0.020 A 
ATOM     17  C   UNL d   1      31.623 -21.432  -5.200  0.00  0.00     0.002 A 
ATOM     18  C   UNL d   1      31.793 -21.565  -6.566  0.00  0.00     0.009 A 
ATOM     19  C   UNL d   1      31.448 -20.512  -7.431  0.00  0.00    -0.028 A 
ATOM     20  C   UNL d   1      31.739 -20.659  -8.901  0.00  0.00     0.051 C 
ATOM     21  C   UNL d   1      30.889 -19.304  -6.937  0.00  0.00     0.089 A 
BRANCH  21  22
ATOM     22  O   UNL d   1      30.773 -18.349  -7.918  0.00  0.00    -0.354 OA
ATOM     23  C   UNL d   1      31.721 -17.309  -8.014  0.00  0.00     0.210 C 
ENDBRANCH  21  22
ENDBRANCH  12  15
ENDBRANCH   9  11
ENDBRANCH   7   9
ENDBRANCH   3   7
BRANCH   1  24
ATOM     24  O   UNL d   1      24.758 -14.206  -4.051  0.00  0.00    -0.354 OA
ATOM     25  C   UNL d   1      25.177 -12.934  -4.516  0.00  0.00     0.210 C 
ENDBRANCH   1  24
BRANCH   6  26
ATOM     26  N   UNL d   1      23.937 -16.307  -1.804  0.00  0.00    -0.319 N 
ATOM     27  C   UNL d   1      23.715 -17.286  -0.834  0.00  0.00     0.280 C 
ATOM     28  O   UNL d   1      24.649 -17.547  -0.062  0.00  0.00    -0.265 OA
ATOM     29  H   UNL d   1      23.199 -15.623  -1.907  0.00  0.00     0.169 HD
BRANCH  27  30
ATOM     30  C   UNL d   1      22.530 -18.216  -0.815  0.00  0.00     0.144 C 
ATOM     31  C   UNL d   1      22.423 -19.113   0.230  0.00  0.00     0.057 C 
ATOM     32  C   UNL d   1      21.070 -19.328   0.449  0.00  0.00     0.001 C 
ATOM     33  C   UNL d   1      20.356 -19.703   1.591  0.00  0.00     0.014 C 
ATOM     34  C   UNL d   1      20.448 -19.165  -0.780  0.00  0.00     0.086 C 
ATOM     35  C   UNL d   1      19.046 -20.130   1.474  0.00  0.00     0.001 C 
ATOM     36  C   UNL d   1      18.467 -20.190   0.209  0.00  0.00     0.003 C 
ATOM     37  C   UNL d   1      19.148 -19.708  -0.958  0.00  0.00     0.038 C 
ATOM     38  O   UNL d   1      21.350 -18.380  -1.590  0.00  0.00    -0.304 OA
ENDBRANCH  27  30
ENDBRANCH   6  26
TORSDOF 8
ENDMDL
MODEL 6
REMARK VINA RESULT:   -10.428      3.354      5.596
REMARK INTER + INTRA:         -15.389
REMARK INTER:                 -12.814
REMARK INTRA:                  -2.575
REMARK CONF_INDEPENDENT:        2.386
REMARK UNBOUND:                -2.575
REMARK  8 active torsions:
REMARK  status: ('A' for Active; 'I' for Inactive)
REMARK    1  A    between atoms: O_2  and  C_3 
REMARK    2  A    between atoms: C_5  and  N_6 
REMARK    3  A    between atoms: N_6  and  C_7 
REMARK    4  A    between atoms: C_7  and  N_9 
REMARK       I    between atoms: N_9  and  C_10 
REMARK    5  A    between atoms: C_10  and  C_12 
REMARK    6  A    between atoms: C_18  and  O_19 
REMARK    7  A    between atoms: C_23  and  N_24 
REMARK       I    between atoms: N_24  and  C_25 
REMARK    8  A    between atoms: C_25  and  C_27 
ROOT
ATOM      1  C   UNL d   1      25.717 -15.914  -1.873  0.00  0.00     0.097 C 
ATOM      2  C   UNL d   1      26.979 -15.365  -1.350  0.00  0.00     0.068 C 
ATOM      3  C   UNL d   1      27.624 -15.929  -0.238  0.00  0.00     0.037 C 
ATOM      4  C   UNL d   1      26.843 -16.884   0.392  0.00  0.00     0.032 C 
ATOM      5  C   UNL d   1      25.684 -17.485  -0.121  0.00  0.00     0.035 C 
ATOM      6  C   UNL d   1      25.079 -17.042  -1.282  0.00  0.00     0.068 C 
ENDROOT
BRANCH   3   7
ATOM      7  N   UNL d   1      29.008 -15.642   0.204  0.00  0.00    -0.333 N 
ATOM      8  H   UNL d   1      29.325 -16.220   0.979  0.00  0.00     0.168 HD
BRANCH   7   9
ATOM      9  C   UNL d   1      29.848 -14.562  -0.270  0.00  0.00     0.179 C 
ATOM     10  S   UNL d   1      30.486 -13.299   0.653  0.00  0.00    -0.040 SA
BRANCH   9  11
ATOM     11  N   UNL d   1      30.134 -14.566  -1.659  0.00  0.00    -0.299 N 
ATOM     12  C   UNL d   1      29.368 -13.828  -2.614  0.00  0.00     0.260 C 
ATOM     13  O   UNL d   1      28.633 -12.887  -2.387  0.00  0.00    -0.267 OA
ATOM     14  H   UNL d   1      30.834 -15.190  -2.023  0.00  0.00     0.171 HD
BRANCH  12  15
ATOM     15  C   UNL d   1      29.398 -14.161  -4.052  0.00  0.00     0.066 A 
ATOM     16  C   UNL d   1      28.403 -13.465  -4.791  0.00  0.00     0.020 A 
ATOM     17  C   UNL d   1      28.069 -13.828  -6.090  0.00  0.00     0.002 A 
ATOM     18  C   UNL d   1      28.771 -14.853  -6.699  0.00  0.00     0.009 A 
ATOM     19  C   UNL d   1      29.732 -15.583  -5.978  0.00  0.00    -0.028 A 
ATOM     20  C   UNL d   1      30.403 -16.752  -6.648  0.00  0.00     0.051 C 
ATOM     21  C   UNL d   1      30.031 -15.272  -4.625  0.00  0.00     0.089 A 
BRANCH  21  22
ATOM     22  O   UNL d   1      30.874 -16.197  -4.057  0.00  0.00    -0.354 OA
ATOM     23  C   UNL d   1      30.349 -17.320  -3.386  0.00  0.00     0.210 C 
ENDBRANCH  21  22
ENDBRANCH  12  15
ENDBRANCH   9  11
ENDBRANCH   7   9
ENDBRANCH   3   7
BRANCH   1  24
ATOM     24  O   UNL d   1      25.305 -15.260  -3.009  0.00  0.00    -0.354 OA
ATOM     25  C   UNL d   1      25.404 -13.846  -3.055  0.00  0.00     0.210 C 
ENDBRANCH   1  24
BRANCH   6  26
ATOM     26  N   UNL d   1      23.844 -17.739  -1.646  0.00  0.00    -0.319 N 
ATOM     27  C   UNL d   1      22.598 -17.508  -1.062  0.00  0.00     0.280 C 
ATOM     28  O   UNL d   1      22.419 -16.411  -0.514  0.00  0.00    -0.265 OA
ATOM     29  H   UNL d   1      23.821 -18.144  -2.573  0.00  0.00     0.169 HD
BRANCH  27  30
ATOM     30  C   UNL d   1      21.555 -18.570  -0.827  0.00  0.00     0.144 C 
ATOM     31  C   UNL d   1      21.737 -19.440   0.230  0.00  0.00     0.057 C 
ATOM     32  C   UNL d   1      20.478 -19.805   0.683  0.00  0.00     0.001 C 
ATOM     33  C   UNL d   1      20.020 -20.225   1.935  0.00  0.00     0.014 C 
ATOM     34  C   UNL d   1      19.640 -19.754  -0.421  0.00  0.00     0.086 C 
ATOM     35  C   UNL d   1      18.771 -20.806   2.053  0.00  0.00     0.001 C 
ATOM     36  C   UNL d   1      17.995 -20.972   0.908  0.00  0.00     0.003 C 
ATOM     37  C   UNL d   1      18.404 -20.450  -0.365  0.00  0.00     0.038 C 
ATOM     38  O   UNL d   1      20.288 -18.894  -1.384  0.00  0.00    -0.304 OA
ENDBRANCH  27  30
ENDBRANCH   6  26
TORSDOF 8
ENDMDL
MODEL 7
REMARK VINA RESULT:   -10.294      4.095      6.935
REMARK INTER + INTRA:         -14.682
REMARK INTER:                 -12.681
REMARK INTRA:                  -2.002
REMARK CONF_INDEPENDENT:        2.386
REMARK UNBOUND:                -2.002
REMARK  8 active torsions:
REMARK  status: ('A' for Active; 'I' for Inactive)
REMARK    1  A    between atoms: O_2  and  C_3 
REMARK    2  A    between atoms: C_5  and  N_6 
REMARK    3  A    between atoms: N_6  and  C_7 
REMARK    4  A    between atoms: C_7  and  N_9 
REMARK       I    between atoms: N_9  and  C_10 
REMARK    5  A    between atoms: C_10  and  C_12 
REMARK    6  A    between atoms: C_18  and  O_19 
REMARK    7  A    between atoms: C_23  and  N_24 
REMARK       I    between atoms: N_24  and  C_25 
REMARK    8  A    between atoms: C_25  and  C_27 
ROOT
ATOM      1  C   UNL d   1      25.693 -15.079  -2.854  0.00  0.00     0.097 C 
ATOM      2  C   UNL d   1      27.137 -14.841  -3.011  0.00  0.00     0.068 C 
ATOM      3  C   UNL d   1      28.078 -15.397  -2.129  0.00  0.00     0.037 C 
ATOM      4  C   UNL d   1      27.478 -15.989  -1.029  0.00  0.00     0.032 C 
ATOM      5  C   UNL d   1      26.118 -16.304  -0.889  0.00  0.00     0.035 C 
ATOM      6  C   UNL d   1      25.168 -15.881  -1.800  0.00  0.00     0.068 C 
ENDROOT
BRANCH   3   7
ATOM      7  N   UNL d   1      29.542 -15.454  -2.339  0.00  0.00    -0.333 N 
ATOM      8  H   UNL d   1      29.878 -14.855  -3.090  0.00  0.00     0.168 HD
BRANCH   7   9
ATOM      9  C   UNL d   1      30.463 -16.359  -1.683  0.00  0.00     0.179 C 
ATOM     10  S   UNL d   1      30.944 -16.312  -0.064  0.00  0.00    -0.040 SA
BRANCH   9  11
ATOM     11  N   UNL d   1      31.031 -17.365  -2.505  0.00  0.00    -0.299 N 
ATOM     12  C   UNL d   1      30.934 -17.353  -3.932  0.00  0.00     0.260 C 
ATOM     13  O   UNL d   1      30.682 -16.395  -4.635  0.00  0.00    -0.267 OA
ATOM     14  H   UNL d   1      31.431 -18.188  -2.085  0.00  0.00     0.171 HD
BRANCH  12  15
ATOM     15  C   UNL d   1      31.144 -18.576  -4.731  0.00  0.00     0.066 A 
ATOM     16  C   UNL d   1      30.786 -18.400  -6.095  0.00  0.00     0.020 A 
ATOM     17  C   UNL d   1      30.637 -19.480  -6.958  0.00  0.00     0.002 A 
ATOM     18  C   UNL d   1      30.909 -20.752  -6.488  0.00  0.00     0.009 A 
ATOM     19  C   UNL d   1      31.227 -20.957  -5.134  0.00  0.00    -0.028 A 
ATOM     20  C   UNL d   1      31.421 -22.367  -4.644  0.00  0.00     0.051 C 
ATOM     21  C   UNL d   1      31.309 -19.872  -4.223  0.00  0.00     0.089 A 
BRANCH  21  22
ATOM     22  O   UNL d   1      31.472 -20.296  -2.927  0.00  0.00    -0.354 OA
ATOM     23  C   UNL d   1      32.764 -20.415  -2.374  0.00  0.00     0.210 C 
ENDBRANCH  21  22
ENDBRANCH  12  15
ENDBRANCH   9  11
ENDBRANCH   7   9
ENDBRANCH   3   7
BRANCH   1  24
ATOM     24  O   UNL d   1      24.966 -14.507  -3.869  0.00  0.00    -0.354 OA
ATOM     25  C   UNL d   1      25.566 -13.482  -4.644  0.00  0.00     0.210 C 
ENDBRANCH   1  24
BRANCH   6  26
ATOM     26  N   UNL d   1      23.788 -16.244  -1.475  0.00  0.00    -0.319 N 
ATOM     27  C   UNL d   1      23.420 -17.244  -0.573  0.00  0.00     0.280 C 
ATOM     28  O   UNL d   1      24.246 -17.565   0.292  0.00  0.00    -0.265 OA
ATOM     29  H   UNL d   1      23.091 -15.529  -1.638  0.00  0.00     0.169 HD
BRANCH  27  30
ATOM     30  C   UNL d   1      22.208 -18.128  -0.725  0.00  0.00     0.144 C 
ATOM     31  C   UNL d   1      22.239 -19.381  -0.144  0.00  0.00     0.057 C 
ATOM     32  C   UNL d   1      20.936 -19.701   0.208  0.00  0.00     0.001 C 
ATOM     33  C   UNL d   1      20.415 -20.535   1.202  0.00  0.00     0.014 C 
ATOM     34  C   UNL d   1      20.118 -19.057  -0.708  0.00  0.00     0.086 C 
ATOM     35  C   UNL d   1      19.084 -20.908   1.159  0.00  0.00     0.001 C 
ATOM     36  C   UNL d   1      18.289 -20.451   0.111  0.00  0.00     0.003 C 
ATOM     37  C   UNL d   1      18.780 -19.510  -0.855  0.00  0.00     0.038 C 
ATOM     38  O   UNL d   1      20.903 -17.983  -1.270  0.00  0.00    -0.304 OA
ENDBRANCH  27  30
ENDBRANCH   6  26
TORSDOF 8
ENDMDL
MODEL 8
REMARK VINA RESULT:   -10.234      4.421      7.510
REMARK INTER + INTRA:         -14.476
REMARK INTER:                 -12.621
REMARK INTRA:                  -1.855
REMARK CONF_INDEPENDENT:        2.386
REMARK UNBOUND:                -1.855
REMARK  8 active torsions:
REMARK  status: ('A' for Active; 'I' for Inactive)
REMARK    1  A    between atoms: O_2  and  C_3 
REMARK    2  A    between atoms: C_5  and  N_6 
REMARK    3  A    between atoms: N_6  and  C_7 
REMARK    4  A    between atoms: C_7  and  N_9 
REMARK       I    between atoms: N_9  and  C_10 
REMARK    5  A    between atoms: C_10  and  C_12 
REMARK    6  A    between atoms: C_18  and  O_19 
REMARK    7  A    between atoms: C_23  and  N_24 
REMARK       I    between atoms: N_24  and  C_25 
REMARK    8  A    between atoms: C_25  and  C_27 
ROOT
ATOM      1  C   UNL d   1      26.349 -15.284  -1.061  0.00  0.00     0.097 C 
ATOM      2  C   UNL d   1      27.581 -14.846  -1.738  0.00  0.00     0.068 C 
ATOM      3  C   UNL d   1      27.662 -14.750  -3.136  0.00  0.00     0.037 C 
ATOM      4  C   UNL d   1      26.555 -15.300  -3.763  0.00  0.00     0.032 C 
ATOM      5  C   UNL d   1      25.339 -15.647  -3.156  0.00  0.00     0.035 C 
ATOM      6  C   UNL d   1      25.174 -15.638  -1.784  0.00  0.00     0.068 C 
ENDROOT
BRANCH   3   7
ATOM      7  N   UNL d   1      28.733 -14.074  -3.903  0.00  0.00    -0.333 N 
ATOM      8  H   UNL d   1      29.006 -13.169  -3.527  0.00  0.00     0.168 HD
BRANCH   7   9
ATOM      9  C   UNL d   1      29.292 -14.521  -5.163  0.00  0.00     0.179 C 
ATOM     10  S   UNL d   1      29.215 -13.714  -6.645  0.00  0.00    -0.040 SA
BRANCH   9  11
ATOM     11  N   UNL d   1      29.946 -15.779  -5.136  0.00  0.00    -0.299 N 
ATOM     12  C   UNL d   1      30.627 -16.328  -6.267  0.00  0.00     0.260 C 
ATOM     13  O   UNL d   1      31.026 -15.721  -7.240  0.00  0.00    -0.267 OA
ATOM     14  H   UNL d   1      29.849 -16.376  -4.331  0.00  0.00     0.171 HD
BRANCH  12  15
ATOM     15  C   UNL d   1      30.924 -17.771  -6.363  0.00  0.00     0.066 A 
ATOM     16  C   UNL d   1      31.113 -18.196  -7.706  0.00  0.00     0.020 A 
ATOM     17  C   UNL d   1      31.125 -19.542  -8.053  0.00  0.00     0.002 A 
ATOM     18  C   UNL d   1      31.015 -20.491  -7.051  0.00  0.00     0.009 A 
ATOM     19  C   UNL d   1      30.789 -20.097  -5.721  0.00  0.00    -0.028 A 
ATOM     20  C   UNL d   1      30.579 -21.162  -4.678  0.00  0.00     0.051 C 
ATOM     21  C   UNL d   1      30.699 -18.726  -5.363  0.00  0.00     0.089 A 
BRANCH  21  22
ATOM     22  O   UNL d   1      30.318 -18.558  -4.054  0.00  0.00    -0.354 OA
ATOM     23  C   UNL d   1      31.147 -17.855  -3.156  0.00  0.00     0.210 C 
ENDBRANCH  21  22
ENDBRANCH  12  15
ENDBRANCH   9  11
ENDBRANCH   7   9
ENDBRANCH   3   7
BRANCH   1  24
ATOM     24  O   UNL d   1      26.468 -15.228   0.306  0.00  0.00    -0.354 OA
ATOM     25  C   UNL d   1      27.731 -15.493   0.892  0.00  0.00     0.210 C 
ENDBRANCH   1  24
BRANCH   6  26
ATOM     26  N   UNL d   1      23.862 -16.085  -1.311  0.00  0.00    -0.319 N 
ATOM     27  C   UNL d   1      23.631 -17.267  -0.607  0.00  0.00     0.280 C 
ATOM     28  O   UNL d   1      24.587 -17.763   0.007  0.00  0.00    -0.265 OA
ATOM     29  H   UNL d   1      23.166 -15.362  -1.186  0.00  0.00     0.169 HD
BRANCH  27  30
ATOM     30  C   UNL d   1      22.390 -18.112  -0.739  0.00  0.00     0.144 C 
ATOM     31  C   UNL d   1      22.386 -19.361  -0.149  0.00  0.00     0.057 C 
ATOM     32  C   UNL d   1      21.077 -19.636   0.220  0.00  0.00     0.001 C 
ATOM     33  C   UNL d   1      20.540 -20.444   1.226  0.00  0.00     0.014 C 
ATOM     34  C   UNL d   1      20.270 -18.972  -0.692  0.00  0.00     0.086 C 
ATOM     35  C   UNL d   1      19.198 -20.774   1.201  0.00  0.00     0.001 C 
ATOM     36  C   UNL d   1      18.406 -20.298   0.158  0.00  0.00     0.003 C 
ATOM     37  C   UNL d   1      18.917 -19.381  -0.820  0.00  0.00     0.038 C 
ATOM     38  O   UNL d   1      21.084 -17.928  -1.270  0.00  0.00    -0.304 OA
ENDBRANCH  27  30
ENDBRANCH   6  26
TORSDOF 8
ENDMDL
MODEL 9
REMARK VINA RESULT:    -9.924      4.373      7.613
REMARK INTER + INTRA:         -14.481
REMARK INTER:                 -12.310
REMARK INTRA:                  -2.170
REMARK CONF_INDEPENDENT:        2.386
REMARK UNBOUND:                -2.170
REMARK  8 active torsions:
REMARK  status: ('A' for Active; 'I' for Inactive)
REMARK    1  A    between atoms: O_2  and  C_3 
REMARK    2  A    between atoms: C_5  and  N_6 
REMARK    3  A    between atoms: N_6  and  C_7 
REMARK    4  A    between atoms: C_7  and  N_9 
REMARK       I    between atoms: N_9  and  C_10 
REMARK    5  A    between atoms: C_10  and  C_12 
REMARK    6  A    between atoms: C_18  and  O_19 
REMARK    7  A    between atoms: C_23  and  N_24 
REMARK       I    between atoms: N_24  and  C_25 
REMARK    8  A    between atoms: C_25  and  C_27 
ROOT
ATOM      1  C   UNL d   1      26.962 -15.467  -1.601  0.00  0.00     0.097 C 
ATOM      2  C   UNL d   1      27.487 -14.457  -2.535  0.00  0.00     0.068 C 
ATOM      3  C   UNL d   1      26.637 -13.662  -3.318  0.00  0.00     0.037 C 
ATOM      4  C   UNL d   1      25.319 -14.085  -3.254  0.00  0.00     0.032 C 
ATOM      5  C   UNL d   1      24.775 -14.981  -2.321  0.00  0.00     0.035 C 
ATOM      6  C   UNL d   1      25.566 -15.697  -1.443  0.00  0.00     0.068 C 
ENDROOT
BRANCH   3   7
ATOM      7  N   UNL d   1      27.027 -12.450  -4.074  0.00  0.00    -0.333 N 
ATOM      8  H   UNL d   1      27.263 -11.652  -3.488  0.00  0.00     0.168 HD
BRANCH   7   9
ATOM      9  C   UNL d   1      26.965 -12.284  -5.512  0.00  0.00     0.179 C 
ATOM     10  S   UNL d   1      25.861 -11.340  -6.374  0.00  0.00    -0.040 SA
BRANCH   9  11
ATOM     11  N   UNL d   1      27.921 -13.019  -6.259  0.00  0.00    -0.299 N 
ATOM     12  C   UNL d   1      28.115 -14.427  -6.107  0.00  0.00     0.260 C 
ATOM     13  O   UNL d   1      27.334 -15.220  -5.618  0.00  0.00    -0.267 OA
ATOM     14  H   UNL d   1      28.574 -12.532  -6.850  0.00  0.00     0.171 HD
BRANCH  12  15
ATOM     15  C   UNL d   1      29.355 -15.089  -6.555  0.00  0.00     0.066 A 
ATOM     16  C   UNL d   1      29.623 -16.284  -5.833  0.00  0.00     0.020 A 
ATOM     17  C   UNL d   1      30.862 -16.912  -5.892  0.00  0.00     0.002 A 
ATOM     18  C   UNL d   1      31.835 -16.393  -6.726  0.00  0.00     0.009 A 
ATOM     19  C   UNL d   1      31.609 -15.192  -7.420  0.00  0.00    -0.028 A 
ATOM     20  C   UNL d   1      32.729 -14.611  -8.242  0.00  0.00     0.051 C 
ATOM     21  C   UNL d   1      30.376 -14.498  -7.312  0.00  0.00     0.089 A 
BRANCH  21  22
ATOM     22  O   UNL d   1      30.414 -13.274  -7.936  0.00  0.00    -0.354 OA
ATOM     23  C   UNL d   1      30.797 -12.122  -7.218  0.00  0.00     0.210 C 
ENDBRANCH  21  22
ENDBRANCH  12  15
ENDBRANCH   9  11
ENDBRANCH   7   9
ENDBRANCH   3   7
BRANCH   1  24
ATOM     24  O   UNL d   1      27.965 -16.070  -0.881  0.00  0.00    -0.354 OA
ATOM     25  C   UNL d   1      27.803 -17.423  -0.489  0.00  0.00     0.210 C 
ENDBRANCH   1  24
BRANCH   6  26
ATOM     26  N   UNL d   1      24.845 -16.633  -0.578  0.00  0.00    -0.319 N 
ATOM     27  C   UNL d   1      23.917 -17.575  -1.023  0.00  0.00     0.280 C 
ATOM     28  O   UNL d   1      23.990 -17.933  -2.208  0.00  0.00    -0.265 OA
ATOM     29  H   UNL d   1      25.281 -16.840   0.312  0.00  0.00     0.169 HD
BRANCH  27  30
ATOM     30  C   UNL d   1      22.692 -17.998  -0.255  0.00  0.00     0.144 C 
ATOM     31  C   UNL d   1      21.469 -17.940  -0.895  0.00  0.00     0.057 C 
ATOM     32  C   UNL d   1      20.677 -18.944  -0.357  0.00  0.00     0.001 C 
ATOM     33  C   UNL d   1      19.605 -19.670  -0.883  0.00  0.00     0.014 C 
ATOM     34  C   UNL d   1      21.098 -19.109   0.953  0.00  0.00     0.086 C 
ATOM     35  C   UNL d   1      18.800 -20.415  -0.042  0.00  0.00     0.001 C 
ATOM     36  C   UNL d   1      19.071 -20.416   1.324  0.00  0.00     0.003 C 
ATOM     37  C   UNL d   1      20.230 -19.765   1.865  0.00  0.00     0.038 C 
ATOM     38  O   UNL d   1      22.436 -18.569   1.022  0.00  0.00    -0.304 OA
ENDBRANCH  27  30
ENDBRANCH   6  26
TORSDOF 8
ENDMDL
