MODEL 1
REMARK VINA RESULT:    -9.119      0.000      0.000
REMARK INTER + INTRA:         -12.247
REMARK INTER:                 -10.611
REMARK INTRA:                  -1.636
REMARK CONF_INDEPENDENT:        1.492
REMARK UNBOUND:                -1.636
REMARK  5 active torsions:
REMARK  status: ('A' for Active; 'I' for Inactive)
REMARK       I    between atoms: C_2  and  N_3 
REMARK    1  A    between atoms: C_2  and  C_17 
REMARK    2  A    between atoms: N_3  and  N_4 
REMARK       I    between atoms: N_4  and  C_5 
REMARK    3  A    between atoms: C_5  and  C_7 
REMARK    4  A    between atoms: C_9  and  C_10 
REMARK    5  A    between atoms: C_22  and  O_23 
ROOT
ATOM      1  N   UNL d   1      23.366 -17.964  -0.589  0.00  0.00    -0.267 N 
ATOM      2  C   UNL d   1      24.654 -17.942  -0.074  0.00  0.00     0.240 C 
ATOM      3  O   UNL d   1      24.975 -18.575   0.935  0.00  0.00    -0.271 OA
ATOM      4  H   UNL d   1      23.075 -17.458  -1.424  0.00  0.00     0.190 HD
ENDROOT
BRANCH   1   5
ATOM      5  N   UNL d   1      22.338 -18.699   0.080  0.00  0.00    -0.263 N 
ATOM      6  C   UNL d   1      21.021 -18.589  -0.368  0.00  0.00     0.272 C 
ATOM      7  O   UNL d   1      20.707 -17.823  -1.277  0.00  0.00    -0.266 OA
ATOM      8  H   UNL d   1      22.640 -19.359   0.793  0.00  0.00     0.190 HD
BRANCH   6   9
ATOM      9  C   UNL d   1      19.991 -19.435   0.330  0.00  0.00     0.066 A 
ATOM     10  C   UNL d   1      18.980 -20.076  -0.406  0.00  0.00     0.020 A 
ATOM     11  C   UNL d   1      18.030 -20.885   0.237  0.00  0.00     0.001 A 
ATOM     12  C   UNL d   1      18.076 -21.064   1.619  0.00  0.00     0.003 A 
ATOM     13  C   UNL d   1      19.083 -20.450   2.363  0.00  0.00     0.037 A 
ATOM     14  C   UNL d   1      20.039 -19.648   1.720  0.00  0.00     0.081 A 
BRANCH  14  15
ATOM     15  O   UNL d   1      21.008 -19.039   2.470  0.00  0.00    -0.360 OA
ATOM     16  H   UNL d   1      21.618 -19.700   2.834  0.00  0.00     0.217 HD
ENDBRANCH  14  15
ENDBRANCH   6   9
ENDBRANCH   1   5
BRANCH   2  17
ATOM     17  C   UNL d   1      25.667 -17.066  -0.789  0.00  0.00     0.088 A 
ATOM     18  C   UNL d   1      26.262 -15.824  -0.138  0.00  0.00     0.025 A 
ATOM     19  C   UNL d   1      25.216 -15.664  -1.204  0.00  0.00     0.032 A 
BRANCH  19  20
ATOM     20  C   UNL d   1      25.458 -15.009  -2.560  0.00  0.00    -0.050 A 
ATOM     21  C   UNL d   1      24.813 -13.871  -3.075  0.00  0.00     0.007 A 
ATOM     22  C   UNL d   1      25.216 -13.284  -4.295  0.00  0.00     0.004 A 
ATOM     23  C   UNL d   1      26.258 -13.833  -5.041  0.00  0.00     0.042 A 
ATOM     24  C   UNL d   1      26.874 -14.980  -4.576  0.00  0.00     0.116 A 
ATOM     25  F   UNL d   1      27.884 -15.523  -5.269  0.00  0.00    -0.206 F 
ATOM     26  C   UNL d   1      26.476 -15.560  -3.374  0.00  0.00     0.049 A 
ENDBRANCH  19  20
ENDBRANCH   2  17
TORSDOF 5
ENDMDL
MODEL 2
REMARK VINA RESULT:    -9.113      1.032      1.529
REMARK INTER + INTRA:         -12.458
REMARK INTER:                 -10.604
REMARK INTRA:                  -1.854
REMARK CONF_INDEPENDENT:        1.492
REMARK UNBOUND:                -1.854
REMARK  5 active torsions:
REMARK  status: ('A' for Active; 'I' for Inactive)
REMARK       I    between atoms: C_2  and  N_3 
REMARK    1  A    between atoms: C_2  and  C_17 
REMARK    2  A    between atoms: N_3  and  N_4 
REMARK       I    between atoms: N_4  and  C_5 
REMARK    3  A    between atoms: C_5  and  C_7 
REMARK    4  A    between atoms: C_9  and  C_10 
REMARK    5  A    between atoms: C_22  and  O_23 
ROOT
ATOM      1  N   UNL d   1      23.661 -17.887  -0.588  0.00  0.00    -0.267 N 
ATOM      2  C   UNL d   1      24.973 -17.895  -0.135  0.00  0.00     0.240 C 
ATOM      3  O   UNL d   1      25.337 -18.574   0.828  0.00  0.00    -0.271 OA
ATOM      4  H   UNL d   1      23.334 -17.342  -1.384  0.00  0.00     0.190 HD
ENDROOT
BRANCH   1   5
ATOM      5  N   UNL d   1      22.661 -18.645   0.097  0.00  0.00    -0.263 N 
ATOM      6  C   UNL d   1      21.337 -18.573  -0.336  0.00  0.00     0.272 C 
ATOM      7  O   UNL d   1      20.992 -17.821  -1.246  0.00  0.00    -0.266 OA
ATOM      8  H   UNL d   1      22.988 -19.293   0.810  0.00  0.00     0.190 HD
BRANCH   6   9
ATOM      9  C   UNL d   1      20.337 -19.443   0.377  0.00  0.00     0.066 A 
ATOM     10  C   UNL d   1      20.421 -19.630   1.767  0.00  0.00     0.020 A 
ATOM     11  C   UNL d   1      19.478 -20.421   2.441  0.00  0.00     0.001 A 
ATOM     12  C   UNL d   1      18.442 -21.036   1.738  0.00  0.00     0.003 A 
ATOM     13  C   UNL d   1      18.333 -20.846   0.361  0.00  0.00     0.037 A 
ATOM     14  C   UNL d   1      19.270 -20.046  -0.313  0.00  0.00     0.081 A 
BRANCH  14  15
ATOM     15  O   UNL d   1      19.157 -19.888  -1.667  0.00  0.00    -0.360 OA
ATOM     16  H   UNL d   1      19.294 -18.959  -1.911  0.00  0.00     0.217 HD
ENDBRANCH  14  15
ENDBRANCH   6   9
ENDBRANCH   1   5
BRANCH   2  17
ATOM     17  C   UNL d   1      25.957 -16.993  -0.858  0.00  0.00     0.088 A 
ATOM     18  C   UNL d   1      26.702 -15.873  -0.143  0.00  0.00     0.025 A 
ATOM     19  C   UNL d   1      25.558 -15.529  -1.053  0.00  0.00     0.032 A 
BRANCH  19  20
ATOM     20  C   UNL d   1      25.692 -14.727  -2.344  0.00  0.00    -0.050 A 
ATOM     21  C   UNL d   1      25.752 -13.328  -2.466  0.00  0.00     0.007 A 
ATOM     22  C   UNL d   1      26.005 -12.707  -3.709  0.00  0.00     0.004 A 
ATOM     23  C   UNL d   1      26.182 -13.468  -4.863  0.00  0.00     0.042 A 
ATOM     24  C   UNL d   1      26.080 -14.843  -4.774  0.00  0.00     0.116 A 
ATOM     25  F   UNL d   1      26.255 -15.598  -5.867  0.00  0.00    -0.206 F 
ATOM     26  C   UNL d   1      25.829 -15.457  -3.548  0.00  0.00     0.049 A 
ENDBRANCH  19  20
ENDBRANCH   2  17
TORSDOF 5
ENDMDL
MODEL 3
REMARK VINA RESULT:    -8.262      3.444      9.111
REMARK INTER + INTRA:         -11.668
REMARK INTER:                  -9.753
REMARK INTRA:                  -1.915
REMARK CONF_INDEPENDENT:        1.492
REMARK UNBOUND:                -1.915
REMARK  5 active torsions:
REMARK  status: ('A' for Active; 'I' for Inactive)
REMARK       I    between atoms: C_2  and  N_3 
REMARK    1  A    between atoms: C_2  and  C_17 
REMARK    2  A    between atoms: N_3  and  N_4 
REMARK       I    between atoms: N_4  and  C_5 
REMARK    3  A    between atoms: C_5  and  C_7 
REMARK    4  A    between atoms: C_9  and  C_10 
REMARK    5  A    between atoms: C_22  and  O_23 
ROOT
ATOM      1  N   UNL d   1      24.298 -16.584  -1.414  0.00  0.00    -0.267 N 
ATOM      2  C   UNL d   1      23.039 -16.688  -0.840  0.00  0.00     0.240 C 
ATOM      3  O   UNL d   1      22.181 -15.810  -0.961  0.00  0.00    -0.271 OA
ATOM      4  H   UNL d   1      25.023 -17.296  -1.336  0.00  0.00     0.190 HD
ENDROOT
BRANCH   1   5
ATOM      5  N   UNL d   1      24.661 -15.406  -2.137  0.00  0.00    -0.263 N 
ATOM      6  C   UNL d   1      25.951 -15.298  -2.658  0.00  0.00     0.272 C 
ATOM      7  O   UNL d   1      26.808 -16.156  -2.453  0.00  0.00    -0.266 OA
ATOM      8  H   UNL d   1      23.915 -14.741  -2.332  0.00  0.00     0.190 HD
BRANCH   6   9
ATOM      9  C   UNL d   1      26.259 -14.067  -3.469  0.00  0.00     0.066 A 
ATOM     10  C   UNL d   1      27.561 -13.540  -3.495  0.00  0.00     0.020 A 
ATOM     11  C   UNL d   1      27.858 -12.406  -4.267  0.00  0.00     0.001 A 
ATOM     12  C   UNL d   1      26.863 -11.785  -5.021  0.00  0.00     0.003 A 
ATOM     13  C   UNL d   1      25.569 -12.306  -5.021  0.00  0.00     0.037 A 
ATOM     14  C   UNL d   1      25.272 -13.446  -4.256  0.00  0.00     0.081 A 
BRANCH  14  15
ATOM     15  O   UNL d   1      23.993 -13.930  -4.254  0.00  0.00    -0.360 OA
ATOM     16  H   UNL d   1      23.501 -13.585  -5.016  0.00  0.00     0.217 HD
ENDBRANCH  14  15
ENDBRANCH   6   9
ENDBRANCH   1   5
BRANCH   2  17
ATOM     17  C   UNL d   1      22.760 -17.928  -0.010  0.00  0.00     0.088 A 
ATOM     18  C   UNL d   1      23.142 -19.323  -0.489  0.00  0.00     0.025 A 
ATOM     19  C   UNL d   1      21.702 -18.901  -0.531  0.00  0.00     0.032 A 
BRANCH  19  20
ATOM     20  C   UNL d   1      20.590 -19.543   0.293  0.00  0.00    -0.050 A 
ATOM     21  C   UNL d   1      20.488 -19.573   1.695  0.00  0.00     0.007 A 
ATOM     22  C   UNL d   1      19.343 -20.090   2.340  0.00  0.00     0.004 A 
ATOM     23  C   UNL d   1      18.281 -20.609   1.599  0.00  0.00     0.042 A 
ATOM     24  C   UNL d   1      18.381 -20.632   0.222  0.00  0.00     0.116 A 
ATOM     25  F   UNL d   1      17.372 -21.117  -0.513  0.00  0.00    -0.206 F 
ATOM     26  C   UNL d   1      19.512 -20.125  -0.415  0.00  0.00     0.049 A 
ENDBRANCH  19  20
ENDBRANCH   2  17
TORSDOF 5
ENDMDL
MODEL 4
REMARK VINA RESULT:    -7.904      1.859      2.324
REMARK INTER + INTRA:         -10.615
REMARK INTER:                  -9.396
REMARK INTRA:                  -1.219
REMARK CONF_INDEPENDENT:        1.492
REMARK UNBOUND:                -1.219
REMARK  5 active torsions:
REMARK  status: ('A' for Active; 'I' for Inactive)
REMARK       I    between atoms: C_2  and  N_3 
REMARK    1  A    between atoms: C_2  and  C_17 
REMARK    2  A    between atoms: N_3  and  N_4 
REMARK       I    between atoms: N_4  and  C_5 
REMARK    3  A    between atoms: C_5  and  C_7 
REMARK    4  A    between atoms: C_9  and  C_10 
REMARK    5  A    between atoms: C_22  and  O_23 
ROOT
ATOM      1  N   UNL d   1      23.885 -18.065  -0.359  0.00  0.00    -0.267 N 
ATOM      2  C   UNL d   1      23.812 -16.872  -1.065  0.00  0.00     0.240 C 
ATOM      3  O   UNL d   1      22.790 -16.183  -1.097  0.00  0.00    -0.271 OA
ATOM      4  H   UNL d   1      24.718 -18.650  -0.310  0.00  0.00     0.190 HD
ENDROOT
BRANCH   1   5
ATOM      5  N   UNL d   1      22.735 -18.564   0.327  0.00  0.00    -0.263 N 
ATOM      6  C   UNL d   1      21.645 -19.021  -0.414  0.00  0.00     0.272 C 
ATOM      7  O   UNL d   1      21.616 -18.942  -1.641  0.00  0.00    -0.266 OA
ATOM      8  H   UNL d   1      22.813 -18.662   1.337  0.00  0.00     0.190 HD
BRANCH   6   9
ATOM      9  C   UNL d   1      20.489 -19.598   0.357  0.00  0.00     0.066 A 
ATOM     10  C   UNL d   1      20.557 -19.721   1.755  0.00  0.00     0.020 A 
ATOM     11  C   UNL d   1      19.473 -20.237   2.482  0.00  0.00     0.001 A 
ATOM     12  C   UNL d   1      18.309 -20.637   1.824  0.00  0.00     0.003 A 
ATOM     13  C   UNL d   1      18.218 -20.504   0.439  0.00  0.00     0.037 A 
ATOM     14  C   UNL d   1      19.298 -19.979  -0.288  0.00  0.00     0.081 A 
BRANCH  14  15
ATOM     15  O   UNL d   1      19.195 -19.876  -1.648  0.00  0.00    -0.360 OA
ATOM     16  H   UNL d   1      20.059 -19.665  -2.037  0.00  0.00     0.217 HD
ENDBRANCH  14  15
ENDBRANCH   6   9
ENDBRANCH   1   5
BRANCH   2  17
ATOM     17  C   UNL d   1      25.047 -16.456  -1.844  0.00  0.00     0.088 A 
ATOM     18  C   UNL d   1      26.380 -16.186  -1.158  0.00  0.00     0.025 A 
ATOM     19  C   UNL d   1      25.557 -15.028  -1.644  0.00  0.00     0.032 A 
BRANCH  19  20
ATOM     20  C   UNL d   1      25.986 -14.066  -2.747  0.00  0.00    -0.050 A 
ATOM     21  C   UNL d   1      25.630 -14.126  -4.106  0.00  0.00     0.007 A 
ATOM     22  C   UNL d   1      25.990 -13.102  -5.009  0.00  0.00     0.004 A 
ATOM     23  C   UNL d   1      26.733 -12.002  -4.580  0.00  0.00     0.042 A 
ATOM     24  C   UNL d   1      27.135 -11.947  -3.259  0.00  0.00     0.116 A 
ATOM     25  F   UNL d   1      27.842 -10.898  -2.820  0.00  0.00    -0.206 F 
ATOM     26  C   UNL d   1      26.782 -12.959  -2.368  0.00  0.00     0.049 A 
ENDBRANCH  19  20
ENDBRANCH   2  17
TORSDOF 5
ENDMDL
MODEL 5
REMARK VINA RESULT:    -7.694      2.695      3.246
REMARK INTER + INTRA:         -10.918
REMARK INTER:                  -9.186
REMARK INTRA:                  -1.732
REMARK CONF_INDEPENDENT:        1.492
REMARK UNBOUND:                -1.732
REMARK  5 active torsions:
REMARK  status: ('A' for Active; 'I' for Inactive)
REMARK       I    between atoms: C_2  and  N_3 
REMARK    1  A    between atoms: C_2  and  C_17 
REMARK    2  A    between atoms: N_3  and  N_4 
REMARK       I    between atoms: N_4  and  C_5 
REMARK    3  A    between atoms: C_5  and  C_7 
REMARK    4  A    between atoms: C_9  and  C_10 
REMARK    5  A    between atoms: C_22  and  O_23 
ROOT
ATOM      1  N   UNL d   1      23.226 -17.846  -0.539  0.00  0.00    -0.267 N 
ATOM      2  C   UNL d   1      24.495 -17.778   0.019  0.00  0.00     0.240 C 
ATOM      3  O   UNL d   1      24.817 -18.434   1.012  0.00  0.00    -0.271 OA
ATOM      4  H   UNL d   1      22.935 -17.322  -1.363  0.00  0.00     0.190 HD
ENDROOT
BRANCH   1   5
ATOM      5  N   UNL d   1      22.218 -18.659   0.067  0.00  0.00    -0.263 N 
ATOM      6  C   UNL d   1      20.906 -18.576  -0.400  0.00  0.00     0.272 C 
ATOM      7  O   UNL d   1      20.576 -17.772  -1.270  0.00  0.00    -0.266 OA
ATOM      8  H   UNL d   1      22.534 -19.347   0.746  0.00  0.00     0.190 HD
BRANCH   6   9
ATOM      9  C   UNL d   1      19.899 -19.502   0.228  0.00  0.00     0.066 A 
ATOM     10  C   UNL d   1      18.878 -20.075  -0.549  0.00  0.00     0.020 A 
ATOM     11  C   UNL d   1      17.951 -20.958   0.026  0.00  0.00     0.001 A 
ATOM     12  C   UNL d   1      18.030 -21.279   1.381  0.00  0.00     0.003 A 
ATOM     13  C   UNL d   1      19.048 -20.734   2.162  0.00  0.00     0.037 A 
ATOM     14  C   UNL d   1      19.982 -19.859   1.586  0.00  0.00     0.081 A 
BRANCH  14  15
ATOM     15  O   UNL d   1      20.961 -19.320   2.374  0.00  0.00    -0.360 OA
ATOM     16  H   UNL d   1      21.405 -20.016   2.885  0.00  0.00     0.217 HD
ENDBRANCH  14  15
ENDBRANCH   6   9
ENDBRANCH   1   5
BRANCH   2  17
ATOM     17  C   UNL d   1      25.481 -16.823  -0.628  0.00  0.00     0.088 A 
ATOM     18  C   UNL d   1      26.811 -17.299  -1.198  0.00  0.00     0.025 A 
ATOM     19  C   UNL d   1      26.796 -16.562   0.110  0.00  0.00     0.032 A 
BRANCH  19  20
ATOM     20  C   UNL d   1      27.440 -15.198   0.341  0.00  0.00    -0.050 A 
ATOM     21  C   UNL d   1      28.723 -14.791  -0.066  0.00  0.00     0.007 A 
ATOM     22  C   UNL d   1      29.158 -13.457   0.097  0.00  0.00     0.004 A 
ATOM     23  C   UNL d   1      28.331 -12.504   0.689  0.00  0.00     0.042 A 
ATOM     24  C   UNL d   1      27.085 -12.895   1.140  0.00  0.00     0.116 A 
ATOM     25  F   UNL d   1      26.267 -11.997   1.705  0.00  0.00    -0.206 F 
ATOM     26  C   UNL d   1      26.655 -14.211   0.982  0.00  0.00     0.049 A 
ENDBRANCH  19  20
ENDBRANCH   2  17
TORSDOF 5
ENDMDL
MODEL 6
REMARK VINA RESULT:    -7.260      2.092      3.254
REMARK INTER + INTRA:          -9.923
REMARK INTER:                  -8.752
REMARK INTRA:                  -1.171
REMARK CONF_INDEPENDENT:        1.492
REMARK UNBOUND:                -1.171
REMARK  5 active torsions:
REMARK  status: ('A' for Active; 'I' for Inactive)
REMARK       I    between atoms: C_2  and  N_3 
REMARK    1  A    between atoms: C_2  and  C_17 
REMARK    2  A    between atoms: N_3  and  N_4 
REMARK       I    between atoms: N_4  and  C_5 
REMARK    3  A    between atoms: C_5  and  C_7 
REMARK    4  A    between atoms: C_9  and  C_10 
REMARK    5  A    between atoms: C_22  and  O_23 
ROOT
ATOM      1  N   UNL d   1      23.396 -17.775  -1.596  0.00  0.00    -0.267 N 
ATOM      2  C   UNL d   1      23.684 -16.530  -1.054  0.00  0.00     0.240 C 
ATOM      3  O   UNL d   1      22.964 -15.993  -0.208  0.00  0.00    -0.271 OA
ATOM      4  H   UNL d   1      23.975 -18.244  -2.290  0.00  0.00     0.190 HD
ENDROOT
BRANCH   1   5
ATOM      5  N   UNL d   1      22.202 -18.464  -1.216  0.00  0.00    -0.263 N 
ATOM      6  C   UNL d   1      22.005 -18.794   0.125  0.00  0.00     0.272 C 
ATOM      7  O   UNL d   1      22.860 -18.574   0.980  0.00  0.00    -0.266 OA
ATOM      8  H   UNL d   1      21.495 -18.584  -1.938  0.00  0.00     0.190 HD
BRANCH   6   9
ATOM      9  C   UNL d   1      20.702 -19.458   0.480  0.00  0.00     0.066 A 
ATOM     10  C   UNL d   1      20.282 -19.533   1.818  0.00  0.00     0.020 A 
ATOM     11  C   UNL d   1      19.057 -20.130   2.152  0.00  0.00     0.001 A 
ATOM     12  C   UNL d   1      18.236 -20.660   1.157  0.00  0.00     0.003 A 
ATOM     13  C   UNL d   1      18.628 -20.577  -0.179  0.00  0.00     0.037 A 
ATOM     14  C   UNL d   1      19.849 -19.972  -0.515  0.00  0.00     0.081 A 
BRANCH  14  15
ATOM     15  O   UNL d   1      20.225 -19.918  -1.829  0.00  0.00    -0.360 OA
ATOM     16  H   UNL d   1      19.635 -19.329  -2.325  0.00  0.00     0.217 HD
ENDBRANCH  14  15
ENDBRANCH   6   9
ENDBRANCH   1   5
BRANCH   2  17
ATOM     17  C   UNL d   1      24.920 -15.821  -1.576  0.00  0.00     0.088 A 
ATOM     18  C   UNL d   1      25.534 -16.159  -2.929  0.00  0.00     0.025 A 
ATOM     19  C   UNL d   1      26.210 -16.637  -1.676  0.00  0.00     0.032 A 
BRANCH  19  20
ATOM     20  C   UNL d   1      27.594 -16.188  -1.216  0.00  0.00    -0.050 A 
ATOM     21  C   UNL d   1      27.966 -15.795   0.082  0.00  0.00     0.007 A 
ATOM     22  C   UNL d   1      29.312 -15.520   0.411  0.00  0.00     0.004 A 
ATOM     23  C   UNL d   1      30.314 -15.612  -0.554  0.00  0.00     0.042 A 
ATOM     24  C   UNL d   1      29.963 -15.950  -1.846  0.00  0.00     0.116 A 
ATOM     25  F   UNL d   1      30.909 -16.052  -2.790  0.00  0.00    -0.206 F 
ATOM     26  C   UNL d   1      28.636 -16.218  -2.173  0.00  0.00     0.049 A 
ENDBRANCH  19  20
ENDBRANCH   2  17
TORSDOF 5
ENDMDL
MODEL 7
REMARK VINA RESULT:    -6.652      6.195      9.438
REMARK INTER + INTRA:          -9.929
REMARK INTER:                  -8.144
REMARK INTRA:                  -1.786
REMARK CONF_INDEPENDENT:        1.492
REMARK UNBOUND:                -1.786
REMARK  5 active torsions:
REMARK  status: ('A' for Active; 'I' for Inactive)
REMARK       I    between atoms: C_2  and  N_3 
REMARK    1  A    between atoms: C_2  and  C_17 
REMARK    2  A    between atoms: N_3  and  N_4 
REMARK       I    between atoms: N_4  and  C_5 
REMARK    3  A    between atoms: C_5  and  C_7 
REMARK    4  A    between atoms: C_9  and  C_10 
REMARK    5  A    between atoms: C_22  and  O_23 
ROOT
ATOM      1  N   UNL d   1      28.143 -14.814   3.148  0.00  0.00    -0.267 N 
ATOM      2  C   UNL d   1      27.786 -14.474   1.850  0.00  0.00     0.240 C 
ATOM      3  O   UNL d   1      27.676 -13.303   1.480  0.00  0.00    -0.271 OA
ATOM      4  H   UNL d   1      28.248 -15.772   3.479  0.00  0.00     0.190 HD
ENDROOT
BRANCH   1   5
ATOM      5  N   UNL d   1      28.348 -13.793   4.127  0.00  0.00    -0.263 N 
ATOM      6  C   UNL d   1      28.402 -14.145   5.476  0.00  0.00     0.272 C 
ATOM      7  O   UNL d   1      28.208 -15.298   5.854  0.00  0.00    -0.266 OA
ATOM      8  H   UNL d   1      28.556 -12.860   3.777  0.00  0.00     0.190 HD
BRANCH   6   9
ATOM      9  C   UNL d   1      28.689 -13.040   6.458  0.00  0.00     0.066 A 
ATOM     10  C   UNL d   1      28.697 -11.700   6.038  0.00  0.00     0.020 A 
ATOM     11  C   UNL d   1      28.940 -10.664   6.953  0.00  0.00     0.001 A 
ATOM     12  C   UNL d   1      29.179 -10.953   8.297  0.00  0.00     0.003 A 
ATOM     13  C   UNL d   1      29.156 -12.277   8.734  0.00  0.00     0.037 A 
ATOM     14  C   UNL d   1      28.903 -13.312   7.821  0.00  0.00     0.081 A 
BRANCH  14  15
ATOM     15  O   UNL d   1      28.904 -14.606   8.267  0.00  0.00    -0.360 OA
ATOM     16  H   UNL d   1      28.560 -15.200   7.581  0.00  0.00     0.217 HD
ENDBRANCH  14  15
ENDBRANCH   6   9
ENDBRANCH   1   5
BRANCH   2  17
ATOM     17  C   UNL d   1      27.495 -15.616   0.894  0.00  0.00     0.088 A 
ATOM     18  C   UNL d   1      27.566 -15.441  -0.618  0.00  0.00     0.025 A 
ATOM     19  C   UNL d   1      26.223 -15.520   0.049  0.00  0.00     0.032 A 
BRANCH  19  20
ATOM     20  C   UNL d   1      25.210 -16.638  -0.178  0.00  0.00    -0.050 A 
ATOM     21  C   UNL d   1      25.431 -18.019  -0.030  0.00  0.00     0.007 A 
ATOM     22  C   UNL d   1      24.375 -18.950  -0.148  0.00  0.00     0.004 A 
ATOM     23  C   UNL d   1      23.079 -18.526  -0.436  0.00  0.00     0.042 A 
ATOM     24  C   UNL d   1      22.850 -17.178  -0.632  0.00  0.00     0.116 A 
ATOM     25  F   UNL d   1      21.612 -16.742  -0.903  0.00  0.00    -0.206 F 
ATOM     26  C   UNL d   1      23.891 -16.258  -0.519  0.00  0.00     0.049 A 
ENDBRANCH  19  20
ENDBRANCH   2  17
TORSDOF 5
ENDMDL
MODEL 8
REMARK VINA RESULT:    -6.646      5.361     10.026
REMARK INTER + INTRA:          -9.925
REMARK INTER:                  -8.138
REMARK INTRA:                  -1.787
REMARK CONF_INDEPENDENT:        1.492
REMARK UNBOUND:                -1.787
REMARK  5 active torsions:
REMARK  status: ('A' for Active; 'I' for Inactive)
REMARK       I    between atoms: C_2  and  N_3 
REMARK    1  A    between atoms: C_2  and  C_17 
REMARK    2  A    between atoms: N_3  and  N_4 
REMARK       I    between atoms: N_4  and  C_5 
REMARK    3  A    between atoms: C_5  and  C_7 
REMARK    4  A    between atoms: C_9  and  C_10 
REMARK    5  A    between atoms: C_22  and  O_23 
ROOT
ATOM      1  N   UNL d   1      25.963 -12.114  -3.117  0.00  0.00    -0.267 N 
ATOM      2  C   UNL d   1      25.485 -13.399  -3.336  0.00  0.00     0.240 C 
ATOM      3  O   UNL d   1      24.614 -13.647  -4.173  0.00  0.00    -0.271 OA
ATOM      4  H   UNL d   1      26.686 -11.881  -2.439  0.00  0.00     0.190 HD
ENDROOT
BRANCH   1   5
ATOM      5  N   UNL d   1      25.410 -11.010  -3.839  0.00  0.00    -0.263 N 
ATOM      6  C   UNL d   1      25.866  -9.721  -3.563  0.00  0.00     0.272 C 
ATOM      7  O   UNL d   1      26.678  -9.497  -2.667  0.00  0.00    -0.266 OA
ATOM      8  H   UNL d   1      24.780 -11.236  -4.605  0.00  0.00     0.190 HD
BRANCH   6   9
ATOM      9  C   UNL d   1      25.299  -8.604  -4.398  0.00  0.00     0.066 A 
ATOM     10  C   UNL d   1      25.155  -7.315  -3.859  0.00  0.00     0.020 A 
ATOM     11  C   UNL d   1      24.649  -6.265  -4.640  0.00  0.00     0.001 A 
ATOM     12  C   UNL d   1      24.280  -6.487  -5.967  0.00  0.00     0.003 A 
ATOM     13  C   UNL d   1      24.433  -7.757  -6.523  0.00  0.00     0.037 A 
ATOM     14  C   UNL d   1      24.949  -8.805  -5.746  0.00  0.00     0.081 A 
BRANCH  14  15
ATOM     15  O   UNL d   1      25.073 -10.048  -6.305  0.00  0.00    -0.360 OA
ATOM     16  H   UNL d   1      24.438 -10.663  -5.905  0.00  0.00     0.217 HD
ENDBRANCH  14  15
ENDBRANCH   6   9
ENDBRANCH   1   5
BRANCH   2  17
ATOM     17  C   UNL d   1      26.057 -14.503  -2.467  0.00  0.00     0.088 A 
ATOM     18  C   UNL d   1      26.958 -15.593  -3.034  0.00  0.00     0.025 A 
ATOM     19  C   UNL d   1      25.532 -15.922  -2.695  0.00  0.00     0.032 A 
BRANCH  19  20
ATOM     20  C   UNL d   1      25.108 -16.907  -1.610  0.00  0.00    -0.050 A 
ATOM     21  C   UNL d   1      25.895 -17.383  -0.547  0.00  0.00     0.007 A 
ATOM     22  C   UNL d   1      25.347 -18.198   0.468  0.00  0.00     0.004 A 
ATOM     23  C   UNL d   1      24.005 -18.575   0.433  0.00  0.00     0.042 A 
ATOM     24  C   UNL d   1      23.226 -18.158  -0.628  0.00  0.00     0.116 A 
ATOM     25  F   UNL d   1      21.931 -18.499  -0.681  0.00  0.00    -0.206 F 
ATOM     26  C   UNL d   1      23.766 -17.356  -1.632  0.00  0.00     0.049 A 
ENDBRANCH  19  20
ENDBRANCH   2  17
TORSDOF 5
ENDMDL
MODEL 9
REMARK VINA RESULT:    -6.636      3.481      8.869
REMARK INTER + INTRA:         -10.001
REMARK INTER:                  -8.128
REMARK INTRA:                  -1.873
REMARK CONF_INDEPENDENT:        1.492
REMARK UNBOUND:                -1.873
REMARK  5 active torsions:
REMARK  status: ('A' for Active; 'I' for Inactive)
REMARK       I    between atoms: C_2  and  N_3 
REMARK    1  A    between atoms: C_2  and  C_17 
REMARK    2  A    between atoms: N_3  and  N_4 
REMARK       I    between atoms: N_4  and  C_5 
REMARK    3  A    between atoms: C_5  and  C_7 
REMARK    4  A    between atoms: C_9  and  C_10 
REMARK    5  A    between atoms: C_22  and  O_23 
ROOT
ATOM      1  N   UNL d   1      24.105 -17.052  -1.100  0.00  0.00    -0.267 N 
ATOM      2  C   UNL d   1      23.945 -18.056  -0.155  0.00  0.00     0.240 C 
ATOM      3  O   UNL d   1      24.650 -18.135   0.853  0.00  0.00    -0.271 OA
ATOM      4  H   UNL d   1      23.533 -16.959  -1.938  0.00  0.00     0.190 HD
ENDROOT
BRANCH   1   5
ATOM      5  N   UNL d   1      25.150 -16.088  -0.952  0.00  0.00    -0.263 N 
ATOM      6  C   UNL d   1      25.377 -15.168  -1.976  0.00  0.00     0.272 C 
ATOM      7  O   UNL d   1      24.751 -15.207  -3.034  0.00  0.00    -0.266 OA
ATOM      8  H   UNL d   1      25.612 -16.051  -0.046  0.00  0.00     0.190 HD
BRANCH   6   9
ATOM      9  C   UNL d   1      26.444 -14.133  -1.739  0.00  0.00     0.066 A 
ATOM     10  C   UNL d   1      26.416 -12.911  -2.433  0.00  0.00     0.020 A 
ATOM     11  C   UNL d   1      27.395 -11.933  -2.198  0.00  0.00     0.001 A 
ATOM     12  C   UNL d   1      28.412 -12.161  -1.272  0.00  0.00     0.003 A 
ATOM     13  C   UNL d   1      28.444 -13.361  -0.562  0.00  0.00     0.037 A 
ATOM     14  C   UNL d   1      27.460 -14.336  -0.788  0.00  0.00     0.081 A 
BRANCH  14  15
ATOM     15  O   UNL d   1      27.521 -15.514  -0.095  0.00  0.00    -0.360 OA
ATOM     16  H   UNL d   1      27.017 -15.446   0.731  0.00  0.00     0.217 HD
ENDBRANCH  14  15
ENDBRANCH   6   9
ENDBRANCH   1   5
BRANCH   2  17
ATOM     17  C   UNL d   1      22.874 -19.096  -0.430  0.00  0.00     0.088 A 
ATOM     18  C   UNL d   1      21.881 -18.949  -1.576  0.00  0.00     0.025 A 
ATOM     19  C   UNL d   1      21.421 -18.696  -0.169  0.00  0.00     0.032 A 
BRANCH  19  20
ATOM     20  C   UNL d   1      20.376 -19.534   0.562  0.00  0.00    -0.050 A 
ATOM     21  C   UNL d   1      20.280 -19.740   1.949  0.00  0.00     0.007 A 
ATOM     22  C   UNL d   1      19.190 -20.437   2.516  0.00  0.00     0.004 A 
ATOM     23  C   UNL d   1      18.182 -20.963   1.709  0.00  0.00     0.042 A 
ATOM     24  C   UNL d   1      18.283 -20.814   0.339  0.00  0.00     0.116 A 
ATOM     25  F   UNL d   1      17.324 -21.303  -0.458  0.00  0.00    -0.206 F 
ATOM     26  C   UNL d   1      19.359 -20.128  -0.221  0.00  0.00     0.049 A 
ENDBRANCH  19  20
ENDBRANCH   2  17
TORSDOF 5
ENDMDL
