MODEL 1
REMARK VINA RESULT:    -5.984      0.000      0.000
REMARK INTER + INTRA:          -7.509
REMARK INTER:                  -6.879
REMARK INTRA:                  -0.630
REMARK CONF_INDEPENDENT:        0.895
REMARK UNBOUND:                -0.630
REMARK  3 active torsions:
REMARK  status: ('A' for Active; 'I' for Inactive)
REMARK       I    between atoms: C_2  and  N_3 
REMARK    1  A    between atoms: C_2  and  C_12 
REMARK    2  A    between atoms: N_3  and  N_4 
REMARK    3  A    between atoms: N_4  and  C_5 
ROOT
ATOM      1  O   UNL d   1      25.880 -18.536   0.387  0.00  0.00    -0.278 OA
ATOM      2  C   UNL d   1      25.173 -17.976  -0.460  0.00  0.00     0.219 C 
ATOM      3  N   UNL d   1      23.789 -18.140  -0.520  0.00  0.00    -0.173 NA
ATOM      4  H   UNL d   1      23.310 -17.456  -1.071  0.00  0.00     0.155 HD
ENDROOT
BRANCH   3   5
ATOM      5  N   UNL d   1      23.009 -18.362   0.608  0.00  0.00    -0.315 N 
ATOM      6  H   UNL d   1      23.502 -18.644   1.455  0.00  0.00     0.181 HD
BRANCH   5   7
ATOM      7  C   UNL d   1      21.700 -18.868   0.376  0.00  0.00     0.043 A 
ATOM      8  C   UNL d   1      20.810 -19.321   1.379  0.00  0.00     0.033 A 
ATOM      9  C   UNL d   1      19.565 -19.898   1.062  0.00  0.00     0.044 A 
ATOM     10  C   UNL d   1      19.198 -20.037  -0.267  0.00  0.00     0.116 A 
ATOM     11  F   UNL d   1      18.009 -20.573  -0.579  0.00  0.00    -0.206 F 
ATOM     12  C   UNL d   1      20.054 -19.624  -1.276  0.00  0.00     0.044 A 
ATOM     13  C   UNL d   1      21.294 -19.049  -0.954  0.00  0.00     0.033 A 
ENDBRANCH   5   7
ENDBRANCH   3   5
BRANCH   2  14
ATOM     14  C   UNL d   1      25.801 -17.023  -1.548  0.00  0.00     0.077 C 
ATOM     15  C   UNL d   1      25.289 -15.582  -1.383  0.00  0.00     0.040 C 
ATOM     16  C   UNL d   1      25.945 -14.907  -0.198  0.00  0.00    -0.030 C 
ATOM     17  C   UNL d   1      27.106 -15.344   0.341  0.00  0.00    -0.031 C 
ATOM     18  C   UNL d   1      27.865 -16.557  -0.173  0.00  0.00     0.027 C 
ATOM     19  C   UNL d   1      27.344 -17.000  -1.537  0.00  0.00     0.018 C 
ENDBRANCH   2  14
TORSDOF 3
ENDMDL
MODEL 2
REMARK VINA RESULT:    -5.655      3.349      4.333
REMARK INTER + INTRA:          -7.134
REMARK INTER:                  -6.550
REMARK INTRA:                  -0.583
REMARK CONF_INDEPENDENT:        0.895
REMARK UNBOUND:                -0.583
REMARK  3 active torsions:
REMARK  status: ('A' for Active; 'I' for Inactive)
REMARK       I    between atoms: C_2  and  N_3 
REMARK    1  A    between atoms: C_2  and  C_12 
REMARK    2  A    between atoms: N_3  and  N_4 
REMARK    3  A    between atoms: N_4  and  C_5 
ROOT
ATOM      1  O   UNL d   1      25.929 -13.647  -1.905  0.00  0.00    -0.278 OA
ATOM      2  C   UNL d   1      25.834 -14.587  -2.704  0.00  0.00     0.219 C 
ATOM      3  N   UNL d   1      26.188 -15.898  -2.378  0.00  0.00    -0.173 NA
ATOM      4  H   UNL d   1      25.837 -16.593  -3.003  0.00  0.00     0.155 HD
ENDROOT
BRANCH   3   5
ATOM      5  N   UNL d   1      26.060 -16.412  -1.094  0.00  0.00    -0.315 N 
ATOM      6  H   UNL d   1      26.909 -16.773  -0.659  0.00  0.00     0.181 HD
BRANCH   5   7
ATOM      7  C   UNL d   1      24.817 -17.035  -0.789  0.00  0.00     0.043 A 
ATOM      8  C   UNL d   1      24.662 -18.367  -0.334  0.00  0.00     0.033 A 
ATOM      9  C   UNL d   1      23.390 -18.943  -0.145  0.00  0.00     0.044 A 
ATOM     10  C   UNL d   1      22.257 -18.194  -0.417  0.00  0.00     0.116 A 
ATOM     11  F   UNL d   1      21.041 -18.729  -0.228  0.00  0.00    -0.206 F 
ATOM     12  C   UNL d   1      22.373 -16.894  -0.885  0.00  0.00     0.044 A 
ATOM     13  C   UNL d   1      23.642 -16.324  -1.071  0.00  0.00     0.033 A 
ENDBRANCH   5   7
ENDBRANCH   3   5
BRANCH   2  14
ATOM     14  C   UNL d   1      25.298 -14.364  -4.169  0.00  0.00     0.077 C 
ATOM     15  C   UNL d   1      25.554 -12.922  -4.638  0.00  0.00     0.040 C 
ATOM     16  C   UNL d   1      27.013 -12.714  -4.980  0.00  0.00    -0.030 C 
ATOM     17  C   UNL d   1      27.852 -13.740  -5.255  0.00  0.00    -0.031 C 
ATOM     18  C   UNL d   1      27.425 -15.199  -5.240  0.00  0.00     0.027 C 
ATOM     19  C   UNL d   1      25.906 -15.333  -5.207  0.00  0.00     0.018 C 
ENDBRANCH   2  14
TORSDOF 3
ENDMDL
MODEL 3
REMARK VINA RESULT:    -5.650      2.510      3.412
REMARK INTER + INTRA:          -7.200
REMARK INTER:                  -6.545
REMARK INTRA:                  -0.654
REMARK CONF_INDEPENDENT:        0.895
REMARK UNBOUND:                -0.654
REMARK  3 active torsions:
REMARK  status: ('A' for Active; 'I' for Inactive)
REMARK       I    between atoms: C_2  and  N_3 
REMARK    1  A    between atoms: C_2  and  C_12 
REMARK    2  A    between atoms: N_3  and  N_4 
REMARK    3  A    between atoms: N_4  and  C_5 
ROOT
ATOM      1  O   UNL d   1      25.193 -16.806  -2.800  0.00  0.00    -0.278 OA
ATOM      2  C   UNL d   1      25.972 -16.137  -2.110  0.00  0.00     0.219 C 
ATOM      3  N   UNL d   1      25.904 -16.095  -0.716  0.00  0.00    -0.173 NA
ATOM      4  H   UNL d   1      26.721 -15.733  -0.269  0.00  0.00     0.155 HD
ENDROOT
BRANCH   3   5
ATOM      5  N   UNL d   1      25.474 -17.174   0.047  0.00  0.00    -0.315 N 
ATOM      6  H   UNL d   1      26.179 -17.867   0.296  0.00  0.00     0.181 HD
BRANCH   5   7
ATOM      7  C   UNL d   1      24.137 -17.606  -0.176  0.00  0.00     0.043 A 
ATOM      8  C   UNL d   1      23.701 -18.952  -0.155  0.00  0.00     0.033 A 
ATOM      9  C   UNL d   1      22.377 -19.309  -0.480  0.00  0.00     0.044 A 
ATOM     10  C   UNL d   1      21.475 -18.321  -0.839  0.00  0.00     0.116 A 
ATOM     11  F   UNL d   1      20.209 -18.648  -1.139  0.00  0.00    -0.206 F 
ATOM     12  C   UNL d   1      21.875 -16.994  -0.892  0.00  0.00     0.044 A 
ATOM     13  C   UNL d   1      23.194 -16.644  -0.566  0.00  0.00     0.033 A 
ENDBRANCH   5   7
ENDBRANCH   3   5
BRANCH   2  14
ATOM     14  C   UNL d   1      27.110 -15.270  -2.769  0.00  0.00     0.077 C 
ATOM     15  C   UNL d   1      26.943 -15.206  -4.296  0.00  0.00     0.040 C 
ATOM     16  C   UNL d   1      25.810 -14.279  -4.679  0.00  0.00    -0.030 C 
ATOM     17  C   UNL d   1      25.330 -13.329  -3.844  0.00  0.00    -0.031 C 
ATOM     18  C   UNL d   1      25.864 -13.101  -2.439  0.00  0.00     0.027 C 
ATOM     19  C   UNL d   1      27.188 -13.828  -2.223  0.00  0.00     0.018 C 
ENDBRANCH   2  14
TORSDOF 3
ENDMDL
MODEL 4
REMARK VINA RESULT:    -5.560      4.117      5.697
REMARK INTER + INTRA:          -7.183
REMARK INTER:                  -6.455
REMARK INTRA:                  -0.728
REMARK CONF_INDEPENDENT:        0.895
REMARK UNBOUND:                -0.728
REMARK  3 active torsions:
REMARK  status: ('A' for Active; 'I' for Inactive)
REMARK       I    between atoms: C_2  and  N_3 
REMARK    1  A    between atoms: C_2  and  C_12 
REMARK    2  A    between atoms: N_3  and  N_4 
REMARK    3  A    between atoms: N_4  and  C_5 
ROOT
ATOM      1  O   UNL d   1      25.227 -15.118  -5.019  0.00  0.00    -0.278 OA
ATOM      2  C   UNL d   1      25.524 -14.353  -4.093  0.00  0.00     0.219 C 
ATOM      3  N   UNL d   1      24.758 -14.236  -2.932  0.00  0.00    -0.173 NA
ATOM      4  H   UNL d   1      25.222 -13.788  -2.169  0.00  0.00     0.155 HD
ENDROOT
BRANCH   3   5
ATOM      5  N   UNL d   1      24.040 -15.298  -2.396  0.00  0.00    -0.315 N 
ATOM      6  H   UNL d   1      23.043 -15.145  -2.248  0.00  0.00     0.181 HD
BRANCH   5   7
ATOM      7  C   UNL d   1      24.746 -16.140  -1.493  0.00  0.00     0.043 A 
ATOM      8  C   UNL d   1      26.111 -15.999  -1.143  0.00  0.00     0.033 A 
ATOM      9  C   UNL d   1      26.764 -16.930  -0.313  0.00  0.00     0.044 A 
ATOM     10  C   UNL d   1      26.061 -18.021   0.172  0.00  0.00     0.116 A 
ATOM     11  F   UNL d   1      26.671 -18.907   0.972  0.00  0.00    -0.206 F 
ATOM     12  C   UNL d   1      24.729 -18.202  -0.169  0.00  0.00     0.044 A 
ATOM     13  C   UNL d   1      24.082 -17.270  -0.995  0.00  0.00     0.033 A 
ENDBRANCH   5   7
ENDBRANCH   3   5
BRANCH   2  14
ATOM     14  C   UNL d   1      26.808 -13.443  -4.165  0.00  0.00     0.077 C 
ATOM     15  C   UNL d   1      27.858 -13.885  -3.132  0.00  0.00     0.040 C 
ATOM     16  C   UNL d   1      28.551 -15.154  -3.574  0.00  0.00    -0.030 C 
ATOM     17  C   UNL d   1      28.561 -15.571  -4.861  0.00  0.00    -0.031 C 
ATOM     18  C   UNL d   1      27.873 -14.821  -5.990  0.00  0.00     0.027 C 
ATOM     19  C   UNL d   1      27.472 -13.414  -5.559  0.00  0.00     0.018 C 
ENDBRANCH   2  14
TORSDOF 3
ENDMDL
MODEL 5
REMARK VINA RESULT:    -5.531      2.723      3.744
REMARK INTER + INTRA:          -6.984
REMARK INTER:                  -6.426
REMARK INTRA:                  -0.558
REMARK CONF_INDEPENDENT:        0.895
REMARK UNBOUND:                -0.558
REMARK  3 active torsions:
REMARK  status: ('A' for Active; 'I' for Inactive)
REMARK       I    between atoms: C_2  and  N_3 
REMARK    1  A    between atoms: C_2  and  C_12 
REMARK    2  A    between atoms: N_3  and  N_4 
REMARK    3  A    between atoms: N_4  and  C_5 
ROOT
ATOM      1  O   UNL d   1      25.532 -16.276  -3.119  0.00  0.00    -0.278 OA
ATOM      2  C   UNL d   1      26.175 -15.763  -2.195  0.00  0.00     0.219 C 
ATOM      3  N   UNL d   1      25.958 -16.078  -0.853  0.00  0.00    -0.173 NA
ATOM      4  H   UNL d   1      26.691 -15.798  -0.233  0.00  0.00     0.155 HD
ENDROOT
BRANCH   3   5
ATOM      5  N   UNL d   1      25.541 -17.336  -0.436  0.00  0.00    -0.315 N 
ATOM      6  H   UNL d   1      26.218 -18.093  -0.521  0.00  0.00     0.181 HD
BRANCH   5   7
ATOM      7  C   UNL d   1      24.160 -17.629  -0.613  0.00  0.00     0.043 A 
ATOM      8  C   UNL d   1      23.142 -16.667  -0.822  0.00  0.00     0.033 A 
ATOM      9  C   UNL d   1      21.783 -17.029  -0.895  0.00  0.00     0.044 A 
ATOM     10  C   UNL d   1      21.424 -18.359  -0.752  0.00  0.00     0.116 A 
ATOM     11  F   UNL d   1      20.133 -18.716  -0.832  0.00  0.00    -0.206 F 
ATOM     12  C   UNL d   1      22.393 -19.325  -0.525  0.00  0.00     0.044 A 
ATOM     13  C   UNL d   1      23.746 -18.959  -0.454  0.00  0.00     0.033 A 
ENDBRANCH   5   7
ENDBRANCH   3   5
BRANCH   2  14
ATOM     14  C   UNL d   1      27.302 -14.697  -2.477  0.00  0.00     0.077 C 
ATOM     15  C   UNL d   1      28.116 -15.070  -3.727  0.00  0.00     0.040 C 
ATOM     16  C   UNL d   1      27.329 -14.792  -4.989  0.00  0.00    -0.030 C 
ATOM     17  C   UNL d   1      26.275 -13.943  -5.020  0.00  0.00    -0.031 C 
ATOM     18  C   UNL d   1      25.766 -13.194  -3.799  0.00  0.00     0.027 C 
ATOM     19  C   UNL d   1      26.767 -13.259  -2.650  0.00  0.00     0.018 C 
ENDBRANCH   2  14
TORSDOF 3
ENDMDL
MODEL 6
REMARK VINA RESULT:    -5.527      3.560      4.517
REMARK INTER + INTRA:          -7.157
REMARK INTER:                  -6.422
REMARK INTRA:                  -0.736
REMARK CONF_INDEPENDENT:        0.895
REMARK UNBOUND:                -0.736
REMARK  3 active torsions:
REMARK  status: ('A' for Active; 'I' for Inactive)
REMARK       I    between atoms: C_2  and  N_3 
REMARK    1  A    between atoms: C_2  and  C_12 
REMARK    2  A    between atoms: N_3  and  N_4 
REMARK    3  A    between atoms: N_4  and  C_5 
ROOT
ATOM      1  O   UNL d   1      26.188 -15.719  -5.030  0.00  0.00    -0.278 OA
ATOM      2  C   UNL d   1      25.684 -14.886  -4.266  0.00  0.00     0.219 C 
ATOM      3  N   UNL d   1      25.134 -15.227  -3.029  0.00  0.00    -0.173 NA
ATOM      4  H   UNL d   1      24.992 -14.458  -2.408  0.00  0.00     0.155 HD
ENDROOT
BRANCH   3   5
ATOM      5  N   UNL d   1      25.614 -16.280  -2.259  0.00  0.00    -0.315 N 
ATOM      6  H   UNL d   1      26.377 -16.827  -2.657  0.00  0.00     0.181 HD
BRANCH   5   7
ATOM      7  C   UNL d   1      24.660 -16.936  -1.431  0.00  0.00     0.043 A 
ATOM      8  C   UNL d   1      24.829 -18.214  -0.847  0.00  0.00     0.033 A 
ATOM      9  C   UNL d   1      23.800 -18.838  -0.116  0.00  0.00     0.044 A 
ATOM     10  C   UNL d   1      22.582 -18.193   0.032  0.00  0.00     0.116 A 
ATOM     11  F   UNL d   1      21.600 -18.773   0.737  0.00  0.00    -0.206 F 
ATOM     12  C   UNL d   1      22.375 -16.950  -0.546  0.00  0.00     0.044 A 
ATOM     13  C   UNL d   1      23.405 -16.332  -1.273  0.00  0.00     0.033 A 
ENDBRANCH   5   7
ENDBRANCH   3   5
BRANCH   2  14
ATOM     14  C   UNL d   1      25.628 -13.358  -4.645  0.00  0.00     0.077 C 
ATOM     15  C   UNL d   1      25.428 -12.485  -3.395  0.00  0.00     0.040 C 
ATOM     16  C   UNL d   1      26.705 -12.390  -2.590  0.00  0.00    -0.030 C 
ATOM     17  C   UNL d   1      27.922 -12.656  -3.118  0.00  0.00    -0.031 C 
ATOM     18  C   UNL d   1      28.135 -13.085  -4.562  0.00  0.00     0.027 C 
ATOM     19  C   UNL d   1      26.879 -12.858  -5.398  0.00  0.00     0.018 C 
ENDBRANCH   2  14
TORSDOF 3
ENDMDL
MODEL 7
REMARK VINA RESULT:    -5.499      4.273      5.827
REMARK INTER + INTRA:          -6.961
REMARK INTER:                  -6.394
REMARK INTRA:                  -0.567
REMARK CONF_INDEPENDENT:        0.895
REMARK UNBOUND:                -0.567
REMARK  3 active torsions:
REMARK  status: ('A' for Active; 'I' for Inactive)
REMARK       I    between atoms: C_2  and  N_3 
REMARK    1  A    between atoms: C_2  and  C_12 
REMARK    2  A    between atoms: N_3  and  N_4 
REMARK    3  A    between atoms: N_4  and  C_5 
ROOT
ATOM      1  O   UNL d   1      25.245 -15.198  -5.011  0.00  0.00    -0.278 OA
ATOM      2  C   UNL d   1      25.632 -14.486  -4.076  0.00  0.00     0.219 C 
ATOM      3  N   UNL d   1      24.881 -14.282  -2.917  0.00  0.00    -0.173 NA
ATOM      4  H   UNL d   1      25.395 -13.905  -2.148  0.00  0.00     0.155 HD
ENDROOT
BRANCH   3   5
ATOM      5  N   UNL d   1      24.030 -15.249  -2.395  0.00  0.00    -0.315 N 
ATOM      6  H   UNL d   1      23.078 -14.952  -2.182  0.00  0.00     0.181 HD
BRANCH   5   7
ATOM      7  C   UNL d   1      24.637 -16.242  -1.576  0.00  0.00     0.043 A 
ATOM      8  C   UNL d   1      23.954 -17.311  -0.948  0.00  0.00     0.033 A 
ATOM      9  C   UNL d   1      24.610 -18.200  -0.075  0.00  0.00     0.044 A 
ATOM     10  C   UNL d   1      25.959 -18.025   0.187  0.00  0.00     0.116 A 
ATOM     11  F   UNL d   1      26.596 -18.874   1.008  0.00  0.00    -0.206 F 
ATOM     12  C   UNL d   1      26.654 -16.976  -0.394  0.00  0.00     0.044 A 
ATOM     13  C   UNL d   1      25.996 -16.092  -1.264  0.00  0.00     0.033 A 
ENDBRANCH   5   7
ENDBRANCH   3   5
BRANCH   2  14
ATOM     14  C   UNL d   1      27.022 -13.746  -4.134  0.00  0.00     0.077 C 
ATOM     15  C   UNL d   1      27.277 -13.156  -5.530  0.00  0.00     0.040 C 
ATOM     16  C   UNL d   1      26.440 -11.916  -5.755  0.00  0.00    -0.030 C 
ATOM     17  C   UNL d   1      25.905 -11.202  -4.739  0.00  0.00    -0.031 C 
ATOM     18  C   UNL d   1      26.076 -11.571  -3.274  0.00  0.00     0.027 C 
ATOM     19  C   UNL d   1      27.170 -12.619  -3.090  0.00  0.00     0.018 C 
ENDBRANCH   2  14
TORSDOF 3
ENDMDL
MODEL 8
REMARK VINA RESULT:    -5.482      4.094      5.939
REMARK INTER + INTRA:          -7.018
REMARK INTER:                  -6.377
REMARK INTRA:                  -0.642
REMARK CONF_INDEPENDENT:        0.895
REMARK UNBOUND:                -0.642
REMARK  3 active torsions:
REMARK  status: ('A' for Active; 'I' for Inactive)
REMARK       I    between atoms: C_2  and  N_3 
REMARK    1  A    between atoms: C_2  and  C_12 
REMARK    2  A    between atoms: N_3  and  N_4 
REMARK    3  A    between atoms: N_4  and  C_5 
ROOT
ATOM      1  O   UNL d   1      27.283 -13.079   1.921  0.00  0.00    -0.278 OA
ATOM      2  C   UNL d   1      28.121 -13.942   2.208  0.00  0.00     0.219 C 
ATOM      3  N   UNL d   1      28.153 -15.199   1.602  0.00  0.00    -0.173 NA
ATOM      4  H   UNL d   1      29.007 -15.703   1.730  0.00  0.00     0.155 HD
ENDROOT
BRANCH   3   5
ATOM      5  N   UNL d   1      27.758 -15.408   0.286  0.00  0.00    -0.315 N 
ATOM      6  H   UNL d   1      27.851 -14.617  -0.350  0.00  0.00     0.181 HD
BRANCH   5   7
ATOM      7  C   UNL d   1      26.682 -16.319   0.093  0.00  0.00     0.043 A 
ATOM      8  C   UNL d   1      26.661 -17.663   0.537  0.00  0.00     0.033 A 
ATOM      9  C   UNL d   1      25.597 -18.532   0.224  0.00  0.00     0.044 A 
ATOM     10  C   UNL d   1      24.543 -18.068  -0.546  0.00  0.00     0.116 A 
ATOM     11  F   UNL d   1      23.520 -18.883  -0.840  0.00  0.00    -0.206 F 
ATOM     12  C   UNL d   1      24.542 -16.763  -1.016  0.00  0.00     0.044 A 
ATOM     13  C   UNL d   1      25.604 -15.901  -0.701  0.00  0.00     0.033 A 
ENDBRANCH   5   7
ENDBRANCH   3   5
BRANCH   2  14
ATOM     14  C   UNL d   1      29.226 -13.677   3.299  0.00  0.00     0.077 C 
ATOM     15  C   UNL d   1      28.972 -12.349   4.033  0.00  0.00     0.040 C 
ATOM     16  C   UNL d   1      27.826 -12.482   5.012  0.00  0.00    -0.030 C 
ATOM     17  C   UNL d   1      27.402 -13.677   5.481  0.00  0.00    -0.031 C 
ATOM     18  C   UNL d   1      28.017 -15.006   5.071  0.00  0.00     0.027 C 
ATOM     19  C   UNL d   1      29.346 -14.802   4.349  0.00  0.00     0.018 C 
ENDBRANCH   2  14
TORSDOF 3
ENDMDL
MODEL 9
REMARK VINA RESULT:    -5.411      4.206      7.119
REMARK INTER + INTRA:          -6.998
REMARK INTER:                  -6.306
REMARK INTRA:                  -0.692
REMARK CONF_INDEPENDENT:        0.895
REMARK UNBOUND:                -0.692
REMARK  3 active torsions:
REMARK  status: ('A' for Active; 'I' for Inactive)
REMARK       I    between atoms: C_2  and  N_3 
REMARK    1  A    between atoms: C_2  and  C_12 
REMARK    2  A    between atoms: N_3  and  N_4 
REMARK    3  A    between atoms: N_4  and  C_5 
ROOT
ATOM      1  O   UNL d   1      26.093 -18.393   1.355  0.00  0.00    -0.278 OA
ATOM      2  C   UNL d   1      25.939 -17.669   0.364  0.00  0.00     0.219 C 
ATOM      3  N   UNL d   1      26.428 -16.364   0.295  0.00  0.00    -0.173 NA
ATOM      4  H   UNL d   1      26.463 -15.978  -0.626  0.00  0.00     0.155 HD
ENDROOT
BRANCH   3   5
ATOM      5  N   UNL d   1      27.592 -15.963   0.941  0.00  0.00    -0.315 N 
ATOM      6  H   UNL d   1      28.162 -16.701   1.354  0.00  0.00     0.181 HD
BRANCH   5   7
ATOM      7  C   UNL d   1      27.548 -14.692   1.580  0.00  0.00     0.043 A 
ATOM      8  C   UNL d   1      27.879 -14.448   2.935  0.00  0.00     0.033 A 
ATOM      9  C   UNL d   1      27.719 -13.177   3.520  0.00  0.00     0.044 A 
ATOM     10  C   UNL d   1      27.218 -12.134   2.758  0.00  0.00     0.116 A 
ATOM     11  F   UNL d   1      27.074 -10.917   3.302  0.00  0.00    -0.206 F 
ATOM     12  C   UNL d   1      26.863 -12.344   1.434  0.00  0.00     0.044 A 
ATOM     13  C   UNL d   1      27.025 -13.612   0.855  0.00  0.00     0.033 A 
ENDBRANCH   5   7
ENDBRANCH   3   5
BRANCH   2  14
ATOM     14  C   UNL d   1      25.165 -18.181  -0.910  0.00  0.00     0.077 C 
ATOM     15  C   UNL d   1      23.831 -18.839  -0.519  0.00  0.00     0.040 C 
ATOM     16  C   UNL d   1      22.806 -17.796  -0.131  0.00  0.00    -0.030 C 
ATOM     17  C   UNL d   1      22.909 -16.498  -0.500  0.00  0.00    -0.031 C 
ATOM     18  C   UNL d   1      24.061 -15.951  -1.326  0.00  0.00     0.027 C 
ATOM     19  C   UNL d   1      24.881 -17.076  -1.950  0.00  0.00     0.018 C 
ENDBRANCH   2  14
TORSDOF 3
ENDMDL
