MODEL 1
REMARK VINA RESULT:    -9.765      0.000      0.000
REMARK INTER + INTRA:         -14.635
REMARK INTER:                 -11.853
REMARK INTRA:                  -2.781
REMARK CONF_INDEPENDENT:        2.088
REMARK UNBOUND:                -2.781
REMARK  7 active torsions:
REMARK  status: ('A' for Active; 'I' for Inactive)
REMARK    1  A    between atoms: C_2  and  C_3 
REMARK    2  A    between atoms: C_3  and  N_6 
REMARK    3  A    between atoms: C_10  and  C_11 
REMARK    4  A    between atoms: C_11  and  C_12 
REMARK    5  A    between atoms: C_11  and  N_26 
REMARK    6  A    between atoms: N_29  and  C_30 
REMARK    7  A    between atoms: C_35  and  O_36 
ROOT
ATOM      1  C   UNL d   1      26.848 -15.348  -0.707  0.00  0.00     0.299 C 
ENDROOT
BRANCH   1   2
ATOM      2  C   UNL d   1      26.561 -16.858  -0.378  0.00  0.00     0.184 A 
ATOM      3  N   UNL d   1      27.533 -17.632   0.093  0.00  0.00    -0.111 NA
ATOM      4  N   UNL d   1      27.036 -18.899   0.225  0.00  0.00    -0.023 NA
ATOM      5  N   UNL d   1      25.774 -18.947  -0.131  0.00  0.00    -0.043 NA
ATOM      6  N   UNL d   1      25.466 -17.718  -0.536  0.00  0.00    -0.223 N 
BRANCH   6   7
ATOM      7  C   UNL d   1      24.071 -17.499  -0.898  0.00  0.00     0.051 C 
ATOM      8  C   UNL d   1      23.967 -16.014  -1.459  0.00  0.00     0.040 C 
ATOM      9  C   UNL d   1      23.416 -17.849   0.362  0.00  0.00     0.040 C 
BRANCH   7  10
ATOM     10  C   UNL d   1      23.280 -18.635  -1.645  0.00  0.00     0.028 C 
ATOM     11  C   UNL d   1      21.907 -18.961  -1.027  0.00  0.00     0.007 C 
ENDBRANCH   7  10
ENDBRANCH   6   7
ENDBRANCH   1   2
BRANCH   1  12
ATOM     12  C   UNL d   1      27.135 -14.563   0.562  0.00  0.00     0.049 C 
ATOM     13  C   UNL d   1      27.562 -15.111   1.729  0.00  0.00     0.029 C 
ATOM     14  C   UNL d   1      27.819 -14.251   2.899  0.00  0.00    -0.006 C 
ATOM     15  C   UNL d   1      28.159 -14.648   4.210  0.00  0.00     0.053 C 
ATOM     16  C   UNL d   1      27.667 -12.876   2.683  0.00  0.00     0.048 C 
ATOM     17  C   UNL d   1      28.392 -13.606   5.116  0.00  0.00     0.105 C 
ATOM     18  C   UNL d   1      28.769 -12.391   4.628  0.00  0.00     0.107 C 
ATOM     19  O   UNL d   1      28.009 -13.361   6.435  0.00  0.00    -0.323 OA
ATOM     20  C   UNL d   1      28.167 -11.936   3.520  0.00  0.00     0.070 C 
ATOM     21  O   UNL d   1      29.132 -11.487   5.564  0.00  0.00    -0.323 OA
ATOM     22  C   UNL d   1      28.088 -11.873   6.442  0.00  0.00     0.352 C 
ATOM     23  N   UNL d   1      27.094 -12.355   1.551  0.00  0.00    -0.322 N 
ATOM     24  C   UNL d   1      26.996 -13.088   0.467  0.00  0.00     0.254 C 
ATOM     25  H   UNL d   1      27.011 -11.347   1.460  0.00  0.00     0.169 HD
ATOM     26  O   UNL d   1      26.722 -12.472  -0.606  0.00  0.00    -0.268 OA
ENDBRANCH   1  12
BRANCH   1  27
ATOM     27  N   UNL d   1      27.847 -14.789  -1.946  0.00  0.00    -0.052 N 
ATOM     28  C   UNL d   1      29.275 -15.375  -1.685  0.00  0.00     0.256 C 
ATOM     29  C   UNL d   1      30.322 -15.814  -2.809  0.00  0.00     0.150 C 
ATOM     30  N   UNL d   1      29.727 -16.578  -3.943  0.00  0.00    -0.375 N 
ATOM     31  C   UNL d   1      28.399 -15.544  -4.468  0.00  0.00     0.150 C 
ATOM     32  C   UNL d   1      27.213 -15.020  -3.340  0.00  0.00     0.256 C 
ATOM     33  H   UNL d   1      27.918 -13.773  -1.830  0.00  0.00     0.281 HD
BRANCH  30  34
ATOM     34  C   UNL d   1      30.480 -17.851  -4.553  0.00  0.00     0.064 C 
ATOM     35  C   UNL d   1      30.813 -19.181  -3.789  0.00  0.00     0.032 C 
ATOM     36  C   UNL d   1      30.853 -20.548  -4.315  0.00  0.00     0.002 C 
ATOM     37  C   UNL d   1      30.778 -20.730  -5.665  0.00  0.00     0.003 C 
ATOM     38  C   UNL d   1      30.628 -19.563  -6.442  0.00  0.00     0.039 C 
ATOM     39  C   UNL d   1      30.502 -18.169  -5.941  0.00  0.00     0.094 C 
BRANCH  39  40
ATOM     40  O   UNL d   1      30.434 -17.286  -6.992  0.00  0.00    -0.354 OA
ATOM     41  C   UNL d   1      31.390 -16.261  -6.942  0.00  0.00     0.210 C 
ENDBRANCH  39  40
ENDBRANCH  30  34
ENDBRANCH   1  27
TORSDOF 7
ENDMDL
MODEL 2
REMARK VINA RESULT:    -9.667      3.429      6.449
REMARK INTER + INTRA:         -15.400
REMARK INTER:                 -11.755
REMARK INTRA:                  -3.645
REMARK CONF_INDEPENDENT:        2.088
REMARK UNBOUND:                -3.645
REMARK  7 active torsions:
REMARK  status: ('A' for Active; 'I' for Inactive)
REMARK    1  A    between atoms: C_2  and  C_3 
REMARK    2  A    between atoms: C_3  and  N_6 
REMARK    3  A    between atoms: C_10  and  C_11 
REMARK    4  A    between atoms: C_11  and  C_12 
REMARK    5  A    between atoms: C_11  and  N_26 
REMARK    6  A    between atoms: N_29  and  C_30 
REMARK    7  A    between atoms: C_35  and  O_36 
ROOT
ATOM      1  C   UNL d   1      27.324 -15.997   0.451  0.00  0.00     0.299 C 
ENDROOT
BRANCH   1   2
ATOM      2  C   UNL d   1      27.094 -14.445   0.368  0.00  0.00     0.184 A 
ATOM      3  N   UNL d   1      27.070 -13.715   1.478  0.00  0.00    -0.111 NA
ATOM      4  N   UNL d   1      26.788 -12.424   1.130  0.00  0.00    -0.023 NA
ATOM      5  N   UNL d   1      26.650 -12.309  -0.171  0.00  0.00    -0.043 NA
ATOM      6  N   UNL d   1      26.801 -13.538  -0.660  0.00  0.00    -0.223 N 
BRANCH   6   7
ATOM      7  C   UNL d   1      26.781 -13.650  -2.113  0.00  0.00     0.051 C 
ATOM      8  C   UNL d   1      28.249 -14.068  -2.563  0.00  0.00     0.040 C 
ATOM      9  C   UNL d   1      26.258 -12.331  -2.470  0.00  0.00     0.040 C 
BRANCH   7  10
ATOM     10  C   UNL d   1      25.558 -14.345  -2.818  0.00  0.00     0.028 C 
ATOM     11  C   UNL d   1      25.890 -15.704  -3.464  0.00  0.00     0.007 C 
ENDBRANCH   7  10
ENDBRANCH   6   7
ENDBRANCH   1   2
BRANCH   1  12
ATOM     12  C   UNL d   1      26.046 -16.752   0.124  0.00  0.00     0.049 C 
ATOM     13  C   UNL d   1      24.900 -16.175  -0.319  0.00  0.00     0.029 C 
ATOM     14  C   UNL d   1      23.720 -17.007  -0.615  0.00  0.00    -0.006 C 
ATOM     15  C   UNL d   1      22.424 -16.579  -0.977  0.00  0.00     0.053 C 
ATOM     16  C   UNL d   1      23.905 -18.389  -0.479  0.00  0.00     0.048 C 
ATOM     17  C   UNL d   1      21.503 -17.600  -1.246  0.00  0.00     0.105 C 
ATOM     18  C   UNL d   1      21.976 -18.818  -1.631  0.00  0.00     0.107 C 
ATOM     19  O   UNL d   1      20.171 -17.824  -0.895  0.00  0.00    -0.323 OA
ATOM     20  C   UNL d   1      23.062 -19.304  -1.012  0.00  0.00     0.070 C 
ATOM     21  O   UNL d   1      21.030 -19.698  -2.027  0.00  0.00    -0.323 OA
ATOM     22  C   UNL d   1      20.137 -19.310  -0.997  0.00  0.00     0.352 C 
ATOM     23  N   UNL d   1      25.014 -18.940   0.110  0.00  0.00    -0.322 N 
ATOM     24  C   UNL d   1      26.110 -18.230   0.243  0.00  0.00     0.254 C 
ATOM     25  H   UNL d   1      25.084 -19.951   0.179  0.00  0.00     0.169 HD
ATOM     26  O   UNL d   1      27.165 -18.871   0.531  0.00  0.00    -0.268 OA
ENDBRANCH   1  12
BRANCH   1  27
ATOM     27  N   UNL d   1      28.642 -16.826  -0.196  0.00  0.00    -0.052 N 
ATOM     28  C   UNL d   1      28.329 -17.082  -1.708  0.00  0.00     0.256 C 
ATOM     29  C   UNL d   1      29.399 -17.098  -2.893  0.00  0.00     0.150 C 
ATOM     30  N   UNL d   1      30.411 -16.005  -2.827  0.00  0.00    -0.375 N 
ATOM     31  C   UNL d   1      31.049 -16.149  -1.189  0.00  0.00     0.150 C 
ATOM     32  C   UNL d   1      29.982 -16.136   0.158  0.00  0.00     0.256 C 
ATOM     33  H   UNL d   1      28.666 -17.744   0.260  0.00  0.00     0.281 HD
BRANCH  30  34
ATOM     34  C   UNL d   1      30.857 -15.223  -4.150  0.00  0.00     0.064 C 
ATOM     35  C   UNL d   1      32.333 -14.920  -4.590  0.00  0.00     0.032 C 
ATOM     36  C   UNL d   1      32.884 -14.853  -5.947  0.00  0.00     0.002 C 
ATOM     37  C   UNL d   1      32.019 -14.869  -7.003  0.00  0.00     0.003 C 
ATOM     38  C   UNL d   1      30.651 -14.990  -6.685  0.00  0.00     0.039 C 
ATOM     39  C   UNL d   1      30.062 -15.140  -5.328  0.00  0.00     0.094 C 
BRANCH  39  40
ATOM     40  O   UNL d   1      28.690 -15.166  -5.402  0.00  0.00    -0.354 OA
ATOM     41  C   UNL d   1      28.177 -14.822  -6.661  0.00  0.00     0.210 C 
ENDBRANCH  39  40
ENDBRANCH  30  34
ENDBRANCH   1  27
TORSDOF 7
ENDMDL
MODEL 3
REMARK VINA RESULT:    -9.599      2.076      3.326
REMARK INTER + INTRA:         -14.519
REMARK INTER:                 -11.687
REMARK INTRA:                  -2.832
REMARK CONF_INDEPENDENT:        2.088
REMARK UNBOUND:                -2.832
REMARK  7 active torsions:
REMARK  status: ('A' for Active; 'I' for Inactive)
REMARK    1  A    between atoms: C_2  and  C_3 
REMARK    2  A    between atoms: C_3  and  N_6 
REMARK    3  A    between atoms: C_10  and  C_11 
REMARK    4  A    between atoms: C_11  and  C_12 
REMARK    5  A    between atoms: C_11  and  N_26 
REMARK    6  A    between atoms: N_29  and  C_30 
REMARK    7  A    between atoms: C_35  and  O_36 
ROOT
ATOM      1  C   UNL d   1      28.670 -14.656  -2.208  0.00  0.00     0.299 C 
ENDROOT
BRANCH   1   2
ATOM      2  C   UNL d   1      27.260 -15.004  -2.811  0.00  0.00     0.184 A 
ATOM      3  N   UNL d   1      26.897 -14.501  -3.986  0.00  0.00    -0.111 NA
ATOM      4  N   UNL d   1      25.615 -14.901  -4.239  0.00  0.00    -0.023 NA
ATOM      5  N   UNL d   1      25.161 -15.659  -3.268  0.00  0.00    -0.043 NA
ATOM      6  N   UNL d   1      26.137 -15.712  -2.365  0.00  0.00    -0.223 N 
BRANCH   6   7
ATOM      7  C   UNL d   1      25.897 -16.583  -1.221  0.00  0.00     0.051 C 
ATOM      8  C   UNL d   1      24.608 -17.451  -1.564  0.00  0.00     0.040 C 
ATOM      9  C   UNL d   1      25.844 -15.594  -0.145  0.00  0.00     0.040 C 
BRANCH   7  10
ATOM     10  C   UNL d   1      27.114 -17.299  -0.527  0.00  0.00     0.028 C 
ATOM     11  C   UNL d   1      26.727 -18.176   0.679  0.00  0.00     0.007 C 
ENDBRANCH   7  10
ENDBRANCH   6   7
ENDBRANCH   1   2
BRANCH   1  12
ATOM     12  C   UNL d   1      28.555 -14.296  -0.736  0.00  0.00     0.049 C 
ATOM     13  C   UNL d   1      27.819 -13.264  -0.249  0.00  0.00     0.029 C 
ATOM     14  C   UNL d   1      27.773 -13.010   1.202  0.00  0.00    -0.006 C 
ATOM     15  C   UNL d   1      27.157 -11.934   1.876  0.00  0.00     0.053 C 
ATOM     16  C   UNL d   1      28.460 -13.934   2.000  0.00  0.00     0.048 C 
ATOM     17  C   UNL d   1      27.233 -11.972   3.274  0.00  0.00     0.105 C 
ATOM     18  C   UNL d   1      27.405 -13.178   3.884  0.00  0.00     0.107 C 
ATOM     19  O   UNL d   1      27.523 -11.026   4.258  0.00  0.00    -0.323 OA
ATOM     20  C   UNL d   1      28.260 -14.053   3.334  0.00  0.00     0.070 C 
ATOM     21  O   UNL d   1      27.306 -13.157   5.231  0.00  0.00    -0.323 OA
ATOM     22  C   UNL d   1      28.015 -11.934   5.333  0.00  0.00     0.352 C 
ATOM     23  N   UNL d   1      29.315 -14.875   1.486  0.00  0.00    -0.322 N 
ATOM     24  C   UNL d   1      29.254 -15.196   0.215  0.00  0.00     0.254 C 
ATOM     25  H   UNL d   1      29.785 -15.513   2.121  0.00  0.00     0.169 HD
ATOM     26  O   UNL d   1      29.865 -16.251  -0.130  0.00  0.00    -0.268 OA
ENDBRANCH   1  12
BRANCH   1  27
ATOM     27  N   UNL d   1      30.084 -15.540  -2.457  0.00  0.00    -0.052 N 
ATOM     28  C   UNL d   1      29.660 -17.019  -2.743  0.00  0.00     0.256 C 
ATOM     29  C   UNL d   1      30.404 -18.029  -3.731  0.00  0.00     0.150 C 
ATOM     30  N   UNL d   1      30.823 -17.427  -5.030  0.00  0.00    -0.375 N 
ATOM     31  C   UNL d   1      31.733 -16.000  -4.533  0.00  0.00     0.150 C 
ATOM     32  C   UNL d   1      31.021 -14.846  -3.477  0.00  0.00     0.256 C 
ATOM     33  H   UNL d   1      30.589 -15.544  -1.565  0.00  0.00     0.281 HD
BRANCH  30  34
ATOM     34  C   UNL d   1      30.642 -18.233  -6.400  0.00  0.00     0.064 C 
ATOM     35  C   UNL d   1      31.153 -17.779  -7.813  0.00  0.00     0.032 C 
ATOM     36  C   UNL d   1      31.643 -18.611  -8.915  0.00  0.00     0.002 C 
ATOM     37  C   UNL d   1      31.489 -19.965  -8.828  0.00  0.00     0.003 C 
ATOM     38  C   UNL d   1      30.896 -20.448  -7.644  0.00  0.00     0.039 C 
ATOM     39  C   UNL d   1      30.461 -19.643  -6.472  0.00  0.00     0.094 C 
BRANCH  39  40
ATOM     40  O   UNL d   1      29.869 -20.450  -5.530  0.00  0.00    -0.354 OA
ATOM     41  C   UNL d   1      30.778 -21.176  -4.746  0.00  0.00     0.210 C 
ENDBRANCH  39  40
ENDBRANCH  30  34
ENDBRANCH   1  27
TORSDOF 7
ENDMDL
MODEL 4
REMARK VINA RESULT:    -9.391      2.210      3.145
REMARK INTER + INTRA:         -14.228
REMARK INTER:                 -11.479
REMARK INTRA:                  -2.749
REMARK CONF_INDEPENDENT:        2.088
REMARK UNBOUND:                -2.749
REMARK  7 active torsions:
REMARK  status: ('A' for Active; 'I' for Inactive)
REMARK    1  A    between atoms: C_2  and  C_3 
REMARK    2  A    between atoms: C_3  and  N_6 
REMARK    3  A    between atoms: C_10  and  C_11 
REMARK    4  A    between atoms: C_11  and  C_12 
REMARK    5  A    between atoms: C_11  and  N_26 
REMARK    6  A    between atoms: N_29  and  C_30 
REMARK    7  A    between atoms: C_35  and  O_36 
ROOT
ATOM      1  C   UNL d   1      28.746 -15.399  -0.081  0.00  0.00     0.299 C 
ENDROOT
BRANCH   1   2
ATOM      2  C   UNL d   1      27.345 -16.084  -0.277  0.00  0.00     0.184 A 
ATOM      3  N   UNL d   1      26.996 -17.113   0.488  0.00  0.00    -0.111 NA
ATOM      4  N   UNL d   1      25.773 -17.555   0.066  0.00  0.00    -0.023 NA
ATOM      5  N   UNL d   1      25.328 -16.826  -0.931  0.00  0.00    -0.043 NA
ATOM      6  N   UNL d   1      26.286 -15.937  -1.182  0.00  0.00    -0.223 N 
BRANCH   6   7
ATOM      7  C   UNL d   1      25.978 -14.944  -2.203  0.00  0.00     0.051 C 
ATOM      8  C   UNL d   1      26.461 -13.537  -1.639  0.00  0.00     0.040 C 
ATOM      9  C   UNL d   1      24.551 -15.200  -2.395  0.00  0.00     0.040 C 
BRANCH   7  10
ATOM     10  C   UNL d   1      26.258 -15.277  -3.715  0.00  0.00     0.028 C 
ATOM     11  C   UNL d   1      27.745 -15.200  -4.114  0.00  0.00     0.007 C 
ENDBRANCH   7  10
ENDBRANCH   6   7
ENDBRANCH   1   2
BRANCH   1  12
ATOM     12  C   UNL d   1      28.900 -14.875   1.337  0.00  0.00     0.049 C 
ATOM     13  C   UNL d   1      27.900 -14.823   2.254  0.00  0.00     0.029 C 
ATOM     14  C   UNL d   1      28.164 -14.303   3.607  0.00  0.00    -0.006 C 
ATOM     15  C   UNL d   1      27.237 -14.075   4.646  0.00  0.00     0.053 C 
ATOM     16  C   UNL d   1      29.495 -13.957   3.872  0.00  0.00     0.048 C 
ATOM     17  C   UNL d   1      27.780 -13.614   5.852  0.00  0.00     0.105 C 
ATOM     18  C   UNL d   1      29.088 -13.884   6.122  0.00  0.00     0.107 C 
ATOM     19  O   UNL d   1      27.422 -12.617   6.761  0.00  0.00    -0.323 OA
ATOM     20  C   UNL d   1      29.978 -13.780   5.125  0.00  0.00     0.070 C 
ATOM     21  O   UNL d   1      29.494 -13.552   7.367  0.00  0.00    -0.323 OA
ATOM     22  C   UNL d   1      28.759 -12.340   7.359  0.00  0.00     0.352 C 
ATOM     23  N   UNL d   1      30.455 -13.873   2.897  0.00  0.00    -0.322 N 
ATOM     24  C   UNL d   1      30.268 -14.461   1.738  0.00  0.00     0.254 C 
ATOM     25  H   UNL d   1      31.401 -13.613   3.157  0.00  0.00     0.169 HD
ATOM     26  O   UNL d   1      31.289 -14.584   0.997  0.00  0.00    -0.268 OA
ENDBRANCH   1  12
BRANCH   1  27
ATOM     27  N   UNL d   1      30.222 -16.024  -0.607  0.00  0.00    -0.052 N 
ATOM     28  C   UNL d   1      30.011 -17.555  -0.855  0.00  0.00     0.256 C 
ATOM     29  C   UNL d   1      30.725 -18.423  -1.991  0.00  0.00     0.150 C 
ATOM     30  N   UNL d   1      30.790 -17.761  -3.325  0.00  0.00    -0.375 N 
ATOM     31  C   UNL d   1      31.517 -16.196  -2.959  0.00  0.00     0.150 C 
ATOM     32  C   UNL d   1      30.824 -15.181  -1.758  0.00  0.00     0.256 C 
ATOM     33  H   UNL d   1      30.875 -15.939   0.179  0.00  0.00     0.281 HD
BRANCH  30  34
ATOM     34  C   UNL d   1      30.502 -18.589  -4.663  0.00  0.00     0.064 C 
ATOM     35  C   UNL d   1      30.405 -17.997  -6.113  0.00  0.00     0.032 C 
ATOM     36  C   UNL d   1      30.805 -18.616  -7.380  0.00  0.00     0.002 C 
ATOM     37  C   UNL d   1      31.142 -19.939  -7.380  0.00  0.00     0.003 C 
ATOM     38  C   UNL d   1      31.110 -20.590  -6.129  0.00  0.00     0.039 C 
ATOM     39  C   UNL d   1      30.788 -19.976  -4.814  0.00  0.00     0.094 C 
BRANCH  39  40
ATOM     40  O   UNL d   1      30.795 -20.931  -3.826  0.00  0.00    -0.354 OA
ATOM     41  C   UNL d   1      31.148 -22.213  -4.270  0.00  0.00     0.210 C 
ENDBRANCH  39  40
ENDBRANCH  30  34
ENDBRANCH   1  27
TORSDOF 7
ENDMDL
MODEL 5
REMARK VINA RESULT:    -8.974      2.123      9.217
REMARK INTER + INTRA:         -14.351
REMARK INTER:                 -11.063
REMARK INTRA:                  -3.289
REMARK CONF_INDEPENDENT:        2.088
REMARK UNBOUND:                -3.289
REMARK  7 active torsions:
REMARK  status: ('A' for Active; 'I' for Inactive)
REMARK    1  A    between atoms: C_2  and  C_3 
REMARK    2  A    between atoms: C_3  and  N_6 
REMARK    3  A    between atoms: C_10  and  C_11 
REMARK    4  A    between atoms: C_11  and  C_12 
REMARK    5  A    between atoms: C_11  and  N_26 
REMARK    6  A    between atoms: N_29  and  C_30 
REMARK    7  A    between atoms: C_35  and  O_36 
ROOT
ATOM      1  C   UNL d   1      28.677 -15.769  -2.638  0.00  0.00     0.299 C 
ENDROOT
BRANCH   1   2
ATOM      2  C   UNL d   1      27.177 -15.533  -3.042  0.00  0.00     0.184 A 
ATOM      3  N   UNL d   1      26.884 -14.976  -4.212  0.00  0.00    -0.111 NA
ATOM      4  N   UNL d   1      25.527 -14.825  -4.280  0.00  0.00    -0.023 NA
ATOM      5  N   UNL d   1      24.949 -15.288  -3.195  0.00  0.00    -0.043 NA
ATOM      6  N   UNL d   1      25.939 -15.697  -2.406  0.00  0.00    -0.223 N 
BRANCH   6   7
ATOM      7  C   UNL d   1      25.535 -16.344  -1.164  0.00  0.00     0.051 C 
ATOM      8  C   UNL d   1      23.970 -16.608  -1.270  0.00  0.00     0.040 C 
ATOM      9  C   UNL d   1      26.046 -15.380  -0.190  0.00  0.00     0.040 C 
BRANCH   7  10
ATOM     10  C   UNL d   1      26.442 -17.473  -0.550  0.00  0.00     0.028 C 
ATOM     11  C   UNL d   1      27.345 -17.000   0.605  0.00  0.00     0.007 C 
ENDBRANCH   7  10
ENDBRANCH   6   7
ENDBRANCH   1   2
BRANCH   1  12
ATOM     12  C   UNL d   1      29.503 -16.192  -3.841  0.00  0.00     0.049 C 
ATOM     13  C   UNL d   1      29.655 -17.475  -4.260  0.00  0.00     0.029 C 
ATOM     14  C   UNL d   1      30.474 -17.771  -5.449  0.00  0.00    -0.006 C 
ATOM     15  C   UNL d   1      30.830 -19.036  -5.965  0.00  0.00     0.053 C 
ATOM     16  C   UNL d   1      30.990 -16.657  -6.121  0.00  0.00     0.048 C 
ATOM     17  C   UNL d   1      31.585 -19.018  -7.144  0.00  0.00     0.105 C 
ATOM     18  C   UNL d   1      31.501 -17.926  -7.954  0.00  0.00     0.107 C 
ATOM     19  O   UNL d   1      32.715 -19.708  -7.585  0.00  0.00    -0.323 OA
ATOM     20  C   UNL d   1      31.473 -16.712  -7.385  0.00  0.00     0.070 C 
ATOM     21  O   UNL d   1      32.127 -18.049  -9.145  0.00  0.00    -0.323 OA
ATOM     22  C   UNL d   1      33.236 -18.721  -8.572  0.00  0.00     0.352 C 
ATOM     23  N   UNL d   1      30.953 -15.388  -5.602  0.00  0.00    -0.322 N 
ATOM     24  C   UNL d   1      30.117 -15.097  -4.632  0.00  0.00     0.254 C 
ATOM     25  H   UNL d   1      31.349 -14.623  -6.141  0.00  0.00     0.169 HD
ATOM     26  O   UNL d   1      29.935 -13.866  -4.395  0.00  0.00    -0.268 OA
ENDBRANCH   1  12
BRANCH   1  27
ATOM     27  N   UNL d   1      29.599 -14.748  -1.661  0.00  0.00    -0.052 N 
ATOM     28  C   UNL d   1      28.636 -13.642  -1.113  0.00  0.00     0.256 C 
ATOM     29  C   UNL d   1      28.729 -12.953   0.325  0.00  0.00     0.150 C 
ATOM     30  N   UNL d   1      29.006 -13.898   1.445  0.00  0.00    -0.375 N 
ATOM     31  C   UNL d   1      30.441 -14.762   0.894  0.00  0.00     0.150 C 
ATOM     32  C   UNL d   1      30.444 -15.544  -0.637  0.00  0.00     0.256 C 
ATOM     33  H   UNL d   1      30.269 -14.277  -2.278  0.00  0.00     0.281 HD
BRANCH  30  34
ATOM     34  C   UNL d   1      28.237 -13.757   2.841  0.00  0.00     0.064 C 
ATOM     35  C   UNL d   1      28.208 -14.825   3.991  0.00  0.00     0.032 C 
ATOM     36  C   UNL d   1      28.155 -14.603   5.439  0.00  0.00     0.002 C 
ATOM     37  C   UNL d   1      27.917 -13.340   5.897  0.00  0.00     0.003 C 
ATOM     38  C   UNL d   1      27.780 -12.338   4.914  0.00  0.00     0.039 C 
ATOM     39  C   UNL d   1      27.907 -12.510   3.443  0.00  0.00     0.094 C 
BRANCH  39  40
ATOM     40  O   UNL d   1      27.648 -11.324   2.798  0.00  0.00    -0.354 OA
ATOM     41  C   UNL d   1      27.475 -10.230   3.658  0.00  0.00     0.210 C 
ENDBRANCH  39  40
ENDBRANCH  30  34
ENDBRANCH   1  27
TORSDOF 7
ENDMDL
MODEL 6
REMARK VINA RESULT:    -8.876      3.256      6.091
REMARK INTER + INTRA:         -14.499
REMARK INTER:                 -10.964
REMARK INTRA:                  -3.535
REMARK CONF_INDEPENDENT:        2.088
REMARK UNBOUND:                -3.535
REMARK  7 active torsions:
REMARK  status: ('A' for Active; 'I' for Inactive)
REMARK    1  A    between atoms: C_2  and  C_3 
REMARK    2  A    between atoms: C_3  and  N_6 
REMARK    3  A    between atoms: C_10  and  C_11 
REMARK    4  A    between atoms: C_11  and  C_12 
REMARK    5  A    between atoms: C_11  and  N_26 
REMARK    6  A    between atoms: N_29  and  C_30 
REMARK    7  A    between atoms: C_35  and  O_36 
ROOT
ATOM      1  C   UNL d   1      28.276 -14.636  -1.023  0.00  0.00     0.299 C 
ENDROOT
BRANCH   1   2
ATOM      2  C   UNL d   1      27.816 -13.360  -1.816  0.00  0.00     0.184 A 
ATOM      3  N   UNL d   1      27.414 -12.277  -1.159  0.00  0.00    -0.111 NA
ATOM      4  N   UNL d   1      27.009 -11.350  -2.079  0.00  0.00    -0.023 NA
ATOM      5  N   UNL d   1      27.160 -11.807  -3.301  0.00  0.00    -0.043 NA
ATOM      6  N   UNL d   1      27.622 -13.047  -3.168  0.00  0.00    -0.223 N 
BRANCH   6   7
ATOM      7  C   UNL d   1      27.959 -13.735  -4.408  0.00  0.00     0.051 C 
ATOM      8  C   UNL d   1      29.489 -13.420  -4.710  0.00  0.00     0.040 C 
ATOM      9  C   UNL d   1      26.920 -13.206  -5.291  0.00  0.00     0.040 C 
BRANCH   7  10
ATOM     10  C   UNL d   1      27.440 -15.201  -4.645  0.00  0.00     0.028 C 
ATOM     11  C   UNL d   1      25.905 -15.327  -4.695  0.00  0.00     0.007 C 
ENDBRANCH   7  10
ENDBRANCH   6   7
ENDBRANCH   1   2
BRANCH   1  12
ATOM     12  C   UNL d   1      27.104 -15.571  -0.775  0.00  0.00     0.049 C 
ATOM     13  C   UNL d   1      25.882 -15.447  -1.353  0.00  0.00     0.029 C 
ATOM     14  C   UNL d   1      24.818 -16.420  -1.046  0.00  0.00    -0.006 C 
ATOM     15  C   UNL d   1      23.469 -16.392  -1.463  0.00  0.00     0.053 C 
ATOM     16  C   UNL d   1      25.188 -17.477  -0.206  0.00  0.00     0.048 C 
ATOM     17  C   UNL d   1      22.687 -17.480  -1.055  0.00  0.00     0.105 C 
ATOM     18  C   UNL d   1      23.310 -18.656  -0.765  0.00  0.00     0.107 C 
ATOM     19  O   UNL d   1      21.405 -17.609  -0.520  0.00  0.00    -0.323 OA
ATOM     20  C   UNL d   1      24.464 -18.614  -0.084  0.00  0.00     0.070 C 
ATOM     21  O   UNL d   1      22.482 -19.700  -0.539  0.00  0.00    -0.323 OA
ATOM     22  C   UNL d   1      21.568 -18.905   0.197  0.00  0.00     0.352 C 
ATOM     23  N   UNL d   1      26.373 -17.504   0.484  0.00  0.00    -0.322 N 
ATOM     24  C   UNL d   1      27.368 -16.730   0.114  0.00  0.00     0.254 C 
ATOM     25  H   UNL d   1      26.579 -18.300   1.079  0.00  0.00     0.169 HD
ATOM     26  O   UNL d   1      28.504 -17.001   0.605  0.00  0.00    -0.268 OA
ENDBRANCH   1  12
BRANCH   1  27
ATOM     27  N   UNL d   1      29.656 -15.547  -1.353  0.00  0.00    -0.052 N 
ATOM     28  C   UNL d   1      29.223 -16.711  -2.305  0.00  0.00     0.256 C 
ATOM     29  C   UNL d   1      30.115 -17.345  -3.469  0.00  0.00     0.150 C 
ATOM     30  N   UNL d   1      30.856 -16.347  -4.293  0.00  0.00    -0.375 N 
ATOM     31  C   UNL d   1      31.708 -15.385  -3.085  0.00  0.00     0.150 C 
ATOM     32  C   UNL d   1      30.841 -14.653  -1.794  0.00  0.00     0.256 C 
ATOM     33  H   UNL d   1      29.941 -15.980  -0.468  0.00  0.00     0.281 HD
BRANCH  30  34
ATOM     34  C   UNL d   1      30.947 -16.507  -5.882  0.00  0.00     0.064 C 
ATOM     35  C   UNL d   1      31.650 -15.511  -6.871  0.00  0.00     0.032 C 
ATOM     36  C   UNL d   1      32.362 -15.814  -8.117  0.00  0.00     0.002 C 
ATOM     37  C   UNL d   1      32.280 -17.079  -8.623  0.00  0.00     0.003 C 
ATOM     38  C   UNL d   1      31.535 -18.006  -7.864  0.00  0.00     0.039 C 
ATOM     39  C   UNL d   1      30.868 -17.757  -6.559  0.00  0.00     0.094 C 
BRANCH  39  40
ATOM     40  O   UNL d   1      30.184 -18.876  -6.150  0.00  0.00    -0.354 OA
ATOM     41  C   UNL d   1      30.674 -20.076  -6.688  0.00  0.00     0.210 C 
ENDBRANCH  39  40
ENDBRANCH  30  34
ENDBRANCH   1  27
TORSDOF 7
ENDMDL
MODEL 7
REMARK VINA RESULT:    -8.641      3.061      5.984
REMARK INTER + INTRA:         -14.177
REMARK INTER:                 -10.729
REMARK INTRA:                  -3.448
REMARK CONF_INDEPENDENT:        2.088
REMARK UNBOUND:                -3.448
REMARK  7 active torsions:
REMARK  status: ('A' for Active; 'I' for Inactive)
REMARK    1  A    between atoms: C_2  and  C_3 
REMARK    2  A    between atoms: C_3  and  N_6 
REMARK    3  A    between atoms: C_10  and  C_11 
REMARK    4  A    between atoms: C_11  and  C_12 
REMARK    5  A    between atoms: C_11  and  N_26 
REMARK    6  A    between atoms: N_29  and  C_30 
REMARK    7  A    between atoms: C_35  and  O_36 
ROOT
ATOM      1  C   UNL d   1      29.071 -13.299   2.709  0.00  0.00     0.299 C 
ENDROOT
BRANCH   1   2
ATOM      2  C   UNL d   1      28.069 -12.116   2.452  0.00  0.00     0.184 A 
ATOM      3  N   UNL d   1      27.407 -11.573   3.468  0.00  0.00    -0.111 NA
ATOM      4  N   UNL d   1      26.562 -10.624   2.964  0.00  0.00    -0.023 NA
ATOM      5  N   UNL d   1      26.683 -10.536   1.659  0.00  0.00    -0.043 NA
ATOM      6  N   UNL d   1      27.576 -11.461   1.316  0.00  0.00    -0.223 N 
BRANCH   6   7
ATOM      7  C   UNL d   1      27.948 -11.491  -0.093  0.00  0.00     0.051 C 
ATOM      8  C   UNL d   1      29.517 -11.750  -0.149  0.00  0.00     0.040 C 
ATOM      9  C   UNL d   1      27.406 -10.207  -0.534  0.00  0.00     0.040 C 
BRANCH   7  10
ATOM     10  C   UNL d   1      27.030 -12.252  -1.119  0.00  0.00     0.028 C 
ATOM     11  C   UNL d   1      27.138 -11.736  -2.567  0.00  0.00     0.007 C 
ENDBRANCH   7  10
ENDBRANCH   6   7
ENDBRANCH   1   2
BRANCH   1  12
ATOM     12  C   UNL d   1      29.360 -13.452   4.193  0.00  0.00     0.049 C 
ATOM     13  C   UNL d   1      30.165 -12.628   4.912  0.00  0.00     0.029 C 
ATOM     14  C   UNL d   1      30.367 -12.866   6.352  0.00  0.00    -0.006 C 
ATOM     15  C   UNL d   1      31.241 -12.188   7.230  0.00  0.00     0.053 C 
ATOM     16  C   UNL d   1      29.628 -13.921   6.901  0.00  0.00     0.048 C 
ATOM     17  C   UNL d   1      31.193 -12.598   8.568  0.00  0.00     0.105 C 
ATOM     18  C   UNL d   1      30.055 -13.192   9.026  0.00  0.00     0.107 C 
ATOM     19  O   UNL d   1      32.160 -12.879   9.534  0.00  0.00    -0.323 OA
ATOM     20  C   UNL d   1      29.434 -14.076   8.232  0.00  0.00     0.070 C 
ATOM     21  O   UNL d   1      30.022 -13.411  10.359  0.00  0.00    -0.323 OA
ATOM     22  C   UNL d   1      31.381 -13.811  10.397  0.00  0.00     0.352 C 
ATOM     23  N   UNL d   1      28.942 -14.830   6.137  0.00  0.00    -0.322 N 
ATOM     24  C   UNL d   1      28.643 -14.549   4.889  0.00  0.00     0.254 C 
ATOM     25  H   UNL d   1      28.428 -15.574   6.599  0.00  0.00     0.169 HD
ATOM     26  O   UNL d   1      27.782 -15.295   4.335  0.00  0.00    -0.268 OA
ENDBRANCH   1  12
BRANCH   1  27
ATOM     27  N   UNL d   1      28.984 -14.825   1.997  0.00  0.00    -0.052 N 
ATOM     28  C   UNL d   1      27.481 -15.086   1.647  0.00  0.00     0.256 C 
ATOM     29  C   UNL d   1      26.945 -15.902   0.384  0.00  0.00     0.150 C 
ATOM     30  N   UNL d   1      27.653 -15.600  -0.893  0.00  0.00    -0.375 N 
ATOM     31  C   UNL d   1      29.351 -15.828  -0.473  0.00  0.00     0.150 C 
ATOM     32  C   UNL d   1      30.029 -14.991   0.866  0.00  0.00     0.256 C 
ATOM     33  H   UNL d   1      29.241 -15.503   2.723  0.00  0.00     0.281 HD
BRANCH  30  34
ATOM     34  C   UNL d   1      26.839 -15.438  -2.260  0.00  0.00     0.064 C 
ATOM     35  C   UNL d   1      25.375 -14.888  -2.404  0.00  0.00     0.032 C 
ATOM     36  C   UNL d   1      24.801 -14.101  -3.499  0.00  0.00     0.002 C 
ATOM     37  C   UNL d   1      25.527 -13.951  -4.645  0.00  0.00     0.003 C 
ATOM     38  C   UNL d   1      26.805 -14.548  -4.654  0.00  0.00     0.039 C 
ATOM     39  C   UNL d   1      27.452 -15.284  -3.536  0.00  0.00     0.094 C 
BRANCH  39  40
ATOM     40  O   UNL d   1      28.672 -15.778  -3.931  0.00  0.00    -0.354 OA
ATOM     41  C   UNL d   1      28.996 -15.503  -5.267  0.00  0.00     0.210 C 
ENDBRANCH  39  40
ENDBRANCH  30  34
ENDBRANCH   1  27
TORSDOF 7
ENDMDL
MODEL 8
REMARK VINA RESULT:    -8.506      2.426      4.059
REMARK INTER + INTRA:         -14.117
REMARK INTER:                 -10.594
REMARK INTRA:                  -3.522
REMARK CONF_INDEPENDENT:        2.088
REMARK UNBOUND:                -3.522
REMARK  7 active torsions:
REMARK  status: ('A' for Active; 'I' for Inactive)
REMARK    1  A    between atoms: C_2  and  C_3 
REMARK    2  A    between atoms: C_3  and  N_6 
REMARK    3  A    between atoms: C_10  and  C_11 
REMARK    4  A    between atoms: C_11  and  C_12 
REMARK    5  A    between atoms: C_11  and  N_26 
REMARK    6  A    between atoms: N_29  and  C_30 
REMARK    7  A    between atoms: C_35  and  O_36 
ROOT
ATOM      1  C   UNL d   1      27.978 -14.235   0.727  0.00  0.00     0.299 C 
ENDROOT
BRANCH   1   2
ATOM      2  C   UNL d   1      27.228 -15.598   0.503  0.00  0.00     0.184 A 
ATOM      3  N   UNL d   1      27.405 -16.602   1.355  0.00  0.00    -0.111 NA
ATOM      4  N   UNL d   1      26.699 -17.677   0.893  0.00  0.00    -0.023 NA
ATOM      5  N   UNL d   1      26.064 -17.379  -0.217  0.00  0.00    -0.043 NA
ATOM      6  N   UNL d   1      26.397 -16.121  -0.496  0.00  0.00    -0.223 N 
BRANCH   6   7
ATOM      7  C   UNL d   1      25.732 -15.530  -1.651  0.00  0.00     0.051 C 
ATOM      8  C   UNL d   1      24.230 -16.054  -1.637  0.00  0.00     0.040 C 
ATOM      9  C   UNL d   1      26.640 -15.950  -2.718  0.00  0.00     0.040 C 
BRANCH   7  10
ATOM     10  C   UNL d   1      25.991 -14.018  -2.001  0.00  0.00     0.028 C 
ATOM     11  C   UNL d   1      25.418 -13.577  -3.362  0.00  0.00     0.007 C 
ENDBRANCH   7  10
ENDBRANCH   6   7
ENDBRANCH   1   2
BRANCH   1  12
ATOM     12  C   UNL d   1      28.405 -14.083   2.178  0.00  0.00     0.049 C 
ATOM     13  C   UNL d   1      27.578 -13.720   3.192  0.00  0.00     0.029 C 
ATOM     14  C   UNL d   1      28.098 -13.612   4.566  0.00  0.00    -0.006 C 
ATOM     15  C   UNL d   1      27.423 -13.150   5.717  0.00  0.00     0.053 C 
ATOM     16  C   UNL d   1      29.439 -13.978   4.736  0.00  0.00     0.048 C 
ATOM     17  C   UNL d   1      28.155 -13.201   6.909  0.00  0.00     0.105 C 
ATOM     18  C   UNL d   1      29.182 -14.091   7.006  0.00  0.00     0.107 C 
ATOM     19  O   UNL d   1      28.345 -12.316   7.972  0.00  0.00    -0.323 OA
ATOM     20  C   UNL d   1      29.984 -14.255   5.944  0.00  0.00     0.070 C 
ATOM     21  O   UNL d   1      29.733 -14.196   8.235  0.00  0.00    -0.323 OA
ATOM     22  C   UNL d   1      29.668 -12.798   8.460  0.00  0.00     0.352 C 
ATOM     23  N   UNL d   1      30.293 -14.196   3.685  0.00  0.00    -0.322 N 
ATOM     24  C   UNL d   1      29.815 -14.430   2.485  0.00  0.00     0.254 C 
ATOM     25  H   UNL d   1      31.256 -14.455   3.878  0.00  0.00     0.169 HD
ATOM     26  O   UNL d   1      30.631 -14.893   1.634  0.00  0.00    -0.268 OA
ENDBRANCH   1  12
BRANCH   1  27
ATOM     27  N   UNL d   1      29.178 -13.603  -0.276  0.00  0.00    -0.052 N 
ATOM     28  C   UNL d   1      29.384 -14.622  -1.446  0.00  0.00     0.256 C 
ATOM     29  C   UNL d   1      29.754 -14.248  -2.954  0.00  0.00     0.150 C 
ATOM     30  N   UNL d   1      29.003 -13.084  -3.504  0.00  0.00    -0.375 N 
ATOM     31  C   UNL d   1      29.270 -11.828  -2.295  0.00  0.00     0.150 C 
ATOM     32  C   UNL d   1      28.898 -12.125  -0.644  0.00  0.00     0.256 C 
ATOM     33  H   UNL d   1      30.047 -13.601   0.270  0.00  0.00     0.281 HD
BRANCH  30  34
ATOM     34  C   UNL d   1      28.433 -13.112  -4.999  0.00  0.00     0.064 C 
ATOM     35  C   UNL d   1      28.266 -11.872  -5.947  0.00  0.00     0.032 C 
ATOM     36  C   UNL d   1      28.413 -11.813  -7.405  0.00  0.00     0.002 C 
ATOM     37  C   UNL d   1      28.530 -12.984  -8.096  0.00  0.00     0.003 C 
ATOM     38  C   UNL d   1      28.537 -14.164  -7.323  0.00  0.00     0.039 C 
ATOM     39  C   UNL d   1      28.472 -14.259  -5.841  0.00  0.00     0.094 C 
BRANCH  39  40
ATOM     40  O   UNL d   1      28.439 -15.575  -5.446  0.00  0.00    -0.354 OA
ATOM     41  C   UNL d   1      29.655 -16.253  -5.612  0.00  0.00     0.210 C 
ENDBRANCH  39  40
ENDBRANCH  30  34
ENDBRANCH   1  27
TORSDOF 7
ENDMDL
MODEL 9
REMARK VINA RESULT:    -8.433      3.607      6.475
REMARK INTER + INTRA:         -14.309
REMARK INTER:                 -10.521
REMARK INTRA:                  -3.788
REMARK CONF_INDEPENDENT:        2.088
REMARK UNBOUND:                -3.788
REMARK  7 active torsions:
REMARK  status: ('A' for Active; 'I' for Inactive)
REMARK    1  A    between atoms: C_2  and  C_3 
REMARK    2  A    between atoms: C_3  and  N_6 
REMARK    3  A    between atoms: C_10  and  C_11 
REMARK    4  A    between atoms: C_11  and  C_12 
REMARK    5  A    between atoms: C_11  and  N_26 
REMARK    6  A    between atoms: N_29  and  C_30 
REMARK    7  A    between atoms: C_35  and  O_36 
ROOT
ATOM      1  C   UNL d   1      28.318 -14.810  -0.937  0.00  0.00     0.299 C 
ENDROOT
BRANCH   1   2
ATOM      2  C   UNL d   1      27.836 -13.320  -1.070  0.00  0.00     0.184 A 
ATOM      3  N   UNL d   1      27.826 -12.527  -0.004  0.00  0.00    -0.111 NA
ATOM      4  N   UNL d   1      27.304 -11.321  -0.380  0.00  0.00    -0.023 NA
ATOM      5  N   UNL d   1      27.000 -11.320  -1.658  0.00  0.00    -0.043 NA
ATOM      6  N   UNL d   1      27.285 -12.542  -2.097  0.00  0.00    -0.223 N 
BRANCH   6   7
ATOM      7  C   UNL d   1      27.115 -12.758  -3.529  0.00  0.00     0.051 C 
ATOM      8  C   UNL d   1      28.428 -12.205  -4.238  0.00  0.00     0.040 C 
ATOM      9  C   UNL d   1      25.834 -12.085  -3.744  0.00  0.00     0.040 C 
BRANCH   7  10
ATOM     10  C   UNL d   1      26.508 -14.116  -4.039  0.00  0.00     0.028 C 
ATOM     11  C   UNL d   1      24.985 -14.082  -4.269  0.00  0.00     0.007 C 
ENDBRANCH   7  10
ENDBRANCH   6   7
ENDBRANCH   1   2
BRANCH   1  12
ATOM     12  C   UNL d   1      27.134 -15.750  -0.774  0.00  0.00     0.049 C 
ATOM     13  C   UNL d   1      25.857 -15.450  -1.123  0.00  0.00     0.029 C 
ATOM     14  C   UNL d   1      24.785 -16.443  -0.929  0.00  0.00    -0.006 C 
ATOM     15  C   UNL d   1      23.398 -16.275  -1.130  0.00  0.00     0.053 C 
ATOM     16  C   UNL d   1      25.198 -17.692  -0.447  0.00  0.00     0.048 C 
ATOM     17  C   UNL d   1      22.612 -17.413  -0.908  0.00  0.00     0.105 C 
ATOM     18  C   UNL d   1      23.196 -18.639  -1.019  0.00  0.00     0.107 C 
ATOM     19  O   UNL d   1      21.405 -17.647  -0.249  0.00  0.00    -0.323 OA
ATOM     20  C   UNL d   1      24.429 -18.804  -0.518  0.00  0.00     0.070 C 
ATOM     21  O   UNL d   1      22.344 -19.685  -0.952  0.00  0.00    -0.323 OA
ATOM     22  C   UNL d   1      21.582 -19.088   0.083  0.00  0.00     0.352 C 
ATOM     23  N   UNL d   1      26.459 -17.926   0.039  0.00  0.00    -0.322 N 
ATOM     24  C   UNL d   1      27.441 -17.106  -0.257  0.00  0.00     0.254 C 
ATOM     25  H   UNL d   1      26.693 -18.855   0.376  0.00  0.00     0.169 HD
ATOM     26  O   UNL d   1      28.614 -17.523  -0.016  0.00  0.00    -0.268 OA
ENDBRANCH   1  12
BRANCH   1  27
ATOM     27  N   UNL d   1      29.487 -15.549  -1.902  0.00  0.00    -0.052 N 
ATOM     28  C   UNL d   1      28.750 -16.131  -3.155  0.00  0.00     0.256 C 
ATOM     29  C   UNL d   1      29.350 -16.219  -4.633  0.00  0.00     0.150 C 
ATOM     30  N   UNL d   1      30.085 -14.999  -5.075  0.00  0.00    -0.375 N 
ATOM     31  C   UNL d   1      31.243 -14.736  -3.771  0.00  0.00     0.150 C 
ATOM     32  C   UNL d   1      30.701 -14.619  -2.144  0.00  0.00     0.256 C 
ATOM     33  H   UNL d   1      29.843 -16.350  -1.370  0.00  0.00     0.281 HD
BRANCH  30  34
ATOM     34  C   UNL d   1      29.903 -14.429  -6.558  0.00  0.00     0.064 C 
ATOM     35  C   UNL d   1      28.609 -13.752  -7.134  0.00  0.00     0.032 C 
ATOM     36  C   UNL d   1      28.508 -12.667  -8.115  0.00  0.00     0.002 C 
ATOM     37  C   UNL d   1      29.636 -12.282  -8.780  0.00  0.00     0.003 C 
ATOM     38  C   UNL d   1      30.826 -12.951  -8.425  0.00  0.00     0.039 C 
ATOM     39  C   UNL d   1      30.982 -13.997  -7.380  0.00  0.00     0.094 C 
BRANCH  39  40
ATOM     40  O   UNL d   1      32.275 -14.463  -7.358  0.00  0.00    -0.354 OA
ATOM     41  C   UNL d   1      32.493 -15.584  -8.172  0.00  0.00     0.210 C 
ENDBRANCH  39  40
ENDBRANCH  30  34
ENDBRANCH   1  27
TORSDOF 7
ENDMDL
