MODEL 1
REMARK VINA RESULT:    -6.810      0.000      0.000
REMARK INTER + INTRA:         -10.971
REMARK INTER:                  -9.196
REMARK INTRA:                  -1.775
REMARK CONF_INDEPENDENT:        2.386
REMARK UNBOUND:                -1.775
REMARK  8 active torsions:
REMARK  status: ('A' for Active; 'I' for Inactive)
REMARK    1  A    between atoms: O_2  and  C_3 
REMARK    2  A    between atoms: C_10  and  S_11 
REMARK    3  A    between atoms: S_11  and  C_12 
REMARK    4  A    between atoms: C_12  and  C_13 
REMARK       I    between atoms: C_13  and  N_15 
REMARK    5  A    between atoms: N_15  and  C_17 
REMARK    6  A    between atoms: C_17  and  C_18 
REMARK       I    between atoms: C_18  and  N_20 
REMARK    7  A    between atoms: N_20  and  C_21 
REMARK    8  A    between atoms: C_26  and  C_27 
ROOT
ATOM      1  C   UNL d   1      26.654 -15.143  -4.493  0.00  0.00     0.229 C 
ATOM      2  O   UNL d   1      26.436 -15.949  -5.395  0.00  0.00    -0.273 OA
ATOM      3  N   UNL d   1      27.518 -14.072  -4.667  0.00  0.00    -0.347 N 
ATOM      4  C   UNL d   1      27.790 -13.102  -3.613  0.00  0.00     0.153 C 
ENDROOT
BRANCH   1   5
ATOM      5  C   UNL d   1      25.990 -15.293  -3.099  0.00  0.00     0.180 C 
BRANCH   5   6
ATOM      6  S   UNL d   1      27.153 -16.094  -1.925  0.00  0.00    -0.114 SA
BRANCH   6   7
ATOM      7  C   UNL d   1      26.126 -16.511  -0.493  0.00  0.00     0.247 A 
ATOM      8  N   UNL d   1      24.770 -15.894  -0.651  0.00  0.00    -0.358 N 
ATOM      9  C   UNL d   1      23.868 -16.805  -0.655  0.00  0.00     0.059 A 
ATOM     10  H   UNL d   1      24.591 -14.915  -0.876  0.00  0.00     0.162 HD
ATOM     11  C   UNL d   1      24.515 -18.121  -0.398  0.00  0.00     0.057 A 
ATOM     12  C   UNL d   1      22.439 -16.711  -0.895  0.00  0.00     0.068 A 
ATOM     13  C   UNL d   1      23.685 -19.325  -0.341  0.00  0.00     0.034 A 
ATOM     14  N   UNL d   1      25.778 -17.952  -0.273  0.00  0.00    -0.359 N 
ATOM     15  C   UNL d   1      22.368 -19.148  -0.559  0.00  0.00     0.039 A 
ATOM     16  C   UNL d   1      21.740 -17.856  -0.825  0.00  0.00     0.070 A 
ATOM     17  H   UNL d   1      26.437 -18.706  -0.069  0.00  0.00     0.162 HD
BRANCH  16  18
ATOM     18  O   UNL d   1      20.407 -17.825  -1.173  0.00  0.00    -0.356 OA
ATOM     19  C   UNL d   1      19.598 -18.970  -0.892  0.00  0.00     0.210 C 
ENDBRANCH  16  18
ENDBRANCH   6   7
ENDBRANCH   5   6
ENDBRANCH   1   5
BRANCH   3  20
ATOM     20  C   UNL d   1      28.193 -13.874  -5.999  0.00  0.00     0.228 C 
BRANCH  20  21
ATOM     21  C   UNL d   1      29.443 -14.765  -6.277  0.00  0.00     0.240 C 
ATOM     22  O   UNL d   1      30.402 -14.343  -6.926  0.00  0.00    -0.271 OA
ATOM     23  N   UNL d   1      29.426 -16.073  -5.824  0.00  0.00    -0.325 N 
ATOM     24  H   UNL d   1      28.515 -16.502  -5.678  0.00  0.00     0.169 HD
BRANCH  23  25
ATOM     25  C   UNL d   1      30.520 -16.941  -6.139  0.00  0.00     0.049 A 
ATOM     26  C   UNL d   1      30.780 -17.288  -7.479  0.00  0.00     0.030 A 
ATOM     27  C   UNL d   1      31.756 -18.226  -7.815  0.00  0.00     0.002 A 
ATOM     28  C   UNL d   1      32.576 -18.747  -6.825  0.00  0.00     0.001 A 
ATOM     29  C   UNL d   1      32.395 -18.342  -5.501  0.00  0.00     0.018 A 
ATOM     30  C   UNL d   1      31.327 -17.493  -5.134  0.00  0.00     0.074 A 
BRANCH  30  31
ATOM     31  C   UNL d   1      31.031 -17.321  -3.670  0.00  0.00     0.419 C 
ATOM     32  F   UNL d   1      31.749 -18.173  -2.886  0.00  0.00    -0.166 F 
ATOM     33  F   UNL d   1      31.298 -16.068  -3.222  0.00  0.00    -0.166 F 
ATOM     34  F   UNL d   1      29.722 -17.554  -3.344  0.00  0.00    -0.166 F 
ENDBRANCH  30  31
ENDBRANCH  23  25
ENDBRANCH  20  21
ENDBRANCH   3  20
TORSDOF 8
ENDMDL
MODEL 2
REMARK VINA RESULT:    -6.668      5.371      8.151
REMARK INTER + INTRA:         -11.603
REMARK INTER:                  -9.054
REMARK INTRA:                  -2.548
REMARK CONF_INDEPENDENT:        2.386
REMARK UNBOUND:                -2.548
REMARK  8 active torsions:
REMARK  status: ('A' for Active; 'I' for Inactive)
REMARK    1  A    between atoms: O_2  and  C_3 
REMARK    2  A    between atoms: C_10  and  S_11 
REMARK    3  A    between atoms: S_11  and  C_12 
REMARK    4  A    between atoms: C_12  and  C_13 
REMARK       I    between atoms: C_13  and  N_15 
REMARK    5  A    between atoms: N_15  and  C_17 
REMARK    6  A    between atoms: C_17  and  C_18 
REMARK       I    between atoms: C_18  and  N_20 
REMARK    7  A    between atoms: N_20  and  C_21 
REMARK    8  A    between atoms: C_26  and  C_27 
ROOT
ATOM      1  C   UNL d   1      27.836 -13.125  -0.376  0.00  0.00     0.229 C 
ATOM      2  O   UNL d   1      26.840 -12.915   0.313  0.00  0.00    -0.273 OA
ATOM      3  N   UNL d   1      27.740 -13.384  -1.735  0.00  0.00    -0.347 N 
ATOM      4  C   UNL d   1      28.907 -13.634  -2.572  0.00  0.00     0.153 C 
ENDROOT
BRANCH   1   5
ATOM      5  C   UNL d   1      29.259 -13.137   0.243  0.00  0.00     0.180 C 
BRANCH   5   6
ATOM      6  S   UNL d   1      29.448 -14.571   1.374  0.00  0.00    -0.114 SA
BRANCH   6   7
ATOM      7  C   UNL d   1      28.084 -14.393   2.553  0.00  0.00     0.247 A 
ATOM      8  N   UNL d   1      28.469 -15.011   3.862  0.00  0.00    -0.358 N 
ATOM      9  C   UNL d   1      28.434 -14.130   4.793  0.00  0.00     0.059 A 
ATOM     10  H   UNL d   1      28.850 -15.950   3.981  0.00  0.00     0.162 HD
ATOM     11  C   UNL d   1      27.924 -12.852   4.225  0.00  0.00     0.057 A 
ATOM     12  C   UNL d   1      28.831 -14.221   6.186  0.00  0.00     0.068 A 
ATOM     13  C   UNL d   1      27.780 -11.689   5.101  0.00  0.00     0.034 A 
ATOM     14  N   UNL d   1      27.696 -13.009   2.974  0.00  0.00    -0.359 N 
ATOM     15  C   UNL d   1      28.156 -11.862   6.382  0.00  0.00     0.039 A 
ATOM     16  C   UNL d   1      28.670 -13.114   6.932  0.00  0.00     0.070 A 
ATOM     17  H   UNL d   1      27.318 -12.279   2.368  0.00  0.00     0.162 HD
BRANCH  16  18
ATOM     18  O   UNL d   1      29.154 -13.124   8.222  0.00  0.00    -0.356 OA
ATOM     19  C   UNL d   1      30.344 -13.864   8.502  0.00  0.00     0.210 C 
ENDBRANCH  16  18
ENDBRANCH   6   7
ENDBRANCH   5   6
ENDBRANCH   1   5
BRANCH   3  20
ATOM     20  C   UNL d   1      26.385 -13.387  -2.394  0.00  0.00     0.228 C 
BRANCH  20  21
ATOM     21  C   UNL d   1      25.540 -14.688  -2.224  0.00  0.00     0.240 C 
ATOM     22  O   UNL d   1      24.879 -15.150  -3.156  0.00  0.00    -0.271 OA
ATOM     23  N   UNL d   1      25.501 -15.282  -0.975  0.00  0.00    -0.325 N 
ATOM     24  H   UNL d   1      25.690 -14.688  -0.172  0.00  0.00     0.169 HD
BRANCH  23  25
ATOM     25  C   UNL d   1      24.665 -16.426  -0.766  0.00  0.00     0.049 A 
ATOM     26  C   UNL d   1      23.274 -16.325  -0.958  0.00  0.00     0.030 A 
ATOM     27  C   UNL d   1      22.414 -17.378  -0.646  0.00  0.00     0.002 A 
ATOM     28  C   UNL d   1      22.942 -18.598  -0.249  0.00  0.00     0.001 A 
ATOM     29  C   UNL d   1      24.325 -18.746  -0.145  0.00  0.00     0.018 A 
ATOM     30  C   UNL d   1      25.196 -17.649  -0.333  0.00  0.00     0.074 A 
BRANCH  30  31
ATOM     31  C   UNL d   1      26.638 -17.814   0.061  0.00  0.00     0.419 C 
ATOM     32  F   UNL d   1      26.889 -19.023   0.636  0.00  0.00    -0.166 F 
ATOM     33  F   UNL d   1      27.487 -17.705  -0.992  0.00  0.00    -0.166 F 
ATOM     34  F   UNL d   1      27.066 -16.887   0.973  0.00  0.00    -0.166 F 
ENDBRANCH  30  31
ENDBRANCH  23  25
ENDBRANCH  20  21
ENDBRANCH   3  20
TORSDOF 8
ENDMDL
MODEL 3
REMARK VINA RESULT:    -6.494      3.337      7.793
REMARK INTER + INTRA:         -11.230
REMARK INTER:                  -8.880
REMARK INTRA:                  -2.350
REMARK CONF_INDEPENDENT:        2.386
REMARK UNBOUND:                -2.350
REMARK  8 active torsions:
REMARK  status: ('A' for Active; 'I' for Inactive)
REMARK    1  A    between atoms: O_2  and  C_3 
REMARK    2  A    between atoms: C_10  and  S_11 
REMARK    3  A    between atoms: S_11  and  C_12 
REMARK    4  A    between atoms: C_12  and  C_13 
REMARK       I    between atoms: C_13  and  N_15 
REMARK    5  A    between atoms: N_15  and  C_17 
REMARK    6  A    between atoms: C_17  and  C_18 
REMARK       I    between atoms: C_18  and  N_20 
REMARK    7  A    between atoms: N_20  and  C_21 
REMARK    8  A    between atoms: C_26  and  C_27 
ROOT
ATOM      1  C   UNL d   1      27.033 -14.199  -5.229  0.00  0.00     0.229 C 
ATOM      2  O   UNL d   1      27.067 -15.409  -5.014  0.00  0.00    -0.273 OA
ATOM      3  N   UNL d   1      25.993 -13.407  -4.766  0.00  0.00    -0.347 N 
ATOM      4  C   UNL d   1      25.932 -11.970  -5.007  0.00  0.00     0.153 C 
ENDROOT
BRANCH   1   5
ATOM      5  C   UNL d   1      28.141 -13.494  -6.055  0.00  0.00     0.180 C 
BRANCH   5   6
ATOM      6  S   UNL d   1      28.872 -14.664  -7.267  0.00  0.00    -0.114 SA
BRANCH   6   7
ATOM      7  C   UNL d   1      30.290 -15.379  -6.399  0.00  0.00     0.247 A 
ATOM      8  N   UNL d   1      29.809 -16.372  -5.385  0.00  0.00    -0.358 N 
ATOM      9  C   UNL d   1      30.297 -17.531  -5.637  0.00  0.00     0.059 A 
ATOM     10  H   UNL d   1      29.085 -16.199  -4.688  0.00  0.00     0.162 HD
ATOM     11  C   UNL d   1      31.236 -17.417  -6.787  0.00  0.00     0.057 A 
ATOM     12  C   UNL d   1      30.032 -18.816  -5.016  0.00  0.00     0.068 A 
ATOM     13  C   UNL d   1      31.934 -18.613  -7.259  0.00  0.00     0.034 A 
ATOM     14  N   UNL d   1      31.258 -16.202  -7.193  0.00  0.00    -0.359 N 
ATOM     15  C   UNL d   1      31.643 -19.761  -6.618  0.00  0.00     0.039 A 
ATOM     16  C   UNL d   1      30.710 -19.871  -5.500  0.00  0.00     0.070 A 
ATOM     17  H   UNL d   1      31.846 -15.868  -7.958  0.00  0.00     0.162 HD
BRANCH  16  18
ATOM     18  O   UNL d   1      30.390 -21.123  -5.022  0.00  0.00    -0.356 OA
ATOM     19  C   UNL d   1      31.395 -21.872  -4.334  0.00  0.00     0.210 C 
ENDBRANCH  16  18
ENDBRANCH   6   7
ENDBRANCH   5   6
ENDBRANCH   1   5
BRANCH   3  20
ATOM     20  C   UNL d   1      24.887 -14.035  -3.958  0.00  0.00     0.228 C 
BRANCH  20  21
ATOM     21  C   UNL d   1      25.320 -14.767  -2.650  0.00  0.00     0.240 C 
ATOM     22  O   UNL d   1      25.535 -14.145  -1.608  0.00  0.00    -0.271 OA
ATOM     23  N   UNL d   1      25.518 -16.135  -2.704  0.00  0.00    -0.325 N 
ATOM     24  H   UNL d   1      25.740 -16.538  -3.612  0.00  0.00     0.169 HD
BRANCH  23  25
ATOM     25  C   UNL d   1      26.000 -16.822  -1.543  0.00  0.00     0.049 A 
ATOM     26  C   UNL d   1      27.382 -16.867  -1.276  0.00  0.00     0.030 A 
ATOM     27  C   UNL d   1      27.900 -17.629  -0.229  0.00  0.00     0.002 A 
ATOM     28  C   UNL d   1      27.034 -18.264   0.649  0.00  0.00     0.001 A 
ATOM     29  C   UNL d   1      25.656 -18.151   0.456  0.00  0.00     0.018 A 
ATOM     30  C   UNL d   1      25.126 -17.491  -0.675  0.00  0.00     0.074 A 
BRANCH  30  31
ATOM     31  C   UNL d   1      23.658 -17.645  -0.961  0.00  0.00     0.419 C 
ATOM     32  F   UNL d   1      22.972 -18.177   0.089  0.00  0.00    -0.166 F 
ATOM     33  F   UNL d   1      23.054 -16.467  -1.259  0.00  0.00    -0.166 F 
ATOM     34  F   UNL d   1      23.389 -18.471  -2.019  0.00  0.00    -0.166 F 
ENDBRANCH  30  31
ENDBRANCH  23  25
ENDBRANCH  20  21
ENDBRANCH   3  20
TORSDOF 8
ENDMDL
MODEL 4
REMARK VINA RESULT:    -6.169      2.655      7.380
REMARK INTER + INTRA:         -10.988
REMARK INTER:                  -8.555
REMARK INTRA:                  -2.433
REMARK CONF_INDEPENDENT:        2.386
REMARK UNBOUND:                -2.433
REMARK  8 active torsions:
REMARK  status: ('A' for Active; 'I' for Inactive)
REMARK    1  A    between atoms: O_2  and  C_3 
REMARK    2  A    between atoms: C_10  and  S_11 
REMARK    3  A    between atoms: S_11  and  C_12 
REMARK    4  A    between atoms: C_12  and  C_13 
REMARK       I    between atoms: C_13  and  N_15 
REMARK    5  A    between atoms: N_15  and  C_17 
REMARK    6  A    between atoms: C_17  and  C_18 
REMARK       I    between atoms: C_18  and  N_20 
REMARK    7  A    between atoms: N_20  and  C_21 
REMARK    8  A    between atoms: C_26  and  C_27 
ROOT
ATOM      1  C   UNL d   1      27.507 -13.981  -5.383  0.00  0.00     0.229 C 
ATOM      2  O   UNL d   1      27.542 -15.206  -5.484  0.00  0.00    -0.273 OA
ATOM      3  N   UNL d   1      26.356 -13.317  -4.985  0.00  0.00    -0.347 N 
ATOM      4  C   UNL d   1      26.291 -11.867  -4.856  0.00  0.00     0.153 C 
ENDROOT
BRANCH   1   5
ATOM      5  C   UNL d   1      28.744 -13.107  -5.719  0.00  0.00     0.180 C 
BRANCH   5   6
ATOM      6  S   UNL d   1      29.531 -13.691  -7.271  0.00  0.00    -0.114 SA
BRANCH   6   7
ATOM      7  C   UNL d   1      30.901 -14.736  -6.712  0.00  0.00     0.247 A 
ATOM      8  N   UNL d   1      30.416 -15.669  -5.645  0.00  0.00    -0.358 N 
ATOM      9  C   UNL d   1      30.589 -16.886  -6.011  0.00  0.00     0.059 A 
ATOM     10  H   UNL d   1      29.889 -15.394  -4.816  0.00  0.00     0.162 HD
ATOM     11  C   UNL d   1      31.299 -16.897  -7.319  0.00  0.00     0.057 A 
ATOM     12  C   UNL d   1      30.176 -18.125  -5.377  0.00  0.00     0.068 A 
ATOM     13  C   UNL d   1      31.625 -18.179  -7.944  0.00  0.00     0.034 A 
ATOM     14  N   UNL d   1      31.505 -15.690  -7.696  0.00  0.00    -0.359 N 
ATOM     15  C   UNL d   1      31.220 -19.280  -7.282  0.00  0.00     0.039 A 
ATOM     16  C   UNL d   1      30.510 -19.264  -6.006  0.00  0.00     0.070 A 
ATOM     17  H   UNL d   1      31.997 -15.437  -8.555  0.00  0.00     0.162 HD
BRANCH  16  18
ATOM     18  O   UNL d   1      30.025 -20.451  -5.501  0.00  0.00    -0.356 OA
ATOM     19  C   UNL d   1      30.717 -21.067  -4.412  0.00  0.00     0.210 C 
ENDBRANCH  16  18
ENDBRANCH   6   7
ENDBRANCH   5   6
ENDBRANCH   1   5
BRANCH   3  20
ATOM     20  C   UNL d   1      25.123 -14.112  -4.645  0.00  0.00     0.228 C 
BRANCH  20  21
ATOM     21  C   UNL d   1      25.167 -14.913  -3.306  0.00  0.00     0.240 C 
ATOM     22  O   UNL d   1      24.449 -14.607  -2.352  0.00  0.00    -0.271 OA
ATOM     23  N   UNL d   1      26.081 -15.945  -3.193  0.00  0.00    -0.325 N 
ATOM     24  H   UNL d   1      26.903 -15.905  -3.792  0.00  0.00     0.169 HD
BRANCH  23  25
ATOM     25  C   UNL d   1      26.207 -16.641  -1.948  0.00  0.00     0.049 A 
ATOM     26  C   UNL d   1      25.070 -17.211  -1.344  0.00  0.00     0.030 A 
ATOM     27  C   UNL d   1      25.129 -17.787  -0.075  0.00  0.00     0.002 A 
ATOM     28  C   UNL d   1      26.353 -17.913   0.565  0.00  0.00     0.001 A 
ATOM     29  C   UNL d   1      27.506 -17.439  -0.062  0.00  0.00     0.018 A 
ATOM     30  C   UNL d   1      27.439 -16.739  -1.288  0.00  0.00     0.074 A 
BRANCH  30  31
ATOM     31  C   UNL d   1      28.674 -16.024  -1.763  0.00  0.00     0.419 C 
ATOM     32  F   UNL d   1      29.814 -16.516  -1.202  0.00  0.00    -0.166 F 
ATOM     33  F   UNL d   1      28.842 -16.100  -3.107  0.00  0.00    -0.166 F 
ATOM     34  F   UNL d   1      28.680 -14.686  -1.469  0.00  0.00    -0.166 F 
ENDBRANCH  30  31
ENDBRANCH  23  25
ENDBRANCH  20  21
ENDBRANCH   3  20
TORSDOF 8
ENDMDL
MODEL 5
REMARK VINA RESULT:    -6.058      2.589      7.904
REMARK INTER + INTRA:         -10.937
REMARK INTER:                  -8.445
REMARK INTRA:                  -2.493
REMARK CONF_INDEPENDENT:        2.386
REMARK UNBOUND:                -2.493
REMARK  8 active torsions:
REMARK  status: ('A' for Active; 'I' for Inactive)
REMARK    1  A    between atoms: O_2  and  C_3 
REMARK    2  A    between atoms: C_10  and  S_11 
REMARK    3  A    between atoms: S_11  and  C_12 
REMARK    4  A    between atoms: C_12  and  C_13 
REMARK       I    between atoms: C_13  and  N_15 
REMARK    5  A    between atoms: N_15  and  C_17 
REMARK    6  A    between atoms: C_17  and  C_18 
REMARK       I    between atoms: C_18  and  N_20 
REMARK    7  A    between atoms: N_20  and  C_21 
REMARK    8  A    between atoms: C_26  and  C_27 
ROOT
ATOM      1  C   UNL d   1      27.633 -14.906  -4.036  0.00  0.00     0.229 C 
ATOM      2  O   UNL d   1      28.095 -15.832  -3.371  0.00  0.00    -0.273 OA
ATOM      3  N   UNL d   1      27.094 -13.778  -3.436  0.00  0.00    -0.347 N 
ATOM      4  C   UNL d   1      26.543 -12.668  -4.204  0.00  0.00     0.153 C 
ENDROOT
BRANCH   1   5
ATOM      5  C   UNL d   1      27.606 -14.961  -5.586  0.00  0.00     0.180 C 
BRANCH   5   6
ATOM      6  S   UNL d   1      28.864 -13.820  -6.284  0.00  0.00    -0.114 SA
BRANCH   6   7
ATOM      7  C   UNL d   1      30.419 -14.739  -6.160  0.00  0.00     0.247 A 
ATOM      8  N   UNL d   1      30.290 -15.804  -5.114  0.00  0.00    -0.358 N 
ATOM      9  C   UNL d   1      30.486 -16.959  -5.635  0.00  0.00     0.059 A 
ATOM     10  H   UNL d   1      29.949 -15.658  -4.164  0.00  0.00     0.162 HD
ATOM     11  C   UNL d   1      30.866 -16.784  -7.064  0.00  0.00     0.057 A 
ATOM     12  C   UNL d   1      30.354 -18.284  -5.056  0.00  0.00     0.068 A 
ATOM     13  C   UNL d   1      31.155 -17.966  -7.875  0.00  0.00     0.034 A 
ATOM     14  N   UNL d   1      30.861 -15.535  -7.350  0.00  0.00    -0.359 N 
ATOM     15  C   UNL d   1      31.024 -19.156  -7.258  0.00  0.00     0.039 A 
ATOM     16  C   UNL d   1      30.637 -19.323  -5.859  0.00  0.00     0.070 A 
ATOM     17  H   UNL d   1      31.111 -15.160  -8.266  0.00  0.00     0.162 HD
BRANCH  16  18
ATOM     18  O   UNL d   1      30.400 -20.595  -5.384  0.00  0.00    -0.356 OA
ATOM     19  C   UNL d   1      31.092 -21.029  -4.212  0.00  0.00     0.210 C 
ENDBRANCH  16  18
ENDBRANCH   6   7
ENDBRANCH   5   6
ENDBRANCH   1   5
BRANCH   3  20
ATOM     20  C   UNL d   1      27.091 -13.668  -1.934  0.00  0.00     0.228 C 
BRANCH  20  21
ATOM     21  C   UNL d   1      26.137 -14.642  -1.174  0.00  0.00     0.240 C 
ATOM     22  O   UNL d   1      25.941 -14.532   0.038  0.00  0.00    -0.271 OA
ATOM     23  N   UNL d   1      25.559 -15.677  -1.887  0.00  0.00    -0.325 N 
ATOM     24  H   UNL d   1      26.039 -15.986  -2.729  0.00  0.00     0.169 HD
BRANCH  23  25
ATOM     25  C   UNL d   1      24.750 -16.638  -1.200  0.00  0.00     0.049 A 
ATOM     26  C   UNL d   1      23.346 -16.554  -1.270  0.00  0.00     0.030 A 
ATOM     27  C   UNL d   1      22.525 -17.393  -0.517  0.00  0.00     0.002 A 
ATOM     28  C   UNL d   1      23.091 -18.416   0.229  0.00  0.00     0.001 A 
ATOM     29  C   UNL d   1      24.477 -18.575   0.235  0.00  0.00     0.018 A 
ATOM     30  C   UNL d   1      25.324 -17.651  -0.419  0.00  0.00     0.074 A 
BRANCH  30  31
ATOM     31  C   UNL d   1      26.800 -17.726  -0.144  0.00  0.00     0.419 C 
ATOM     32  F   UNL d   1      27.204 -16.828   0.797  0.00  0.00    -0.166 F 
ATOM     33  F   UNL d   1      27.192 -18.948   0.296  0.00  0.00    -0.166 F 
ATOM     34  F   UNL d   1      27.576 -17.467  -1.242  0.00  0.00    -0.166 F 
ENDBRANCH  30  31
ENDBRANCH  23  25
ENDBRANCH  20  21
ENDBRANCH   3  20
TORSDOF 8
ENDMDL
MODEL 6
REMARK VINA RESULT:    -5.997      3.166      7.786
REMARK INTER + INTRA:         -11.052
REMARK INTER:                  -8.383
REMARK INTRA:                  -2.668
REMARK CONF_INDEPENDENT:        2.386
REMARK UNBOUND:                -2.668
REMARK  8 active torsions:
REMARK  status: ('A' for Active; 'I' for Inactive)
REMARK    1  A    between atoms: O_2  and  C_3 
REMARK    2  A    between atoms: C_10  and  S_11 
REMARK    3  A    between atoms: S_11  and  C_12 
REMARK    4  A    between atoms: C_12  and  C_13 
REMARK       I    between atoms: C_13  and  N_15 
REMARK    5  A    between atoms: N_15  and  C_17 
REMARK    6  A    between atoms: C_17  and  C_18 
REMARK       I    between atoms: C_18  and  N_20 
REMARK    7  A    between atoms: N_20  and  C_21 
REMARK    8  A    between atoms: C_26  and  C_27 
ROOT
ATOM      1  C   UNL d   1      29.459 -16.666  -2.777  0.00  0.00     0.229 C 
ATOM      2  O   UNL d   1      28.691 -15.706  -2.782  0.00  0.00    -0.273 OA
ATOM      3  N   UNL d   1      29.895 -17.244  -1.594  0.00  0.00    -0.347 N 
ATOM      4  C   UNL d   1      30.803 -18.384  -1.564  0.00  0.00     0.153 C 
ENDROOT
BRANCH   1   5
ATOM      5  C   UNL d   1      30.003 -17.271  -4.098  0.00  0.00     0.180 C 
BRANCH   5   6
ATOM      6  S   UNL d   1      30.460 -15.932  -5.269  0.00  0.00    -0.114 SA
BRANCH   6   7
ATOM      7  C   UNL d   1      28.925 -15.574  -6.160  0.00  0.00     0.247 A 
ATOM      8  N   UNL d   1      27.881 -15.107  -5.193  0.00  0.00    -0.358 N 
ATOM      9  C   UNL d   1      27.489 -13.926  -5.503  0.00  0.00     0.059 A 
ATOM     10  H   UNL d   1      27.624 -15.583  -4.327  0.00  0.00     0.162 HD
ATOM     11  C   UNL d   1      28.155 -13.517  -6.770  0.00  0.00     0.057 A 
ATOM     12  C   UNL d   1      26.590 -13.023  -4.807  0.00  0.00     0.068 A 
ATOM     13  C   UNL d   1      27.857 -12.202  -7.340  0.00  0.00     0.034 A 
ATOM     14  N   UNL d   1      28.936 -14.456  -7.157  0.00  0.00    -0.359 N 
ATOM     15  C   UNL d   1      27.002 -11.433  -6.641  0.00  0.00     0.039 A 
ATOM     16  C   UNL d   1      26.362 -11.833  -5.390  0.00  0.00     0.070 A 
ATOM     17  H   UNL d   1      29.488 -14.420  -8.016  0.00  0.00     0.162 HD
BRANCH  16  18
ATOM     18  O   UNL d   1      25.618 -10.903  -4.697  0.00  0.00    -0.356 OA
ATOM     19  C   UNL d   1      25.906 -10.688  -3.314  0.00  0.00     0.210 C 
ENDBRANCH  16  18
ENDBRANCH   6   7
ENDBRANCH   5   6
ENDBRANCH   1   5
BRANCH   3  20
ATOM     20  C   UNL d   1      29.401 -16.700  -0.279  0.00  0.00     0.228 C 
BRANCH  20  21
ATOM     21  C   UNL d   1      27.865 -16.804  -0.024  0.00  0.00     0.240 C 
ATOM     22  O   UNL d   1      27.405 -16.832   1.119  0.00  0.00    -0.271 OA
ATOM     23  N   UNL d   1      27.029 -16.927  -1.119  0.00  0.00    -0.325 N 
ATOM     24  H   UNL d   1      27.433 -17.310  -1.971  0.00  0.00     0.169 HD
BRANCH  23  25
ATOM     25  C   UNL d   1      25.624 -17.114  -0.914  0.00  0.00     0.049 A 
ATOM     26  C   UNL d   1      25.163 -18.200  -0.146  0.00  0.00     0.030 A 
ATOM     27  C   UNL d   1      23.803 -18.486  -0.027  0.00  0.00     0.002 A 
ATOM     28  C   UNL d   1      22.870 -17.619  -0.575  0.00  0.00     0.001 A 
ATOM     29  C   UNL d   1      23.307 -16.484  -1.260  0.00  0.00     0.018 A 
ATOM     30  C   UNL d   1      24.681 -16.255  -1.497  0.00  0.00     0.074 A 
BRANCH  30  31
ATOM     31  C   UNL d   1      25.061 -15.171  -2.467  0.00  0.00     0.419 C 
ATOM     32  F   UNL d   1      25.903 -14.250  -1.921  0.00  0.00    -0.166 F 
ATOM     33  F   UNL d   1      25.681 -15.651  -3.575  0.00  0.00    -0.166 F 
ATOM     34  F   UNL d   1      23.993 -14.450  -2.929  0.00  0.00    -0.166 F 
ENDBRANCH  30  31
ENDBRANCH  23  25
ENDBRANCH  20  21
ENDBRANCH   3  20
TORSDOF 8
ENDMDL
MODEL 7
REMARK VINA RESULT:    -5.943      2.449      7.445
REMARK INTER + INTRA:         -11.079
REMARK INTER:                  -8.329
REMARK INTRA:                  -2.749
REMARK CONF_INDEPENDENT:        2.386
REMARK UNBOUND:                -2.749
REMARK  8 active torsions:
REMARK  status: ('A' for Active; 'I' for Inactive)
REMARK    1  A    between atoms: O_2  and  C_3 
REMARK    2  A    between atoms: C_10  and  S_11 
REMARK    3  A    between atoms: S_11  and  C_12 
REMARK    4  A    between atoms: C_12  and  C_13 
REMARK       I    between atoms: C_13  and  N_15 
REMARK    5  A    between atoms: N_15  and  C_17 
REMARK    6  A    between atoms: C_17  and  C_18 
REMARK       I    between atoms: C_18  and  N_20 
REMARK    7  A    between atoms: N_20  and  C_21 
REMARK    8  A    between atoms: C_26  and  C_27 
ROOT
ATOM      1  C   UNL d   1      27.917 -14.472  -5.228  0.00  0.00     0.229 C 
ATOM      2  O   UNL d   1      27.504 -15.575  -5.582  0.00  0.00    -0.273 OA
ATOM      3  N   UNL d   1      27.059 -13.491  -4.754  0.00  0.00    -0.347 N 
ATOM      4  C   UNL d   1      27.526 -12.177  -4.327  0.00  0.00     0.153 C 
ENDROOT
BRANCH   1   5
ATOM      5  C   UNL d   1      29.423 -14.107  -5.317  0.00  0.00     0.180 C 
BRANCH   5   6
ATOM      6  S   UNL d   1      30.366 -14.974  -4.002  0.00  0.00    -0.114 SA
BRANCH   6   7
ATOM      7  C   UNL d   1      29.695 -16.656  -4.007  0.00  0.00     0.247 A 
ATOM      8  N   UNL d   1      29.660 -17.179  -5.411  0.00  0.00    -0.358 N 
ATOM      9  C   UNL d   1      30.377 -18.238  -5.505  0.00  0.00     0.059 A 
ATOM     10  H   UNL d   1      29.257 -16.691  -6.212  0.00  0.00     0.162 HD
ATOM     11  C   UNL d   1      30.886 -18.595  -4.153  0.00  0.00     0.057 A 
ATOM     12  C   UNL d   1      30.740 -19.024  -6.670  0.00  0.00     0.068 A 
ATOM     13  C   UNL d   1      31.725 -19.784  -3.997  0.00  0.00     0.034 A 
ATOM     14  N   UNL d   1      30.475 -17.726  -3.306  0.00  0.00    -0.359 N 
ATOM     15  C   UNL d   1      32.002 -20.466  -5.125  0.00  0.00     0.039 A 
ATOM     16  C   UNL d   1      31.512 -20.103  -6.452  0.00  0.00     0.070 A 
ATOM     17  H   UNL d   1      30.675 -17.767  -2.305  0.00  0.00     0.162 HD
BRANCH  16  18
ATOM     18  O   UNL d   1      31.981 -20.797  -7.546  0.00  0.00    -0.356 OA
ATOM     19  C   UNL d   1      31.524 -20.420  -8.846  0.00  0.00     0.210 C 
ENDBRANCH  16  18
ENDBRANCH   6   7
ENDBRANCH   5   6
ENDBRANCH   1   5
BRANCH   3  20
ATOM     20  C   UNL d   1      25.586 -13.786  -4.645  0.00  0.00     0.228 C 
BRANCH  20  21
ATOM     21  C   UNL d   1      25.155 -14.714  -3.467  0.00  0.00     0.240 C 
ATOM     22  O   UNL d   1      24.174 -14.451  -2.769  0.00  0.00    -0.271 OA
ATOM     23  N   UNL d   1      25.942 -15.816  -3.183  0.00  0.00    -0.325 N 
ATOM     24  H   UNL d   1      26.917 -15.778  -3.473  0.00  0.00     0.169 HD
BRANCH  23  25
ATOM     25  C   UNL d   1      25.622 -16.636  -2.054  0.00  0.00     0.049 A 
ATOM     26  C   UNL d   1      24.405 -17.343  -2.020  0.00  0.00     0.030 A 
ATOM     27  C   UNL d   1      24.003 -18.052  -0.888  0.00  0.00     0.002 A 
ATOM     28  C   UNL d   1      24.867 -18.169   0.191  0.00  0.00     0.001 A 
ATOM     29  C   UNL d   1      26.119 -17.554   0.136  0.00  0.00     0.018 A 
ATOM     30  C   UNL d   1      26.483 -16.727  -0.950  0.00  0.00     0.074 A 
BRANCH  30  31
ATOM     31  C   UNL d   1      27.721 -15.884  -0.815  0.00  0.00     0.419 C 
ATOM     32  F   UNL d   1      28.841 -16.524  -1.254  0.00  0.00    -0.166 F 
ATOM     33  F   UNL d   1      27.644 -14.722  -1.510  0.00  0.00    -0.166 F 
ATOM     34  F   UNL d   1      27.999 -15.522   0.475  0.00  0.00    -0.166 F 
ENDBRANCH  30  31
ENDBRANCH  23  25
ENDBRANCH  20  21
ENDBRANCH   3  20
TORSDOF 8
ENDMDL
MODEL 8
REMARK VINA RESULT:    -5.577      3.851      6.309
REMARK INTER + INTRA:         -10.932
REMARK INTER:                  -7.964
REMARK INTRA:                  -2.969
REMARK CONF_INDEPENDENT:        2.386
REMARK UNBOUND:                -2.969
REMARK  8 active torsions:
REMARK  status: ('A' for Active; 'I' for Inactive)
REMARK    1  A    between atoms: O_2  and  C_3 
REMARK    2  A    between atoms: C_10  and  S_11 
REMARK    3  A    between atoms: S_11  and  C_12 
REMARK    4  A    between atoms: C_12  and  C_13 
REMARK       I    between atoms: C_13  and  N_15 
REMARK    5  A    between atoms: N_15  and  C_17 
REMARK    6  A    between atoms: C_17  and  C_18 
REMARK       I    between atoms: C_18  and  N_20 
REMARK    7  A    between atoms: N_20  and  C_21 
REMARK    8  A    between atoms: C_26  and  C_27 
ROOT
ATOM      1  C   UNL d   1      28.329 -15.127  -3.593  0.00  0.00     0.229 C 
ATOM      2  O   UNL d   1      28.542 -16.338  -3.563  0.00  0.00    -0.273 OA
ATOM      3  N   UNL d   1      28.882 -14.268  -2.656  0.00  0.00    -0.347 N 
ATOM      4  C   UNL d   1      28.646 -12.829  -2.674  0.00  0.00     0.153 C 
ENDROOT
BRANCH   1   5
ATOM      5  C   UNL d   1      27.407 -14.496  -4.669  0.00  0.00     0.180 C 
BRANCH   5   6
ATOM      6  S   UNL d   1      25.653 -14.921  -4.331  0.00  0.00    -0.114 SA
BRANCH   6   7
ATOM      7  C   UNL d   1      25.536 -14.932  -2.524  0.00  0.00     0.247 A 
ATOM      8  N   UNL d   1      24.121 -15.201  -2.114  0.00  0.00    -0.358 N 
ATOM      9  C   UNL d   1      24.061 -16.267  -1.404  0.00  0.00     0.059 A 
ATOM     10  H   UNL d   1      23.301 -14.705  -2.465  0.00  0.00     0.162 HD
ATOM     11  C   UNL d   1      25.444 -16.771  -1.179  0.00  0.00     0.057 A 
ATOM     12  C   UNL d   1      22.912 -16.985  -0.883  0.00  0.00     0.068 A 
ATOM     13  C   UNL d   1      25.641 -17.981  -0.379  0.00  0.00     0.034 A 
ATOM     14  N   UNL d   1      26.275 -16.002  -1.779  0.00  0.00    -0.359 N 
ATOM     15  C   UNL d   1      24.524 -18.576   0.080  0.00  0.00     0.039 A 
ATOM     16  C   UNL d   1      23.168 -18.086  -0.156  0.00  0.00     0.070 A 
ATOM     17  H   UNL d   1      27.288 -16.128  -1.753  0.00  0.00     0.162 HD
BRANCH  16  18
ATOM     18  O   UNL d   1      22.103 -18.862   0.245  0.00  0.00    -0.356 OA
ATOM     19  C   UNL d   1      20.970 -18.971  -0.619  0.00  0.00     0.210 C 
ENDBRANCH  16  18
ENDBRANCH   6   7
ENDBRANCH   5   6
ENDBRANCH   1   5
BRANCH   3  20
ATOM     20  C   UNL d   1      29.786 -14.822  -1.586  0.00  0.00     0.228 C 
BRANCH  20  21
ATOM     21  C   UNL d   1      29.175 -14.924  -0.154  0.00  0.00     0.240 C 
ATOM     22  O   UNL d   1      28.366 -15.807   0.136  0.00  0.00    -0.271 OA
ATOM     23  N   UNL d   1      29.520 -13.957   0.773  0.00  0.00    -0.325 N 
ATOM     24  H   UNL d   1      29.828 -13.057   0.412  0.00  0.00     0.169 HD
BRANCH  23  25
ATOM     25  C   UNL d   1      28.908 -13.973   2.068  0.00  0.00     0.049 A 
ATOM     26  C   UNL d   1      29.628 -14.449   3.180  0.00  0.00     0.030 A 
ATOM     27  C   UNL d   1      29.028 -14.597   4.430  0.00  0.00     0.002 A 
ATOM     28  C   UNL d   1      27.727 -14.156   4.623  0.00  0.00     0.001 A 
ATOM     29  C   UNL d   1      27.029 -13.593   3.554  0.00  0.00     0.018 A 
ATOM     30  C   UNL d   1      27.582 -13.558   2.254  0.00  0.00     0.074 A 
BRANCH  30  31
ATOM     31  C   UNL d   1      26.677 -13.193   1.109  0.00  0.00     0.419 C 
ATOM     32  F   UNL d   1      26.282 -14.279   0.387  0.00  0.00    -0.166 F 
ATOM     33  F   UNL d   1      25.544 -12.566   1.513  0.00  0.00    -0.166 F 
ATOM     34  F   UNL d   1      27.257 -12.351   0.199  0.00  0.00    -0.166 F 
ENDBRANCH  30  31
ENDBRANCH  23  25
ENDBRANCH  20  21
ENDBRANCH   3  20
TORSDOF 8
ENDMDL
MODEL 9
REMARK VINA RESULT:    -5.062      3.395      5.633
REMARK INTER + INTRA:         -10.950
REMARK INTER:                  -7.448
REMARK INTRA:                  -3.502
REMARK CONF_INDEPENDENT:        2.386
REMARK UNBOUND:                -3.502
REMARK  8 active torsions:
REMARK  status: ('A' for Active; 'I' for Inactive)
REMARK    1  A    between atoms: O_2  and  C_3 
REMARK    2  A    between atoms: C_10  and  S_11 
REMARK    3  A    between atoms: S_11  and  C_12 
REMARK    4  A    between atoms: C_12  and  C_13 
REMARK       I    between atoms: C_13  and  N_15 
REMARK    5  A    between atoms: N_15  and  C_17 
REMARK    6  A    between atoms: C_17  and  C_18 
REMARK       I    between atoms: C_18  and  N_20 
REMARK    7  A    between atoms: N_20  and  C_21 
REMARK    8  A    between atoms: C_26  and  C_27 
ROOT
ATOM      1  C   UNL d   1      28.591 -14.921  -3.855  0.00  0.00     0.229 C 
ATOM      2  O   UNL d   1      28.484 -14.096  -2.950  0.00  0.00    -0.273 OA
ATOM      3  N   UNL d   1      29.509 -15.959  -3.790  0.00  0.00    -0.347 N 
ATOM      4  C   UNL d   1      29.653 -16.949  -4.850  0.00  0.00     0.153 C 
ENDROOT
BRANCH   1   5
ATOM      5  C   UNL d   1      27.720 -14.832  -5.136  0.00  0.00     0.180 C 
BRANCH   5   6
ATOM      6  S   UNL d   1      25.966 -15.198  -4.738  0.00  0.00    -0.114 SA
BRANCH   6   7
ATOM      7  C   UNL d   1      25.849 -14.935  -2.951  0.00  0.00     0.247 A 
ATOM      8  N   UNL d   1      24.444 -15.189  -2.497  0.00  0.00    -0.358 N 
ATOM      9  C   UNL d   1      24.423 -16.134  -1.631  0.00  0.00     0.059 A 
ATOM     10  H   UNL d   1      23.606 -14.784  -2.917  0.00  0.00     0.162 HD
ATOM     11  C   UNL d   1      25.824 -16.545  -1.337  0.00  0.00     0.057 A 
ATOM     12  C   UNL d   1      23.301 -16.804  -0.999  0.00  0.00     0.068 A 
ATOM     13  C   UNL d   1      26.065 -17.609  -0.361  0.00  0.00     0.034 A 
ATOM     14  N   UNL d   1      26.626 -15.849  -2.053  0.00  0.00    -0.359 N 
ATOM     15  C   UNL d   1      24.970 -18.167   0.190  0.00  0.00     0.039 A 
ATOM     16  C   UNL d   1      23.597 -17.769  -0.113  0.00  0.00     0.070 A 
ATOM     17  H   UNL d   1      27.643 -15.932  -2.013  0.00  0.00     0.162 HD
BRANCH  16  18
ATOM     18  O   UNL d   1      22.561 -18.513   0.409  0.00  0.00    -0.356 OA
ATOM     19  C   UNL d   1      21.769 -19.304  -0.480  0.00  0.00     0.210 C 
ENDBRANCH  16  18
ENDBRANCH   6   7
ENDBRANCH   5   6
ENDBRANCH   1   5
BRANCH   3  20
ATOM     20  C   UNL d   1      30.384 -16.098  -2.571  0.00  0.00     0.228 C 
BRANCH  20  21
ATOM     21  C   UNL d   1      29.683 -15.889  -1.193  0.00  0.00     0.240 C 
ATOM     22  O   UNL d   1      29.079 -16.806  -0.635  0.00  0.00    -0.271 OA
ATOM     23  N   UNL d   1      29.703 -14.622  -0.636  0.00  0.00    -0.325 N 
ATOM     24  H   UNL d   1      29.825 -13.837  -1.272  0.00  0.00     0.169 HD
BRANCH  23  25
ATOM     25  C   UNL d   1      28.994 -14.378   0.584  0.00  0.00     0.049 A 
ATOM     26  C   UNL d   1      27.626 -14.047   0.548  0.00  0.00     0.030 A 
ATOM     27  C   UNL d   1      26.932 -13.681   1.701  0.00  0.00     0.002 A 
ATOM     28  C   UNL d   1      27.563 -13.758   2.934  0.00  0.00     0.001 A 
ATOM     29  C   UNL d   1      28.892 -14.177   2.999  0.00  0.00     0.018 A 
ATOM     30  C   UNL d   1      29.641 -14.424   1.826  0.00  0.00     0.074 A 
BRANCH  30  31
ATOM     31  C   UNL d   1      31.129 -14.601   1.961  0.00  0.00     0.419 C 
ATOM     32  F   UNL d   1      31.826 -13.498   1.570  0.00  0.00    -0.166 F 
ATOM     33  F   UNL d   1      31.514 -14.869   3.234  0.00  0.00    -0.166 F 
ATOM     34  F   UNL d   1      31.629 -15.627   1.204  0.00  0.00    -0.166 F 
ENDBRANCH  30  31
ENDBRANCH  23  25
ENDBRANCH  20  21
ENDBRANCH   3  20
TORSDOF 8
ENDMDL
