MODEL 1
REMARK VINA RESULT:    -7.701      0.000      0.000
REMARK INTER + INTRA:          -9.834
REMARK INTER:                  -8.895
REMARK INTRA:                  -0.939
REMARK CONF_INDEPENDENT:        1.193
REMARK UNBOUND:                -0.939
REMARK  4 active torsions:
REMARK  status: ('A' for Active; 'I' for Inactive)
REMARK    1  A    between atoms: O_2  and  C_3 
REMARK    2  A    between atoms: C_3  and  C_5 
REMARK    3  A    between atoms: C_9  and  N_10 
REMARK       I    between atoms: N_10  and  C_11 
REMARK       I    between atoms: C_11  and  N_13 
REMARK    4  A    between atoms: C_21  and  C_22 
ROOT
ATOM      1  N   UNL d   1      26.290 -16.141  -2.810  0.00  0.00    -0.309 N 
ATOM      2  C   UNL d   1      25.738 -15.062  -3.480  0.00  0.00     0.323 C 
ATOM      3  O   UNL d   1      24.646 -14.544  -3.264  0.00  0.00    -0.247 OA
ATOM      4  N   UNL d   1      26.564 -14.433  -4.400  0.00  0.00    -0.319 N 
ATOM      5  C   UNL d   1      27.371 -15.200  -5.346  0.00  0.00     0.135 A 
ATOM      6  C   UNL d   1      28.156 -14.471  -6.448  0.00  0.00     0.079 A 
ATOM      7  C   UNL d   1      27.949 -13.026  -6.435  0.00  0.00     0.036 A 
ATOM      8  N   UNL d   1      28.550 -12.082  -7.243  0.00  0.00    -0.354 N 
ATOM      9  C   UNL d   1      28.177 -10.848  -6.888  0.00  0.00     0.181 A 
ATOM     10  N   UNL d   1      27.337 -10.992  -5.857  0.00  0.00    -0.352 N 
ATOM     11  C   UNL d   1      27.158 -12.342  -5.559  0.00  0.00     0.061 A 
ATOM     12  C   UNL d   1      26.399 -12.967  -4.448  0.00  0.00     0.177 A 
ATOM     13  H   UNL d   1      27.280 -16.319  -2.912  0.00  0.00     0.170 HD
ATOM     14  H   UNL d   1      29.210 -12.286  -7.992  0.00  0.00     0.166 HD
ATOM     15  H   UNL d   1      26.920 -10.210  -5.351  0.00  0.00     0.166 HD
ENDROOT
BRANCH  12  16
ATOM     16  C   UNL d   1      26.914 -12.413  -3.140  0.00  0.00     0.013 A 
ATOM     17  C   UNL d   1      27.727 -13.186  -2.306  0.00  0.00     0.016 A 
ATOM     18  C   UNL d   1      28.115 -12.673  -1.071  0.00  0.00     0.046 A 
ATOM     19  C   UNL d   1      27.784 -11.362  -0.723  0.00  0.00     0.158 A 
ATOM     20  F   UNL d   1      28.211 -10.871   0.446  0.00  0.00    -0.203 F 
ATOM     21  C   UNL d   1      27.030 -10.568  -1.569  0.00  0.00     0.193 A 
ATOM     22  F   UNL d   1      26.685  -9.320  -1.229  0.00  0.00    -0.200 F 
ATOM     23  C   UNL d   1      26.593 -11.095  -2.768  0.00  0.00     0.166 A 
ATOM     24  F   UNL d   1      25.850 -10.331  -3.586  0.00  0.00    -0.202 F 
ENDBRANCH  12  16
BRANCH   1  25
ATOM     25  C   UNL d   1      25.640 -16.840  -1.752  0.00  0.00     0.037 A 
ATOM     26  C   UNL d   1      26.332 -17.165  -0.576  0.00  0.00     0.029 A 
ATOM     27  C   UNL d   1      25.664 -17.826   0.472  0.00  0.00     0.003 A 
ATOM     28  C   UNL d   1      24.319 -18.194   0.341  0.00  0.00     0.018 A 
ATOM     29  C   UNL d   1      23.620 -17.849  -0.813  0.00  0.00     0.041 A 
ATOM     30  C   UNL d   1      24.289 -17.193  -1.843  0.00  0.00     0.047 A 
BRANCH  29  31
ATOM     31  C   UNL d   1      22.151 -18.019  -0.901  0.00  0.00     0.293 C 
ATOM     32  O   UNL d   1      21.381 -17.063  -0.895  0.00  0.00    -0.259 OA
BRANCH  31  33
ATOM     33  O   UNL d   1      21.800 -19.325  -1.013  0.00  0.00    -0.323 OA
ATOM     34  C   UNL d   1      20.488 -19.627  -0.515  0.00  0.00     0.213 C 
ENDBRANCH  31  33
ENDBRANCH  29  31
ENDBRANCH   1  25
TORSDOF 4
ENDMDL
MODEL 2
REMARK VINA RESULT:    -7.393      1.115      1.515
REMARK INTER + INTRA:          -9.484
REMARK INTER:                  -8.586
REMARK INTRA:                  -0.898
REMARK CONF_INDEPENDENT:        1.193
REMARK UNBOUND:                -0.898
REMARK  4 active torsions:
REMARK  status: ('A' for Active; 'I' for Inactive)
REMARK    1  A    between atoms: O_2  and  C_3 
REMARK    2  A    between atoms: C_3  and  C_5 
REMARK    3  A    between atoms: C_9  and  N_10 
REMARK       I    between atoms: N_10  and  C_11 
REMARK       I    between atoms: C_11  and  N_13 
REMARK    4  A    between atoms: C_21  and  C_22 
ROOT
ATOM      1  N   UNL d   1      26.750 -15.946  -2.971  0.00  0.00    -0.309 N 
ATOM      2  C   UNL d   1      26.137 -15.087  -3.869  0.00  0.00     0.323 C 
ATOM      3  O   UNL d   1      24.958 -14.743  -3.867  0.00  0.00    -0.247 OA
ATOM      4  N   UNL d   1      26.976 -14.460  -4.778  0.00  0.00    -0.319 N 
ATOM      5  C   UNL d   1      28.017 -15.201  -5.486  0.00  0.00     0.135 A 
ATOM      6  C   UNL d   1      28.827 -14.511  -6.595  0.00  0.00     0.079 A 
ATOM      7  C   UNL d   1      28.398 -13.137  -6.843  0.00  0.00     0.036 A 
ATOM      8  N   UNL d   1      28.953 -12.227  -7.720  0.00  0.00    -0.354 N 
ATOM      9  C   UNL d   1      28.346 -11.040  -7.618  0.00  0.00     0.181 A 
ATOM     10  N   UNL d   1      27.402 -11.180  -6.681  0.00  0.00    -0.352 N 
ATOM     11  C   UNL d   1      27.395 -12.484  -6.188  0.00  0.00     0.061 A 
ATOM     12  C   UNL d   1      26.594 -13.069  -5.084  0.00  0.00     0.177 A 
ATOM     13  H   UNL d   1      27.760 -15.960  -2.928  0.00  0.00     0.170 HD
ATOM     14  H   UNL d   1      29.735 -12.417  -8.345  0.00  0.00     0.166 HD
ATOM     15  H   UNL d   1      26.802 -10.420  -6.361  0.00  0.00     0.166 HD
ENDROOT
BRANCH  12  16
ATOM     16  C   UNL d   1      26.828 -12.252  -3.834  0.00  0.00     0.013 A 
ATOM     17  C   UNL d   1      25.986 -11.184  -3.510  0.00  0.00     0.016 A 
ATOM     18  C   UNL d   1      26.280 -10.402  -2.396  0.00  0.00     0.046 A 
ATOM     19  C   UNL d   1      27.340 -10.751  -1.556  0.00  0.00     0.158 A 
ATOM     20  F   UNL d   1      27.574 -10.017  -0.464  0.00  0.00    -0.203 F 
ATOM     21  C   UNL d   1      28.143 -11.843  -1.838  0.00  0.00     0.193 A 
ATOM     22  F   UNL d   1      29.179 -12.166  -1.053  0.00  0.00    -0.200 F 
ATOM     23  C   UNL d   1      27.890 -12.584  -2.974  0.00  0.00     0.166 A 
ATOM     24  F   UNL d   1      28.675 -13.637  -3.256  0.00  0.00    -0.202 F 
ENDBRANCH  12  16
BRANCH   1  25
ATOM     25  C   UNL d   1      26.074 -16.590  -1.895  0.00  0.00     0.037 A 
ATOM     26  C   UNL d   1      26.745 -16.877  -0.697  0.00  0.00     0.029 A 
ATOM     27  C   UNL d   1      26.052 -17.483   0.368  0.00  0.00     0.003 A 
ATOM     28  C   UNL d   1      24.703 -17.836   0.232  0.00  0.00     0.018 A 
ATOM     29  C   UNL d   1      24.026 -17.528  -0.944  0.00  0.00     0.041 A 
ATOM     30  C   UNL d   1      24.719 -16.925  -1.991  0.00  0.00     0.047 A 
BRANCH  29  31
ATOM     31  C   UNL d   1      22.555 -17.677  -1.046  0.00  0.00     0.293 C 
ATOM     32  O   UNL d   1      21.790 -16.730  -0.895  0.00  0.00    -0.259 OA
BRANCH  31  33
ATOM     33  O   UNL d   1      22.197 -18.952  -1.345  0.00  0.00    -0.323 OA
ATOM     34  C   UNL d   1      20.886 -19.318  -0.891  0.00  0.00     0.213 C 
ENDBRANCH  31  33
ENDBRANCH  29  31
ENDBRANCH   1  25
TORSDOF 4
ENDMDL
MODEL 3
REMARK VINA RESULT:    -6.969      2.886      3.709
REMARK INTER + INTRA:          -9.124
REMARK INTER:                  -8.163
REMARK INTRA:                  -0.961
REMARK CONF_INDEPENDENT:        1.193
REMARK UNBOUND:                -0.961
REMARK  4 active torsions:
REMARK  status: ('A' for Active; 'I' for Inactive)
REMARK    1  A    between atoms: O_2  and  C_3 
REMARK    2  A    between atoms: C_3  and  C_5 
REMARK    3  A    between atoms: C_9  and  N_10 
REMARK       I    between atoms: N_10  and  C_11 
REMARK       I    between atoms: C_11  and  N_13 
REMARK    4  A    between atoms: C_21  and  C_22 
ROOT
ATOM      1  N   UNL d   1      25.331 -15.601  -2.575  0.00  0.00    -0.309 N 
ATOM      2  C   UNL d   1      26.245 -14.596  -2.303  0.00  0.00     0.323 C 
ATOM      3  O   UNL d   1      26.864 -14.430  -1.255  0.00  0.00    -0.247 OA
ATOM      4  N   UNL d   1      26.581 -13.776  -3.371  0.00  0.00    -0.319 N 
ATOM      5  C   UNL d   1      25.560 -13.241  -4.268  0.00  0.00     0.135 A 
ATOM      6  C   UNL d   1      25.950 -12.218  -5.345  0.00  0.00     0.079 A 
ATOM      7  C   UNL d   1      27.364 -11.858  -5.305  0.00  0.00     0.036 A 
ATOM      8  N   UNL d   1      28.045 -11.021  -6.166  0.00  0.00    -0.354 N 
ATOM      9  C   UNL d   1      29.348 -10.993  -5.868  0.00  0.00     0.181 A 
ATOM     10  N   UNL d   1      29.510 -11.805  -4.817  0.00  0.00    -0.352 N 
ATOM     11  C   UNL d   1      28.287 -12.349  -4.428  0.00  0.00     0.061 A 
ATOM     12  C   UNL d   1      27.997 -13.364  -3.385  0.00  0.00     0.177 A 
ATOM     13  H   UNL d   1      25.076 -15.775  -3.538  0.00  0.00     0.170 HD
ATOM     14  H   UNL d   1      27.626 -10.511  -6.942  0.00  0.00     0.166 HD
ATOM     15  H   UNL d   1      30.415 -12.012  -4.394  0.00  0.00     0.166 HD
ENDROOT
BRANCH  12  16
ATOM     16  C   UNL d   1      28.823 -14.597  -3.671  0.00  0.00     0.013 A 
ATOM     17  C   UNL d   1      29.534 -15.234  -2.650  0.00  0.00     0.016 A 
ATOM     18  C   UNL d   1      30.350 -16.317  -2.965  0.00  0.00     0.046 A 
ATOM     19  C   UNL d   1      30.368 -16.825  -4.266  0.00  0.00     0.158 A 
ATOM     20  F   UNL d   1      31.119 -17.898  -4.536  0.00  0.00    -0.203 F 
ATOM     21  C   UNL d   1      29.620 -16.237  -5.271  0.00  0.00     0.193 A 
ATOM     22  F   UNL d   1      29.655 -16.700  -6.527  0.00  0.00    -0.200 F 
ATOM     23  C   UNL d   1      28.857 -15.126  -4.975  0.00  0.00     0.166 A 
ATOM     24  F   UNL d   1      28.139 -14.545  -5.950  0.00  0.00    -0.202 F 
ENDBRANCH  12  16
BRANCH   1  25
ATOM     25  C   UNL d   1      24.951 -16.607  -1.641  0.00  0.00     0.037 A 
ATOM     26  C   UNL d   1      25.871 -17.095  -0.700  0.00  0.00     0.029 A 
ATOM     27  C   UNL d   1      25.469 -18.065   0.238  0.00  0.00     0.003 A 
ATOM     28  C   UNL d   1      24.164 -18.575   0.221  0.00  0.00     0.018 A 
ATOM     29  C   UNL d   1      23.240 -18.074  -0.692  0.00  0.00     0.041 A 
ATOM     30  C   UNL d   1      23.647 -17.112  -1.613  0.00  0.00     0.047 A 
BRANCH  29  31
ATOM     31  C   UNL d   1      21.802 -18.419  -0.599  0.00  0.00     0.293 C 
ATOM     32  O   UNL d   1      20.918 -17.621  -0.895  0.00  0.00    -0.259 OA
BRANCH  31  33
ATOM     33  O   UNL d   1      21.617 -19.698  -0.184  0.00  0.00    -0.323 OA
ATOM     34  C   UNL d   1      20.240 -20.079  -0.045  0.00  0.00     0.213 C 
ENDBRANCH  31  33
ENDBRANCH  29  31
ENDBRANCH   1  25
TORSDOF 4
ENDMDL
MODEL 4
REMARK VINA RESULT:    -6.863      3.533      4.259
REMARK INTER + INTRA:          -9.077
REMARK INTER:                  -8.056
REMARK INTRA:                  -1.021
REMARK CONF_INDEPENDENT:        1.193
REMARK UNBOUND:                -1.021
REMARK  4 active torsions:
REMARK  status: ('A' for Active; 'I' for Inactive)
REMARK    1  A    between atoms: O_2  and  C_3 
REMARK    2  A    between atoms: C_3  and  C_5 
REMARK    3  A    between atoms: C_9  and  N_10 
REMARK       I    between atoms: N_10  and  C_11 
REMARK       I    between atoms: C_11  and  N_13 
REMARK    4  A    between atoms: C_21  and  C_22 
ROOT
ATOM      1  N   UNL d   1      25.678 -16.328  -2.559  0.00  0.00    -0.309 N 
ATOM      2  C   UNL d   1      26.614 -15.346  -2.280  0.00  0.00     0.323 C 
ATOM      3  O   UNL d   1      27.010 -15.004  -1.169  0.00  0.00    -0.247 OA
ATOM      4  N   UNL d   1      27.254 -14.789  -3.377  0.00  0.00    -0.319 N 
ATOM      5  C   UNL d   1      26.510 -14.392  -4.570  0.00  0.00     0.135 A 
ATOM      6  C   UNL d   1      27.227 -13.641  -5.703  0.00  0.00     0.079 A 
ATOM      7  C   UNL d   1      28.630 -13.368  -5.408  0.00  0.00     0.036 A 
ATOM      8  N   UNL d   1      29.564 -12.772  -6.232  0.00  0.00    -0.354 N 
ATOM      9  C   UNL d   1      30.769 -12.762  -5.653  0.00  0.00     0.181 A 
ATOM     10  N   UNL d   1      30.617 -13.346  -4.459  0.00  0.00    -0.352 N 
ATOM     11  C   UNL d   1      29.288 -13.721  -4.265  0.00  0.00     0.061 A 
ATOM     12  C   UNL d   1      28.677 -14.477  -3.144  0.00  0.00     0.177 A 
ATOM     13  H   UNL d   1      25.616 -16.683  -3.504  0.00  0.00     0.170 HD
ATOM     14  H   UNL d   1      29.376 -12.411  -7.165  0.00  0.00     0.166 HD
ATOM     15  H   UNL d   1      31.384 -13.515  -3.808  0.00  0.00     0.166 HD
ENDROOT
BRANCH  12  16
ATOM     16  C   UNL d   1      29.409 -15.791  -2.993  0.00  0.00     0.013 A 
ATOM     17  C   UNL d   1      29.900 -16.197  -1.750  0.00  0.00     0.016 A 
ATOM     18  C   UNL d   1      30.642 -17.373  -1.664  0.00  0.00     0.046 A 
ATOM     19  C   UNL d   1      30.795 -18.187  -2.789  0.00  0.00     0.158 A 
ATOM     20  F   UNL d   1      31.466 -19.337  -2.673  0.00  0.00    -0.203 F 
ATOM     21  C   UNL d   1      30.260 -17.821  -4.011  0.00  0.00     0.193 A 
ATOM     22  F   UNL d   1      30.428 -18.582  -5.100  0.00  0.00    -0.200 F 
ATOM     23  C   UNL d   1      29.576 -16.626  -4.113  0.00  0.00     0.166 A 
ATOM     24  F   UNL d   1      29.066 -16.263  -5.301  0.00  0.00    -0.202 F 
ENDBRANCH  12  16
BRANCH   1  25
ATOM     25  C   UNL d   1      25.003 -17.092  -1.564  0.00  0.00     0.037 A 
ATOM     26  C   UNL d   1      25.661 -17.473  -0.384  0.00  0.00     0.029 A 
ATOM     27  C   UNL d   1      24.969 -18.198   0.603  0.00  0.00     0.003 A 
ATOM     28  C   UNL d   1      23.634 -18.576   0.407  0.00  0.00     0.018 A 
ATOM     29  C   UNL d   1      22.968 -18.177  -0.749  0.00  0.00     0.041 A 
ATOM     30  C   UNL d   1      23.661 -17.456  -1.719  0.00  0.00     0.047 A 
BRANCH  29  31
ATOM     31  C   UNL d   1      21.505 -18.359  -0.895  0.00  0.00     0.293 C 
ATOM     32  O   UNL d   1      20.765 -17.448  -1.253  0.00  0.00    -0.259 OA
BRANCH  31  33
ATOM     33  O   UNL d   1      21.125 -19.631  -0.614  0.00  0.00    -0.323 OA
ATOM     34  C   UNL d   1      19.714 -19.793  -0.408  0.00  0.00     0.213 C 
ENDBRANCH  31  33
ENDBRANCH  29  31
ENDBRANCH   1  25
TORSDOF 4
ENDMDL
MODEL 5
REMARK VINA RESULT:    -6.644      4.323      7.601
REMARK INTER + INTRA:          -8.963
REMARK INTER:                  -7.837
REMARK INTRA:                  -1.126
REMARK CONF_INDEPENDENT:        1.193
REMARK UNBOUND:                -1.126
REMARK  4 active torsions:
REMARK  status: ('A' for Active; 'I' for Inactive)
REMARK    1  A    between atoms: O_2  and  C_3 
REMARK    2  A    between atoms: C_3  and  C_5 
REMARK    3  A    between atoms: C_9  and  N_10 
REMARK       I    between atoms: N_10  and  C_11 
REMARK       I    between atoms: C_11  and  N_13 
REMARK    4  A    between atoms: C_21  and  C_22 
ROOT
ATOM      1  N   UNL d   1      27.016 -12.360  -0.949  0.00  0.00    -0.309 N 
ATOM      2  C   UNL d   1      26.653 -13.325  -0.025  0.00  0.00     0.323 C 
ATOM      3  O   UNL d   1      26.044 -14.368  -0.252  0.00  0.00    -0.247 OA
ATOM      4  N   UNL d   1      27.142 -13.147   1.261  0.00  0.00    -0.319 N 
ATOM      5  C   UNL d   1      27.099 -11.841   1.916  0.00  0.00     0.135 A 
ATOM      6  C   UNL d   1      27.509 -11.713   3.391  0.00  0.00     0.079 A 
ATOM      7  C   UNL d   1      27.867 -12.992   3.997  0.00  0.00     0.036 A 
ATOM      8  N   UNL d   1      28.336 -13.216   5.276  0.00  0.00    -0.354 N 
ATOM      9  C   UNL d   1      28.635 -14.507   5.451  0.00  0.00     0.181 A 
ATOM     10  N   UNL d   1      28.360 -15.117   4.293  0.00  0.00    -0.352 N 
ATOM     11  C   UNL d   1      27.861 -14.202   3.367  0.00  0.00     0.061 A 
ATOM     12  C   UNL d   1      27.514 -14.403   1.939  0.00  0.00     0.177 A 
ATOM     13  H   UNL d   1      27.715 -11.678  -0.688  0.00  0.00     0.170 HD
ATOM     14  H   UNL d   1      28.465 -12.498   5.987  0.00  0.00     0.166 HD
ATOM     15  H   UNL d   1      28.530 -16.108   4.119  0.00  0.00     0.166 HD
ENDROOT
BRANCH  12  16
ATOM     16  C   UNL d   1      28.723 -14.960   1.223  0.00  0.00     0.013 A 
ATOM     17  C   UNL d   1      29.999 -14.446   1.468  0.00  0.00     0.016 A 
ATOM     18  C   UNL d   1      31.078 -14.926   0.731  0.00  0.00     0.046 A 
ATOM     19  C   UNL d   1      30.899 -15.984  -0.163  0.00  0.00     0.158 A 
ATOM     20  F   UNL d   1      31.958 -16.465  -0.823  0.00  0.00    -0.203 F 
ATOM     21  C   UNL d   1      29.649 -16.540  -0.368  0.00  0.00     0.193 A 
ATOM     22  F   UNL d   1      29.465 -17.535  -1.245  0.00  0.00    -0.200 F 
ATOM     23  C   UNL d   1      28.567 -16.026   0.317  0.00  0.00     0.166 A 
ATOM     24  F   UNL d   1      27.350 -16.555   0.111  0.00  0.00    -0.202 F 
ENDBRANCH  12  16
BRANCH   1  25
ATOM     25  C   UNL d   1      26.707 -12.430  -2.339  0.00  0.00     0.037 A 
ATOM     26  C   UNL d   1      26.543 -11.261  -3.097  0.00  0.00     0.029 A 
ATOM     27  C   UNL d   1      26.272 -11.350  -4.475  0.00  0.00     0.003 A 
ATOM     28  C   UNL d   1      26.130 -12.598  -5.095  0.00  0.00     0.018 A 
ATOM     29  C   UNL d   1      26.320 -13.761  -4.353  0.00  0.00     0.041 A 
ATOM     30  C   UNL d   1      26.592 -13.663  -2.991  0.00  0.00     0.047 A 
BRANCH  29  31
ATOM     31  C   UNL d   1      26.402 -15.087  -5.010  0.00  0.00     0.293 C 
ATOM     32  O   UNL d   1      25.530 -15.939  -4.872  0.00  0.00    -0.259 OA
BRANCH  31  33
ATOM     33  O   UNL d   1      27.518 -15.204  -5.772  0.00  0.00    -0.323 OA
ATOM     34  C   UNL d   1      28.719 -15.448  -5.025  0.00  0.00     0.213 C 
ENDBRANCH  31  33
ENDBRANCH  29  31
ENDBRANCH   1  25
TORSDOF 4
ENDMDL
MODEL 6
REMARK VINA RESULT:    -6.456      4.856      6.936
REMARK INTER + INTRA:          -8.575
REMARK INTER:                  -7.649
REMARK INTRA:                  -0.926
REMARK CONF_INDEPENDENT:        1.193
REMARK UNBOUND:                -0.926
REMARK  4 active torsions:
REMARK  status: ('A' for Active; 'I' for Inactive)
REMARK    1  A    between atoms: O_2  and  C_3 
REMARK    2  A    between atoms: C_3  and  C_5 
REMARK    3  A    between atoms: C_9  and  N_10 
REMARK       I    between atoms: N_10  and  C_11 
REMARK       I    between atoms: C_11  and  N_13 
REMARK    4  A    between atoms: C_21  and  C_22 
ROOT
ATOM      1  N   UNL d   1      28.833 -16.642  -0.070  0.00  0.00    -0.309 N 
ATOM      2  C   UNL d   1      29.677 -15.543  -0.059  0.00  0.00     0.323 C 
ATOM      3  O   UNL d   1      29.440 -14.431  -0.523  0.00  0.00    -0.247 OA
ATOM      4  N   UNL d   1      30.854 -15.690   0.660  0.00  0.00    -0.319 N 
ATOM      5  C   UNL d   1      31.669 -16.897   0.546  0.00  0.00     0.135 A 
ATOM      6  C   UNL d   1      33.039 -16.962   1.238  0.00  0.00     0.079 A 
ATOM      7  C   UNL d   1      33.390 -15.723   1.926  0.00  0.00     0.036 A 
ATOM      8  N   UNL d   1      34.511 -15.473   2.691  0.00  0.00    -0.354 N 
ATOM      9  C   UNL d   1      34.454 -14.251   3.230  0.00  0.00     0.181 A 
ATOM     10  N   UNL d   1      33.303 -13.710   2.815  0.00  0.00    -0.352 N 
ATOM     11  C   UNL d   1      32.621 -14.597   1.983  0.00  0.00     0.061 A 
ATOM     12  C   UNL d   1      31.274 -14.468   1.372  0.00  0.00     0.177 A 
ATOM     13  H   UNL d   1      29.039 -17.416   0.547  0.00  0.00     0.170 HD
ATOM     14  H   UNL d   1      35.271 -16.132   2.851  0.00  0.00     0.166 HD
ATOM     15  H   UNL d   1      32.971 -12.790   3.103  0.00  0.00     0.166 HD
ENDROOT
BRANCH  12  16
ATOM     16  C   UNL d   1      30.269 -14.219   2.472  0.00  0.00     0.013 A 
ATOM     17  C   UNL d   1      30.412 -14.825   3.723  0.00  0.00     0.016 A 
ATOM     18  C   UNL d   1      29.423 -14.639   4.685  0.00  0.00     0.046 A 
ATOM     19  C   UNL d   1      28.359 -13.769   4.436  0.00  0.00     0.158 A 
ATOM     20  F   UNL d   1      27.447 -13.564   5.392  0.00  0.00    -0.203 F 
ATOM     21  C   UNL d   1      28.242 -13.117   3.220  0.00  0.00     0.193 A 
ATOM     22  F   UNL d   1      27.209 -12.304   2.964  0.00  0.00    -0.200 F 
ATOM     23  C   UNL d   1      29.188 -13.347   2.243  0.00  0.00     0.166 A 
ATOM     24  F   UNL d   1      29.070 -12.725   1.058  0.00  0.00    -0.202 F 
ENDBRANCH  12  16
BRANCH   1  25
ATOM     25  C   UNL d   1      27.535 -16.644  -0.657  0.00  0.00     0.037 A 
ATOM     26  C   UNL d   1      26.424 -17.110   0.063  0.00  0.00     0.029 A 
ATOM     27  C   UNL d   1      25.143 -17.073  -0.520  0.00  0.00     0.003 A 
ATOM     28  C   UNL d   1      24.969 -16.606  -1.829  0.00  0.00     0.018 A 
ATOM     29  C   UNL d   1      26.063 -16.117  -2.537  0.00  0.00     0.041 A 
ATOM     30  C   UNL d   1      27.326 -16.154  -1.951  0.00  0.00     0.047 A 
BRANCH  29  31
ATOM     31  C   UNL d   1      25.890 -15.412  -3.830  0.00  0.00     0.293 C 
ATOM     32  O   UNL d   1      26.660 -15.575  -4.771  0.00  0.00    -0.259 OA
BRANCH  31  33
ATOM     33  O   UNL d   1      24.790 -14.617  -3.826  0.00  0.00    -0.323 OA
ATOM     34  C   UNL d   1      25.076 -13.215  -3.936  0.00  0.00     0.213 C 
ENDBRANCH  31  33
ENDBRANCH  29  31
ENDBRANCH   1  25
TORSDOF 4
ENDMDL
MODEL 7
REMARK VINA RESULT:    -6.456      4.316      6.630
REMARK INTER + INTRA:          -8.676
REMARK INTER:                  -7.649
REMARK INTRA:                  -1.027
REMARK CONF_INDEPENDENT:        1.193
REMARK UNBOUND:                -1.027
REMARK  4 active torsions:
REMARK  status: ('A' for Active; 'I' for Inactive)
REMARK    1  A    between atoms: O_2  and  C_3 
REMARK    2  A    between atoms: C_3  and  C_5 
REMARK    3  A    between atoms: C_9  and  N_10 
REMARK       I    between atoms: N_10  and  C_11 
REMARK       I    between atoms: C_11  and  N_13 
REMARK    4  A    between atoms: C_21  and  C_22 
ROOT
ATOM      1  N   UNL d   1      29.816 -15.225  -5.173  0.00  0.00    -0.309 N 
ATOM      2  C   UNL d   1      28.621 -14.656  -5.584  0.00  0.00     0.323 C 
ATOM      3  O   UNL d   1      27.718 -15.212  -6.204  0.00  0.00    -0.247 OA
ATOM      4  N   UNL d   1      28.378 -13.367  -5.135  0.00  0.00    -0.319 N 
ATOM      5  C   UNL d   1      29.416 -12.340  -5.174  0.00  0.00     0.135 A 
ATOM      6  C   UNL d   1      29.069 -10.888  -4.811  0.00  0.00     0.079 A 
ATOM      7  C   UNL d   1      27.655 -10.701  -4.497  0.00  0.00     0.036 A 
ATOM      8  N   UNL d   1      27.032  -9.544  -4.074  0.00  0.00    -0.354 N 
ATOM      9  C   UNL d   1      25.743  -9.771  -3.805  0.00  0.00     0.181 A 
ATOM     10  N   UNL d   1      25.530 -11.069  -4.053  0.00  0.00    -0.352 N 
ATOM     11  C   UNL d   1      26.701 -11.676  -4.505  0.00  0.00     0.061 A 
ATOM     12  C   UNL d   1      26.963 -13.105  -4.808  0.00  0.00     0.177 A 
ATOM     13  H   UNL d   1      30.363 -14.747  -4.470  0.00  0.00     0.170 HD
ATOM     14  H   UNL d   1      27.490  -8.642  -3.956  0.00  0.00     0.166 HD
ATOM     15  H   UNL d   1      24.638 -11.538  -3.897  0.00  0.00     0.166 HD
ENDROOT
BRANCH  12  16
ATOM     16  C   UNL d   1      26.622 -13.927  -3.587  0.00  0.00     0.013 A 
ATOM     17  C   UNL d   1      26.982 -13.492  -2.309  0.00  0.00     0.016 A 
ATOM     18  C   UNL d   1      26.726 -14.314  -1.214  0.00  0.00     0.046 A 
ATOM     19  C   UNL d   1      26.021 -15.507  -1.385  0.00  0.00     0.158 A 
ATOM     20  F   UNL d   1      25.740 -16.257  -0.315  0.00  0.00    -0.203 F 
ATOM     21  C   UNL d   1      25.608 -15.917  -2.641  0.00  0.00     0.193 A 
ATOM     22  F   UNL d   1      24.957 -17.075  -2.816  0.00  0.00    -0.200 F 
ATOM     23  C   UNL d   1      25.913 -15.134  -3.735  0.00  0.00     0.166 A 
ATOM     24  F   UNL d   1      25.525 -15.535  -4.957  0.00  0.00    -0.202 F 
ENDBRANCH  12  16
BRANCH   1  25
ATOM     25  C   UNL d   1      30.188 -16.575  -5.437  0.00  0.00     0.037 A 
ATOM     26  C   UNL d   1      30.063 -17.560  -4.446  0.00  0.00     0.029 A 
ATOM     27  C   UNL d   1      30.404 -18.895  -4.735  0.00  0.00     0.003 A 
ATOM     28  C   UNL d   1      30.901 -19.247  -5.996  0.00  0.00     0.018 A 
ATOM     29  C   UNL d   1      31.000 -18.279  -6.992  0.00  0.00     0.041 A 
ATOM     30  C   UNL d   1      30.657 -16.961  -6.697  0.00  0.00     0.047 A 
BRANCH  29  31
ATOM     31  C   UNL d   1      31.305 -18.647  -8.395  0.00  0.00     0.293 C 
ATOM     32  O   UNL d   1      32.148 -18.052  -9.058  0.00  0.00    -0.259 OA
BRANCH  31  33
ATOM     33  O   UNL d   1      30.567 -19.708  -8.809  0.00  0.00    -0.323 OA
ATOM     34  C   UNL d   1      30.781 -20.075 -10.180  0.00  0.00     0.213 C 
ENDBRANCH  31  33
ENDBRANCH  29  31
ENDBRANCH   1  25
TORSDOF 4
ENDMDL
MODEL 8
REMARK VINA RESULT:    -6.319      4.767      7.339
REMARK INTER + INTRA:          -8.609
REMARK INTER:                  -7.513
REMARK INTRA:                  -1.096
REMARK CONF_INDEPENDENT:        1.193
REMARK UNBOUND:                -1.096
REMARK  4 active torsions:
REMARK  status: ('A' for Active; 'I' for Inactive)
REMARK    1  A    between atoms: O_2  and  C_3 
REMARK    2  A    between atoms: C_3  and  C_5 
REMARK    3  A    between atoms: C_9  and  N_10 
REMARK       I    between atoms: N_10  and  C_11 
REMARK       I    between atoms: C_11  and  N_13 
REMARK    4  A    between atoms: C_21  and  C_22 
ROOT
ATOM      1  N   UNL d   1      27.287 -13.041  -0.043  0.00  0.00    -0.309 N 
ATOM      2  C   UNL d   1      26.638 -12.518   1.063  0.00  0.00     0.323 C 
ATOM      3  O   UNL d   1      25.644 -12.980   1.617  0.00  0.00    -0.247 OA
ATOM      4  N   UNL d   1      27.254 -11.436   1.673  0.00  0.00    -0.319 N 
ATOM      5  C   UNL d   1      27.794 -10.328   0.889  0.00  0.00     0.135 A 
ATOM      6  C   UNL d   1      28.333  -9.078   1.602  0.00  0.00     0.079 A 
ATOM      7  C   UNL d   1      28.189  -9.143   3.053  0.00  0.00     0.036 A 
ATOM      8  N   UNL d   1      28.625  -8.222   3.985  0.00  0.00    -0.354 N 
ATOM      9  C   UNL d   1      28.389  -8.657   5.227  0.00  0.00     0.181 A 
ATOM     10  N   UNL d   1      27.802  -9.853   5.101  0.00  0.00    -0.352 N 
ATOM     11  C   UNL d   1      27.645 -10.179   3.755  0.00  0.00     0.061 A 
ATOM     12  C   UNL d   1      27.137 -11.433   3.144  0.00  0.00     0.177 A 
ATOM     13  H   UNL d   1      28.221 -12.715  -0.255  0.00  0.00     0.170 HD
ATOM     14  H   UNL d   1      29.087  -7.342   3.767  0.00  0.00     0.166 HD
ATOM     15  H   UNL d   1      27.542 -10.444   5.891  0.00  0.00     0.166 HD
ENDROOT
BRANCH  12  16
ATOM     16  C   UNL d   1      27.959 -12.590   3.664  0.00  0.00     0.013 A 
ATOM     17  C   UNL d   1      27.406 -13.518   4.550  0.00  0.00     0.016 A 
ATOM     18  C   UNL d   1      28.215 -14.523   5.074  0.00  0.00     0.046 A 
ATOM     19  C   UNL d   1      29.532 -14.662   4.631  0.00  0.00     0.158 A 
ATOM     20  F   UNL d   1      30.277 -15.665   5.108  0.00  0.00    -0.203 F 
ATOM     21  C   UNL d   1      30.070 -13.782   3.708  0.00  0.00     0.193 A 
ATOM     22  F   UNL d   1      31.341 -13.893   3.301  0.00  0.00    -0.200 F 
ATOM     23  C   UNL d   1      29.288 -12.749   3.233  0.00  0.00     0.166 A 
ATOM     24  F   UNL d   1      29.812 -11.887   2.346  0.00  0.00    -0.202 F 
ENDBRANCH  12  16
BRANCH   1  25
ATOM     25  C   UNL d   1      26.870 -14.217  -0.731  0.00  0.00     0.037 A 
ATOM     26  C   UNL d   1      26.600 -15.400  -0.028  0.00  0.00     0.029 A 
ATOM     27  C   UNL d   1      26.156 -16.543  -0.720  0.00  0.00     0.003 A 
ATOM     28  C   UNL d   1      26.012 -16.522  -2.113  0.00  0.00     0.018 A 
ATOM     29  C   UNL d   1      26.252 -15.342  -2.813  0.00  0.00     0.041 A 
ATOM     30  C   UNL d   1      26.687 -14.216  -2.119  0.00  0.00     0.047 A 
BRANCH  29  31
ATOM     31  C   UNL d   1      25.899 -15.212  -4.246  0.00  0.00     0.293 C 
ATOM     32  O   UNL d   1      24.802 -14.802  -4.614  0.00  0.00    -0.259 OA
BRANCH  31  33
ATOM     33  O   UNL d   1      26.929 -15.571  -5.053  0.00  0.00    -0.323 OA
ATOM     34  C   UNL d   1      27.656 -14.465  -5.608  0.00  0.00     0.213 C 
ENDBRANCH  31  33
ENDBRANCH  29  31
ENDBRANCH   1  25
TORSDOF 4
ENDMDL
MODEL 9
REMARK VINA RESULT:    -6.314      2.548      3.284
REMARK INTER + INTRA:          -8.610
REMARK INTER:                  -7.507
REMARK INTRA:                  -1.103
REMARK CONF_INDEPENDENT:        1.193
REMARK UNBOUND:                -1.103
REMARK  4 active torsions:
REMARK  status: ('A' for Active; 'I' for Inactive)
REMARK    1  A    between atoms: O_2  and  C_3 
REMARK    2  A    between atoms: C_3  and  C_5 
REMARK    3  A    between atoms: C_9  and  N_10 
REMARK       I    between atoms: N_10  and  C_11 
REMARK       I    between atoms: C_11  and  N_13 
REMARK    4  A    between atoms: C_21  and  C_22 
ROOT
ATOM      1  N   UNL d   1      25.627 -16.513  -2.389  0.00  0.00    -0.309 N 
ATOM      2  C   UNL d   1      26.111 -15.226  -2.221  0.00  0.00     0.323 C 
ATOM      3  O   UNL d   1      25.983 -14.517  -1.226  0.00  0.00    -0.247 OA
ATOM      4  N   UNL d   1      26.928 -14.748  -3.234  0.00  0.00    -0.319 N 
ATOM      5  C   UNL d   1      26.578 -14.929  -4.641  0.00  0.00     0.135 A 
ATOM      6  C   UNL d   1      27.426 -14.256  -5.732  0.00  0.00     0.079 A 
ATOM      7  C   UNL d   1      28.510 -13.440  -5.191  0.00  0.00     0.036 A 
ATOM      8  N   UNL d   1      29.484 -12.759  -5.894  0.00  0.00    -0.354 N 
ATOM      9  C   UNL d   1      30.357 -12.187  -5.059  0.00  0.00     0.181 A 
ATOM     10  N   UNL d   1      29.951 -12.493  -3.822  0.00  0.00    -0.352 N 
ATOM     11  C   UNL d   1      28.788 -13.261  -3.867  0.00  0.00     0.061 A 
ATOM     12  C   UNL d   1      28.040 -13.904  -2.757  0.00  0.00     0.177 A 
ATOM     13  H   UNL d   1      26.000 -17.075  -3.143  0.00  0.00     0.170 HD
ATOM     14  H   UNL d   1      29.550 -12.715  -6.909  0.00  0.00     0.166 HD
ATOM     15  H   UNL d   1      30.452 -12.222  -2.976  0.00  0.00     0.166 HD
ENDROOT
BRANCH  12  16
ATOM     16  C   UNL d   1      28.989 -14.797  -1.992  0.00  0.00     0.013 A 
ATOM     17  C   UNL d   1      29.530 -15.941  -2.585  0.00  0.00     0.016 A 
ATOM     18  C   UNL d   1      30.334 -16.785  -1.824  0.00  0.00     0.046 A 
ATOM     19  C   UNL d   1      30.679 -16.432  -0.518  0.00  0.00     0.158 A 
ATOM     20  F   UNL d   1      31.494 -17.231   0.179  0.00  0.00    -0.203 F 
ATOM     21  C   UNL d   1      30.196 -15.271   0.058  0.00  0.00     0.193 A 
ATOM     22  F   UNL d   1      30.500 -14.941   1.320  0.00  0.00    -0.200 F 
ATOM     23  C   UNL d   1      29.350 -14.462  -0.674  0.00  0.00     0.166 A 
ATOM     24  F   UNL d   1      28.869 -13.340  -0.113  0.00  0.00    -0.202 F 
ENDBRANCH  12  16
BRANCH   1  25
ATOM     25  C   UNL d   1      24.870 -17.214  -1.408  0.00  0.00     0.037 A 
ATOM     26  C   UNL d   1      25.432 -17.536  -0.163  0.00  0.00     0.029 A 
ATOM     27  C   UNL d   1      24.658 -18.199   0.807  0.00  0.00     0.003 A 
ATOM     28  C   UNL d   1      23.337 -18.574   0.531  0.00  0.00     0.018 A 
ATOM     29  C   UNL d   1      22.765 -18.233  -0.692  0.00  0.00     0.041 A 
ATOM     30  C   UNL d   1      23.538 -17.573  -1.644  0.00  0.00     0.047 A 
BRANCH  29  31
ATOM     31  C   UNL d   1      21.314 -18.409  -0.938  0.00  0.00     0.293 C 
ATOM     32  O   UNL d   1      20.590 -17.477  -1.270  0.00  0.00    -0.259 OA
BRANCH  31  33
ATOM     33  O   UNL d   1      20.929 -19.701  -0.776  0.00  0.00    -0.323 OA
ATOM     34  C   UNL d   1      20.118 -19.932   0.385  0.00  0.00     0.213 C 
ENDBRANCH  31  33
ENDBRANCH  29  31
ENDBRANCH   1  25
TORSDOF 4
ENDMDL
