MODEL 1
REMARK VINA RESULT:    -8.867      0.000      0.000
REMARK INTER + INTRA:         -18.377
REMARK INTER:                 -13.939
REMARK INTRA:                  -4.438
REMARK CONF_INDEPENDENT:        5.071
REMARK UNBOUND:                -4.438
REMARK  17 active torsions:
REMARK  status: ('A' for Active; 'I' for Inactive)
REMARK    1  A    between atoms: C_2  and  C_3 
REMARK    2  A    between atoms: C_3  and  C_4 
REMARK    3  A    between atoms: C_4  and  C_5 
REMARK    4  A    between atoms: C_6  and  C_5 
REMARK    5  A    between atoms: C_6  and  C_19 
REMARK    6  A    between atoms: C_6  and  C_7 
REMARK    7  A    between atoms: C_7  and  C_8 
REMARK       I    between atoms: C_8  and  N_10 
REMARK    8  A    between atoms: N_10  and  O_11 
REMARK    9  A    between atoms: O_11  and  C_12 
REMARK   10  A    between atoms: C_12  and  C_13 
REMARK       I    between atoms: C_19  and  N_21 
REMARK   11  A    between atoms: C_22  and  N_21 
REMARK   12  A    between atoms: C_22  and  C_39 
REMARK   13  A    between atoms: C_22  and  C_23 
REMARK       I    between atoms: C_23  and  N_25 
REMARK   14  A    between atoms: C_29  and  C_30 
REMARK   15  A    between atoms: C_30  and  O_31 
REMARK   16  A    between atoms: O_31  and  C_32 
REMARK   17  A    between atoms: C_32  and  C_33 
ROOT
ATOM      1  C   UNL d   1      27.219 -17.666   0.050  0.00  0.00     0.223 C 
ATOM      2  O   UNL d   1      26.612 -18.588   0.550  0.00  0.00    -0.273 OA
ATOM      3  N   UNL d   1      28.578 -17.825  -0.185  0.00  0.00    -0.347 N 
ATOM      4  H   UNL d   1      28.825 -18.799  -0.016  0.00  0.00     0.163 HD
ENDROOT
BRANCH   3   5
ATOM      5  C   UNL d   1      29.606 -17.036  -0.954  0.00  0.00     0.180 C 
BRANCH   5   6
ATOM      6  C   UNL d   1      30.942 -17.843  -1.100  0.00  0.00     0.009 C 
ATOM      7  C   UNL d   1      31.990 -17.413  -0.076  0.00  0.00     0.012 C 
ATOM      8  C   UNL d   1      30.781 -19.333  -0.905  0.00  0.00     0.012 C 
ENDBRANCH   5   6
BRANCH   5   9
ATOM      9  C   UNL d   1      29.292 -16.620  -2.431  0.00  0.00     0.243 C 
ATOM     10  O   UNL d   1      28.097 -16.449  -2.748  0.00  0.00    -0.271 OA
ATOM     11  N   UNL d   1      30.265 -16.765  -3.414  0.00  0.00    -0.344 N 
ATOM     12  C   UNL d   1      30.028 -17.874  -4.283  0.00  0.00     0.126 C 
ATOM     13  C   UNL d   1      30.901 -15.748  -4.327  0.00  0.00     0.111 C 
ATOM     14  C   UNL d   1      31.306 -17.913  -5.056  0.00  0.00     0.022 C 
ATOM     15  C   UNL d   1      31.431 -16.517  -5.528  0.00  0.00     0.029 C 
BRANCH  13  16
ATOM     16  C   UNL d   1      30.061 -14.810  -5.108  0.00  0.00     0.193 C 
BRANCH  16  17
ATOM     17  O   UNL d   1      29.474 -15.365  -6.336  0.00  0.00    -0.385 OA
BRANCH  17  18
ATOM     18  C   UNL d   1      28.182 -14.740  -6.516  0.00  0.00     0.206 C 
BRANCH  18  19
ATOM     19  C   UNL d   1      27.068 -14.480  -5.448  0.00  0.00    -0.035 A 
ATOM     20  C   UNL d   1      27.347 -13.337  -4.755  0.00  0.00     0.009 A 
ATOM     21  C   UNL d   1      26.772 -13.140  -3.508  0.00  0.00     0.001 A 
ATOM     22  C   UNL d   1      25.846 -14.025  -2.936  0.00  0.00     0.000 A 
ATOM     23  C   UNL d   1      25.530 -15.201  -3.567  0.00  0.00     0.001 A 
ATOM     24  C   UNL d   1      26.114 -15.411  -4.818  0.00  0.00     0.009 A 
ENDBRANCH  18  19
ENDBRANCH  17  18
ENDBRANCH  16  17
ENDBRANCH  13  16
ENDBRANCH   5   9
ENDBRANCH   3   5
BRANCH   1  25
ATOM     25  C   UNL d   1      26.523 -16.324  -0.252  0.00  0.00     0.086 C 
BRANCH  25  26
ATOM     26  C   UNL d   1      24.950 -16.368  -0.281  0.00  0.00     0.119 C 
BRANCH  26  27
ATOM     27  C   UNL d   1      24.280 -17.567  -1.010  0.00  0.00     0.241 C 
ATOM     28  O   UNL d   1      24.130 -17.632  -2.265  0.00  0.00    -0.271 OA
ATOM     29  N   UNL d   1      23.713 -18.491  -0.161  0.00  0.00    -0.235 N 
ATOM     30  H   UNL d   1      24.359 -18.940   0.474  0.00  0.00     0.197 HD
BRANCH  29  31
ATOM     31  O   UNL d   1      22.757 -19.331  -0.807  0.00  0.00    -0.273 OA
BRANCH  31  32
ATOM     32  C   UNL d   1      21.492 -18.687  -0.891  0.00  0.00     0.240 C 
BRANCH  32  33
ATOM     33  C   UNL d   1      20.483 -19.368  -0.001  0.00  0.00    -0.032 A 
ATOM     34  C   UNL d   1      20.654 -19.328   1.388  0.00  0.00     0.009 A 
ATOM     35  C   UNL d   1      19.803 -20.051   2.224  0.00  0.00     0.001 A 
ATOM     36  C   UNL d   1      18.710 -20.732   1.691  0.00  0.00     0.000 A 
ATOM     37  C   UNL d   1      18.490 -20.726   0.318  0.00  0.00     0.001 A 
ATOM     38  C   UNL d   1      19.370 -20.044  -0.520  0.00  0.00     0.009 A 
ENDBRANCH  32  33
ENDBRANCH  31  32
ENDBRANCH  29  31
ENDBRANCH  26  27
ENDBRANCH  25  26
BRANCH  25  39
ATOM     39  C   UNL d   1      26.966 -15.259   0.791  0.00  0.00     0.014 C 
BRANCH  39  40
ATOM     40  C   UNL d   1      26.686 -13.912   0.173  0.00  0.00     0.001 C 
BRANCH  40  41
ATOM     41  C   UNL d   1      27.257 -12.625   0.600  0.00  0.00    -0.000 C 
BRANCH  41  42
ATOM     42  C   UNL d   1      26.908 -12.100   1.971  0.00  0.00    -0.005 C 
ATOM     43  C   UNL d   1      27.602 -10.922   2.570  0.00  0.00     0.005 C 
ENDBRANCH  41  42
ENDBRANCH  40  41
ENDBRANCH  39  40
ENDBRANCH  25  39
ENDBRANCH   1  25
TORSDOF 17
ENDMDL
MODEL 2
REMARK VINA RESULT:    -8.512      1.743      6.948
REMARK INTER + INTRA:         -18.660
REMARK INTER:                 -13.583
REMARK INTRA:                  -5.077
REMARK CONF_INDEPENDENT:        5.071
REMARK UNBOUND:                -5.077
REMARK  17 active torsions:
REMARK  status: ('A' for Active; 'I' for Inactive)
REMARK    1  A    between atoms: C_2  and  C_3 
REMARK    2  A    between atoms: C_3  and  C_4 
REMARK    3  A    between atoms: C_4  and  C_5 
REMARK    4  A    between atoms: C_6  and  C_5 
REMARK    5  A    between atoms: C_6  and  C_19 
REMARK    6  A    between atoms: C_6  and  C_7 
REMARK    7  A    between atoms: C_7  and  C_8 
REMARK       I    between atoms: C_8  and  N_10 
REMARK    8  A    between atoms: N_10  and  O_11 
REMARK    9  A    between atoms: O_11  and  C_12 
REMARK   10  A    between atoms: C_12  and  C_13 
REMARK       I    between atoms: C_19  and  N_21 
REMARK   11  A    between atoms: C_22  and  N_21 
REMARK   12  A    between atoms: C_22  and  C_39 
REMARK   13  A    between atoms: C_22  and  C_23 
REMARK       I    between atoms: C_23  and  N_25 
REMARK   14  A    between atoms: C_29  and  C_30 
REMARK   15  A    between atoms: C_30  and  O_31 
REMARK   16  A    between atoms: O_31  and  C_32 
REMARK   17  A    between atoms: C_32  and  C_33 
ROOT
ATOM      1  C   UNL d   1      26.204 -17.705   0.572  0.00  0.00     0.223 C 
ATOM      2  O   UNL d   1      26.317 -18.576   1.408  0.00  0.00    -0.273 OA
ATOM      3  N   UNL d   1      27.295 -16.882   0.331  0.00  0.00    -0.347 N 
ATOM      4  H   UNL d   1      28.102 -17.259   0.827  0.00  0.00     0.163 HD
ENDROOT
BRANCH   3   5
ATOM      5  C   UNL d   1      27.624 -15.865  -0.731  0.00  0.00     0.180 C 
BRANCH   5   6
ATOM      6  C   UNL d   1      28.073 -14.507  -0.091  0.00  0.00     0.009 C 
ATOM      7  C   UNL d   1      27.026 -13.411  -0.271  0.00  0.00     0.012 C 
ATOM      8  C   UNL d   1      28.319 -14.583   1.398  0.00  0.00     0.012 C 
ENDBRANCH   5   6
BRANCH   5   9
ATOM      9  C   UNL d   1      28.784 -16.171  -1.739  0.00  0.00     0.243 C 
ATOM     10  O   UNL d   1      28.485 -16.347  -2.937  0.00  0.00    -0.271 OA
ATOM     11  N   UNL d   1      30.031 -16.560  -1.262  0.00  0.00    -0.344 N 
ATOM     12  C   UNL d   1      30.289 -17.955  -1.430  0.00  0.00     0.126 C 
ATOM     13  C   UNL d   1      31.392 -15.938  -1.445  0.00  0.00     0.111 C 
ATOM     14  C   UNL d   1      31.553 -18.111  -0.647  0.00  0.00     0.022 C 
ATOM     15  C   UNL d   1      32.409 -17.046  -1.215  0.00  0.00     0.029 C 
BRANCH  13  16
ATOM     16  C   UNL d   1      31.875 -15.569  -2.797  0.00  0.00     0.193 C 
BRANCH  16  17
ATOM     17  O   UNL d   1      30.843 -15.069  -3.717  0.00  0.00    -0.385 OA
BRANCH  17  18
ATOM     18  C   UNL d   1      31.173 -15.559  -5.038  0.00  0.00     0.206 C 
BRANCH  18  19
ATOM     19  C   UNL d   1      30.768 -16.916  -5.703  0.00  0.00    -0.035 A 
ATOM     20  C   UNL d   1      30.391 -17.810  -4.742  0.00  0.00     0.009 A 
ATOM     21  C   UNL d   1      30.413 -19.166  -5.028  0.00  0.00     0.001 A 
ATOM     22  C   UNL d   1      30.735 -19.685  -6.292  0.00  0.00     0.000 A 
ATOM     23  C   UNL d   1      31.140 -18.848  -7.301  0.00  0.00     0.001 A 
ATOM     24  C   UNL d   1      31.130 -17.481  -7.016  0.00  0.00     0.009 A 
ENDBRANCH  18  19
ENDBRANCH  17  18
ENDBRANCH  16  17
ENDBRANCH  13  16
ENDBRANCH   5   9
ENDBRANCH   3   5
BRANCH   1  25
ATOM     25  C   UNL d   1      24.866 -17.466  -0.154  0.00  0.00     0.086 C 
BRANCH  25  26
ATOM     26  C   UNL d   1      24.949 -17.403  -1.724  0.00  0.00     0.119 C 
BRANCH  26  27
ATOM     27  C   UNL d   1      24.780 -16.010  -2.396  0.00  0.00     0.241 C 
ATOM     28  O   UNL d   1      23.907 -15.162  -2.048  0.00  0.00    -0.271 OA
ATOM     29  N   UNL d   1      25.562 -15.832  -3.515  0.00  0.00    -0.235 N 
ATOM     30  H   UNL d   1      26.558 -15.891  -3.354  0.00  0.00     0.197 HD
BRANCH  29  31
ATOM     31  O   UNL d   1      25.107 -14.768  -4.351  0.00  0.00    -0.273 OA
BRANCH  31  32
ATOM     32  C   UNL d   1      25.942 -13.626  -4.215  0.00  0.00     0.240 C 
BRANCH  32  33
ATOM     33  C   UNL d   1      27.039 -13.636  -5.250  0.00  0.00    -0.032 A 
ATOM     34  C   UNL d   1      27.525 -12.421  -5.747  0.00  0.00     0.009 A 
ATOM     35  C   UNL d   1      28.451 -12.407  -6.790  0.00  0.00     0.001 A 
ATOM     36  C   UNL d   1      28.981 -13.602  -7.274  0.00  0.00     0.000 A 
ATOM     37  C   UNL d   1      28.554 -14.815  -6.744  0.00  0.00     0.001 A 
ATOM     38  C   UNL d   1      27.592 -14.829  -5.735  0.00  0.00     0.009 A 
ENDBRANCH  32  33
ENDBRANCH  31  32
ENDBRANCH  29  31
ENDBRANCH  26  27
ENDBRANCH  25  26
BRANCH  25  39
ATOM     39  C   UNL d   1      23.850 -18.575   0.240  0.00  0.00     0.014 C 
BRANCH  39  40
ATOM     40  C   UNL d   1      22.877 -18.693  -0.906  0.00  0.00     0.001 C 
BRANCH  40  41
ATOM     41  C   UNL d   1      21.468 -18.272  -0.895  0.00  0.00    -0.000 C 
BRANCH  41  42
ATOM     42  C   UNL d   1      20.397 -19.333  -0.959  0.00  0.00    -0.005 C 
ATOM     43  C   UNL d   1      19.503 -19.630   0.199  0.00  0.00     0.005 C 
ENDBRANCH  41  42
ENDBRANCH  40  41
ENDBRANCH  39  40
ENDBRANCH  25  39
ENDBRANCH   1  25
TORSDOF 17
ENDMDL
MODEL 3
REMARK VINA RESULT:    -8.359      2.973      8.226
REMARK INTER + INTRA:         -18.036
REMARK INTER:                 -13.431
REMARK INTRA:                  -4.605
REMARK CONF_INDEPENDENT:        5.071
REMARK UNBOUND:                -4.605
REMARK  17 active torsions:
REMARK  status: ('A' for Active; 'I' for Inactive)
REMARK    1  A    between atoms: C_2  and  C_3 
REMARK    2  A    between atoms: C_3  and  C_4 
REMARK    3  A    between atoms: C_4  and  C_5 
REMARK    4  A    between atoms: C_6  and  C_5 
REMARK    5  A    between atoms: C_6  and  C_19 
REMARK    6  A    between atoms: C_6  and  C_7 
REMARK    7  A    between atoms: C_7  and  C_8 
REMARK       I    between atoms: C_8  and  N_10 
REMARK    8  A    between atoms: N_10  and  O_11 
REMARK    9  A    between atoms: O_11  and  C_12 
REMARK   10  A    between atoms: C_12  and  C_13 
REMARK       I    between atoms: C_19  and  N_21 
REMARK   11  A    between atoms: C_22  and  N_21 
REMARK   12  A    between atoms: C_22  and  C_39 
REMARK   13  A    between atoms: C_22  and  C_23 
REMARK       I    between atoms: C_23  and  N_25 
REMARK   14  A    between atoms: C_29  and  C_30 
REMARK   15  A    between atoms: C_30  and  O_31 
REMARK   16  A    between atoms: O_31  and  C_32 
REMARK   17  A    between atoms: C_32  and  C_33 
ROOT
ATOM      1  C   UNL d   1      27.790 -16.234  -1.418  0.00  0.00     0.223 C 
ATOM      2  O   UNL d   1      28.198 -16.673  -2.472  0.00  0.00    -0.273 OA
ATOM      3  N   UNL d   1      28.721 -15.821  -0.475  0.00  0.00    -0.347 N 
ATOM      4  H   UNL d   1      29.645 -15.826  -0.906  0.00  0.00     0.163 HD
ENDROOT
BRANCH   3   5
ATOM      5  C   UNL d   1      28.631 -15.049   0.817  0.00  0.00     0.180 C 
BRANCH   5   6
ATOM      6  C   UNL d   1      29.978 -14.311   1.127  0.00  0.00     0.009 C 
ATOM      7  C   UNL d   1      30.174 -14.074   2.623  0.00  0.00     0.012 C 
ATOM      8  C   UNL d   1      31.207 -15.065   0.678  0.00  0.00     0.012 C 
ENDBRANCH   5   6
BRANCH   5   9
ATOM      9  C   UNL d   1      27.572 -13.901   0.940  0.00  0.00     0.243 C 
ATOM     10  O   UNL d   1      26.367 -14.221   0.989  0.00  0.00    -0.271 OA
ATOM     11  N   UNL d   1      27.939 -12.588   0.668  0.00  0.00    -0.344 N 
ATOM     12  C   UNL d   1      27.456 -12.117  -0.591  0.00  0.00     0.126 C 
ATOM     13  C   UNL d   1      27.892 -11.354   1.533  0.00  0.00     0.111 C 
ATOM     14  C   UNL d   1      28.174 -10.811  -0.705  0.00  0.00     0.022 C 
ATOM     15  C   UNL d   1      27.857 -10.164   0.587  0.00  0.00     0.029 C 
BRANCH  13  16
ATOM     16  C   UNL d   1      26.656 -10.998   2.269  0.00  0.00     0.193 C 
BRANCH  16  17
ATOM     17  O   UNL d   1      26.856 -10.182   3.475  0.00  0.00    -0.385 OA
BRANCH  17  18
ATOM     18  C   UNL d   1      27.840 -10.860   4.293  0.00  0.00     0.206 C 
BRANCH  18  19
ATOM     19  C   UNL d   1      27.775 -12.299   4.903  0.00  0.00    -0.035 A 
ATOM     20  C   UNL d   1      28.606 -12.383   5.984  0.00  0.00     0.009 A 
ATOM     21  C   UNL d   1      29.045 -13.628   6.409  0.00  0.00     0.001 A 
ATOM     22  C   UNL d   1      28.620 -14.835   5.832  0.00  0.00     0.000 A 
ATOM     23  C   UNL d   1      27.798 -14.827   4.734  0.00  0.00     0.001 A 
ATOM     24  C   UNL d   1      27.362 -13.576   4.294  0.00  0.00     0.009 A 
ENDBRANCH  18  19
ENDBRANCH  17  18
ENDBRANCH  16  17
ENDBRANCH  13  16
ENDBRANCH   5   9
ENDBRANCH   3   5
BRANCH   1  25
ATOM     25  C   UNL d   1      26.283 -16.201  -1.098  0.00  0.00     0.086 C 
BRANCH  25  26
ATOM     26  C   UNL d   1      25.324 -16.323  -2.341  0.00  0.00     0.119 C 
BRANCH  26  27
ATOM     27  C   UNL d   1      25.542 -15.328  -3.516  0.00  0.00     0.241 C 
ATOM     28  O   UNL d   1      24.691 -14.461  -3.870  0.00  0.00    -0.271 OA
ATOM     29  N   UNL d   1      26.681 -15.572  -4.250  0.00  0.00    -0.235 N 
ATOM     30  H   UNL d   1      27.546 -15.507  -3.730  0.00  0.00     0.197 HD
BRANCH  29  31
ATOM     31  O   UNL d   1      26.658 -14.958  -5.538  0.00  0.00    -0.273 OA
BRANCH  31  32
ATOM     32  C   UNL d   1      27.595 -13.892  -5.608  0.00  0.00     0.240 C 
BRANCH  32  33
ATOM     33  C   UNL d   1      26.952 -12.585  -5.216  0.00  0.00    -0.032 A 
ATOM     34  C   UNL d   1      26.635 -12.352  -3.872  0.00  0.00     0.009 A 
ATOM     35  C   UNL d   1      25.931 -11.205  -3.503  0.00  0.00     0.001 A 
ATOM     36  C   UNL d   1      25.632 -10.230  -4.454  0.00  0.00     0.000 A 
ATOM     37  C   UNL d   1      26.000 -10.420  -5.782  0.00  0.00     0.001 A 
ATOM     38  C   UNL d   1      26.659 -11.589  -6.157  0.00  0.00     0.009 A 
ENDBRANCH  32  33
ENDBRANCH  31  32
ENDBRANCH  29  31
ENDBRANCH  26  27
ENDBRANCH  25  26
BRANCH  25  39
ATOM     39  C   UNL d   1      25.935 -17.337  -0.096  0.00  0.00     0.014 C 
BRANCH  39  40
ATOM     40  C   UNL d   1      24.437 -17.503  -0.139  0.00  0.00     0.001 C 
BRANCH  40  41
ATOM     41  C   UNL d   1      23.703 -18.593  -0.799  0.00  0.00    -0.000 C 
BRANCH  41  42
ATOM     42  C   UNL d   1      22.205 -18.479  -0.930  0.00  0.00    -0.005 C 
ATOM     43  C   UNL d   1      21.275 -18.949   0.139  0.00  0.00     0.005 C 
ENDBRANCH  41  42
ENDBRANCH  40  41
ENDBRANCH  39  40
ENDBRANCH  25  39
ENDBRANCH   1  25
TORSDOF 17
ENDMDL
MODEL 4
REMARK VINA RESULT:    -8.106      2.847      8.268
REMARK INTER + INTRA:         -18.004
REMARK INTER:                 -13.177
REMARK INTRA:                  -4.827
REMARK CONF_INDEPENDENT:        5.071
REMARK UNBOUND:                -4.827
REMARK  17 active torsions:
REMARK  status: ('A' for Active; 'I' for Inactive)
REMARK    1  A    between atoms: C_2  and  C_3 
REMARK    2  A    between atoms: C_3  and  C_4 
REMARK    3  A    between atoms: C_4  and  C_5 
REMARK    4  A    between atoms: C_6  and  C_5 
REMARK    5  A    between atoms: C_6  and  C_19 
REMARK    6  A    between atoms: C_6  and  C_7 
REMARK    7  A    between atoms: C_7  and  C_8 
REMARK       I    between atoms: C_8  and  N_10 
REMARK    8  A    between atoms: N_10  and  O_11 
REMARK    9  A    between atoms: O_11  and  C_12 
REMARK   10  A    between atoms: C_12  and  C_13 
REMARK       I    between atoms: C_19  and  N_21 
REMARK   11  A    between atoms: C_22  and  N_21 
REMARK   12  A    between atoms: C_22  and  C_39 
REMARK   13  A    between atoms: C_22  and  C_23 
REMARK       I    between atoms: C_23  and  N_25 
REMARK   14  A    between atoms: C_29  and  C_30 
REMARK   15  A    between atoms: C_30  and  O_31 
REMARK   16  A    between atoms: O_31  and  C_32 
REMARK   17  A    between atoms: C_32  and  C_33 
ROOT
ATOM      1  C   UNL d   1      26.417 -17.513  -0.142  0.00  0.00     0.223 C 
ATOM      2  O   UNL d   1      26.175 -18.697  -0.036  0.00  0.00    -0.273 OA
ATOM      3  N   UNL d   1      27.676 -17.065   0.231  0.00  0.00    -0.347 N 
ATOM      4  H   UNL d   1      28.269 -17.875   0.412  0.00  0.00     0.163 HD
ENDROOT
BRANCH   3   5
ATOM      5  C   UNL d   1      28.418 -15.765   0.059  0.00  0.00     0.180 C 
BRANCH   5   6
ATOM      6  C   UNL d   1      28.690 -15.467  -1.455  0.00  0.00     0.009 C 
ATOM      7  C   UNL d   1      30.051 -14.813  -1.678  0.00  0.00     0.012 C 
ATOM      8  C   UNL d   1      28.690 -16.698  -2.331  0.00  0.00     0.012 C 
ENDBRANCH   5   6
BRANCH   5   9
ATOM      9  C   UNL d   1      27.747 -14.439   0.556  0.00  0.00     0.243 C 
ATOM     10  O   UNL d   1      26.500 -14.398   0.606  0.00  0.00    -0.271 OA
ATOM     11  N   UNL d   1      28.489 -13.265   0.612  0.00  0.00    -0.344 N 
ATOM     12  C   UNL d   1      28.180 -12.351  -0.442  0.00  0.00     0.126 C 
ATOM     13  C   UNL d   1      28.804 -12.353   1.771  0.00  0.00     0.111 C 
ATOM     14  C   UNL d   1      29.254 -11.328  -0.261  0.00  0.00     0.022 C 
ATOM     15  C   UNL d   1      29.132 -10.993   1.174  0.00  0.00     0.029 C 
BRANCH  13  16
ATOM     16  C   UNL d   1      27.723 -11.870   2.662  0.00  0.00     0.193 C 
BRANCH  16  17
ATOM     17  O   UNL d   1      26.713 -12.874   3.025  0.00  0.00    -0.385 OA
BRANCH  17  18
ATOM     18  C   UNL d   1      27.405 -13.960   3.685  0.00  0.00     0.206 C 
BRANCH  18  19
ATOM     19  C   UNL d   1      28.051 -13.980   5.110  0.00  0.00    -0.035 A 
ATOM     20  C   UNL d   1      27.509 -12.991   5.880  0.00  0.00     0.009 A 
ATOM     21  C   UNL d   1      28.204 -12.537   6.991  0.00  0.00     0.001 A 
ATOM     22  C   UNL d   1      29.418 -13.092   7.424  0.00  0.00     0.000 A 
ATOM     23  C   UNL d   1      30.029 -14.078   6.691  0.00  0.00     0.001 A 
ATOM     24  C   UNL d   1      29.340 -14.532   5.565  0.00  0.00     0.009 A 
ENDBRANCH  18  19
ENDBRANCH  17  18
ENDBRANCH  16  17
ENDBRANCH  13  16
ENDBRANCH   5   9
ENDBRANCH   3   5
BRANCH   1  25
ATOM     25  C   UNL d   1      25.337 -16.518  -0.609  0.00  0.00     0.086 C 
BRANCH  25  26
ATOM     26  C   UNL d   1      25.306 -16.228  -2.156  0.00  0.00     0.119 C 
BRANCH  26  27
ATOM     27  C   UNL d   1      25.006 -14.770  -2.606  0.00  0.00     0.241 C 
ATOM     28  O   UNL d   1      24.031 -14.450  -3.348  0.00  0.00    -0.271 OA
ATOM     29  N   UNL d   1      25.985 -13.866  -2.260  0.00  0.00    -0.235 N 
ATOM     30  H   UNL d   1      26.146 -13.771  -1.267  0.00  0.00     0.197 HD
BRANCH  29  31
ATOM     31  O   UNL d   1      25.924 -12.659  -3.020  0.00  0.00    -0.273 OA
BRANCH  31  32
ATOM     32  C   UNL d   1      26.016 -12.933  -4.412  0.00  0.00     0.240 C 
BRANCH  32  33
ATOM     33  C   UNL d   1      27.351 -13.548  -4.751  0.00  0.00    -0.032 A 
ATOM     34  C   UNL d   1      27.393 -14.825  -5.325  0.00  0.00     0.009 A 
ATOM     35  C   UNL d   1      28.615 -15.463  -5.536  0.00  0.00     0.001 A 
ATOM     36  C   UNL d   1      29.810 -14.792  -5.276  0.00  0.00     0.000 A 
ATOM     37  C   UNL d   1      29.783 -13.498  -4.767  0.00  0.00     0.001 A 
ATOM     38  C   UNL d   1      28.560 -12.881  -4.511  0.00  0.00     0.009 A 
ENDBRANCH  32  33
ENDBRANCH  31  32
ENDBRANCH  29  31
ENDBRANCH  26  27
ENDBRANCH  25  26
BRANCH  25  39
ATOM     39  C   UNL d   1      23.933 -17.027  -0.176  0.00  0.00     0.014 C 
BRANCH  39  40
ATOM     40  C   UNL d   1      23.493 -18.016  -1.226  0.00  0.00     0.001 C 
BRANCH  40  41
ATOM     41  C   UNL d   1      22.694 -19.229  -0.996  0.00  0.00    -0.000 C 
BRANCH  41  42
ATOM     42  C   UNL d   1      21.398 -19.106  -0.233  0.00  0.00    -0.005 C 
ATOM     43  C   UNL d   1      20.069 -19.257  -0.896  0.00  0.00     0.005 C 
ENDBRANCH  41  42
ENDBRANCH  40  41
ENDBRANCH  39  40
ENDBRANCH  25  39
ENDBRANCH   1  25
TORSDOF 17
ENDMDL
MODEL 5
REMARK VINA RESULT:    -7.951      2.274      6.978
REMARK INTER + INTRA:         -18.040
REMARK INTER:                 -13.022
REMARK INTRA:                  -5.018
REMARK CONF_INDEPENDENT:        5.071
REMARK UNBOUND:                -5.018
REMARK  17 active torsions:
REMARK  status: ('A' for Active; 'I' for Inactive)
REMARK    1  A    between atoms: C_2  and  C_3 
REMARK    2  A    between atoms: C_3  and  C_4 
REMARK    3  A    between atoms: C_4  and  C_5 
REMARK    4  A    between atoms: C_6  and  C_5 
REMARK    5  A    between atoms: C_6  and  C_19 
REMARK    6  A    between atoms: C_6  and  C_7 
REMARK    7  A    between atoms: C_7  and  C_8 
REMARK       I    between atoms: C_8  and  N_10 
REMARK    8  A    between atoms: N_10  and  O_11 
REMARK    9  A    between atoms: O_11  and  C_12 
REMARK   10  A    between atoms: C_12  and  C_13 
REMARK       I    between atoms: C_19  and  N_21 
REMARK   11  A    between atoms: C_22  and  N_21 
REMARK   12  A    between atoms: C_22  and  C_39 
REMARK   13  A    between atoms: C_22  and  C_23 
REMARK       I    between atoms: C_23  and  N_25 
REMARK   14  A    between atoms: C_29  and  C_30 
REMARK   15  A    between atoms: C_30  and  O_31 
REMARK   16  A    between atoms: O_31  and  C_32 
REMARK   17  A    between atoms: C_32  and  C_33 
ROOT
ATOM      1  C   UNL d   1      25.929 -14.953  -1.085  0.00  0.00     0.223 C 
ATOM      2  O   UNL d   1      26.236 -14.526   0.007  0.00  0.00    -0.273 OA
ATOM      3  N   UNL d   1      25.735 -14.042  -2.115  0.00  0.00    -0.347 N 
ATOM      4  H   UNL d   1      26.039 -13.122  -1.796  0.00  0.00     0.163 HD
ENDROOT
BRANCH   3   5
ATOM      5  C   UNL d   1      25.565 -14.170  -3.607  0.00  0.00     0.180 C 
BRANCH   5   6
ATOM      6  C   UNL d   1      25.345 -12.768  -4.271  0.00  0.00     0.009 C 
ATOM      7  C   UNL d   1      25.530 -11.624  -3.277  0.00  0.00     0.012 C 
ATOM      8  C   UNL d   1      26.300 -12.471  -5.404  0.00  0.00     0.012 C 
ENDBRANCH   5   6
BRANCH   5   9
ATOM      9  C   UNL d   1      26.738 -14.773  -4.454  0.00  0.00     0.243 C 
ATOM     10  O   UNL d   1      26.448 -15.575  -5.364  0.00  0.00    -0.271 OA
ATOM     11  N   UNL d   1      28.046 -14.678  -3.992  0.00  0.00    -0.344 N 
ATOM     12  C   UNL d   1      28.551 -15.909  -3.474  0.00  0.00     0.126 C 
ATOM     13  C   UNL d   1      29.265 -14.044  -4.612  0.00  0.00     0.111 C 
ATOM     14  C   UNL d   1      29.840 -15.459  -2.866  0.00  0.00     0.022 C 
ATOM     15  C   UNL d   1      30.472 -14.719  -3.979  0.00  0.00     0.029 C 
BRANCH  13  16
ATOM     16  C   UNL d   1      29.639 -14.347  -6.013  0.00  0.00     0.193 C 
BRANCH  16  17
ATOM     17  O   UNL d   1      29.170 -15.644  -6.522  0.00  0.00    -0.385 OA
BRANCH  17  18
ATOM     18  C   UNL d   1      30.341 -16.413  -6.882  0.00  0.00     0.206 C 
BRANCH  18  19
ATOM     19  C   UNL d   1      30.808 -17.798  -6.323  0.00  0.00    -0.035 A 
ATOM     20  C   UNL d   1      30.783 -18.733  -7.317  0.00  0.00     0.009 A 
ATOM     21  C   UNL d   1      30.728 -20.078  -6.984  0.00  0.00     0.001 A 
ATOM     22  C   UNL d   1      30.770 -20.550  -5.663  0.00  0.00     0.000 A 
ATOM     23  C   UNL d   1      30.779 -19.668  -4.612  0.00  0.00     0.001 A 
ATOM     24  C   UNL d   1      30.825 -18.312  -4.941  0.00  0.00     0.009 A 
ENDBRANCH  18  19
ENDBRANCH  17  18
ENDBRANCH  16  17
ENDBRANCH  13  16
ENDBRANCH   5   9
ENDBRANCH   3   5
BRANCH   1  25
ATOM     25  C   UNL d   1      25.686 -16.457  -1.313  0.00  0.00     0.086 C 
BRANCH  25  26
ATOM     26  C   UNL d   1      26.611 -17.426  -0.487  0.00  0.00     0.119 C 
BRANCH  26  27
ATOM     27  C   UNL d   1      28.142 -17.159  -0.522  0.00  0.00     0.241 C 
ATOM     28  O   UNL d   1      28.997 -18.016  -0.894  0.00  0.00    -0.271 OA
ATOM     29  N   UNL d   1      28.513 -15.957   0.037  0.00  0.00    -0.235 N 
ATOM     30  H   UNL d   1      28.126 -15.139  -0.414  0.00  0.00     0.197 HD
BRANCH  29  31
ATOM     31  O   UNL d   1      29.896 -15.906   0.387  0.00  0.00    -0.273 OA
BRANCH  31  32
ATOM     32  C   UNL d   1      30.146 -14.854   1.309  0.00  0.00     0.240 C 
BRANCH  32  33
ATOM     33  C   UNL d   1      28.985 -13.891   1.353  0.00  0.00    -0.032 A 
ATOM     34  C   UNL d   1      28.828 -12.958   0.321  0.00  0.00     0.009 A 
ATOM     35  C   UNL d   1      27.836 -11.981   0.399  0.00  0.00     0.001 A 
ATOM     36  C   UNL d   1      26.925 -11.990   1.454  0.00  0.00     0.000 A 
ATOM     37  C   UNL d   1      27.030 -12.952   2.454  0.00  0.00     0.001 A 
ATOM     38  C   UNL d   1      28.052 -13.898   2.399  0.00  0.00     0.009 A 
ENDBRANCH  32  33
ENDBRANCH  31  32
ENDBRANCH  29  31
ENDBRANCH  26  27
ENDBRANCH  25  26
BRANCH  25  39
ATOM     39  C   UNL d   1      24.204 -16.802  -0.995  0.00  0.00     0.014 C 
BRANCH  39  40
ATOM     40  C   UNL d   1      24.194 -18.221  -0.481  0.00  0.00     0.001 C 
BRANCH  40  41
ATOM     41  C   UNL d   1      23.056 -19.151  -0.521  0.00  0.00    -0.000 C 
BRANCH  41  42
ATOM     42  C   UNL d   1      21.661 -18.583  -0.609  0.00  0.00    -0.005 C 
ATOM     43  C   UNL d   1      20.448 -19.452  -0.602  0.00  0.00     0.005 C 
ENDBRANCH  41  42
ENDBRANCH  40  41
ENDBRANCH  39  40
ENDBRANCH  25  39
ENDBRANCH   1  25
TORSDOF 17
ENDMDL
MODEL 6
REMARK VINA RESULT:    -7.897      2.154      6.888
REMARK INTER + INTRA:         -18.564
REMARK INTER:                 -12.969
REMARK INTRA:                  -5.595
REMARK CONF_INDEPENDENT:        5.071
REMARK UNBOUND:                -5.595
REMARK  17 active torsions:
REMARK  status: ('A' for Active; 'I' for Inactive)
REMARK    1  A    between atoms: C_2  and  C_3 
REMARK    2  A    between atoms: C_3  and  C_4 
REMARK    3  A    between atoms: C_4  and  C_5 
REMARK    4  A    between atoms: C_6  and  C_5 
REMARK    5  A    between atoms: C_6  and  C_19 
REMARK    6  A    between atoms: C_6  and  C_7 
REMARK    7  A    between atoms: C_7  and  C_8 
REMARK       I    between atoms: C_8  and  N_10 
REMARK    8  A    between atoms: N_10  and  O_11 
REMARK    9  A    between atoms: O_11  and  C_12 
REMARK   10  A    between atoms: C_12  and  C_13 
REMARK       I    between atoms: C_19  and  N_21 
REMARK   11  A    between atoms: C_22  and  N_21 
REMARK   12  A    between atoms: C_22  and  C_39 
REMARK   13  A    between atoms: C_22  and  C_23 
REMARK       I    between atoms: C_23  and  N_25 
REMARK   14  A    between atoms: C_29  and  C_30 
REMARK   15  A    between atoms: C_30  and  O_31 
REMARK   16  A    between atoms: O_31  and  C_32 
REMARK   17  A    between atoms: C_32  and  C_33 
ROOT
ATOM      1  C   UNL d   1      26.193 -17.804   0.422  0.00  0.00     0.223 C 
ATOM      2  O   UNL d   1      26.500 -18.844   0.965  0.00  0.00    -0.273 OA
ATOM      3  N   UNL d   1      27.039 -16.714   0.568  0.00  0.00    -0.347 N 
ATOM      4  H   UNL d   1      27.898 -17.027   1.018  0.00  0.00     0.163 HD
ENDROOT
BRANCH   3   5
ATOM      5  C   UNL d   1      27.128 -15.362  -0.094  0.00  0.00     0.180 C 
BRANCH   5   6
ATOM      6  C   UNL d   1      27.803 -14.314   0.855  0.00  0.00     0.009 C 
ATOM      7  C   UNL d   1      26.955 -13.055   1.018  0.00  0.00     0.012 C 
ATOM      8  C   UNL d   1      28.040 -14.821   2.258  0.00  0.00     0.012 C 
ENDBRANCH   5   6
BRANCH   5   9
ATOM      9  C   UNL d   1      27.961 -15.219  -1.414  0.00  0.00     0.243 C 
ATOM     10  O   UNL d   1      27.981 -16.188  -2.199  0.00  0.00    -0.271 OA
ATOM     11  N   UNL d   1      28.896 -14.198  -1.536  0.00  0.00    -0.344 N 
ATOM     12  C   UNL d   1      30.245 -14.651  -1.413  0.00  0.00     0.126 C 
ATOM     13  C   UNL d   1      29.004 -13.077  -2.538  0.00  0.00     0.111 C 
ATOM     14  C   UNL d   1      30.982 -13.352  -1.357  0.00  0.00     0.022 C 
ATOM     15  C   UNL d   1      30.462 -12.643  -2.546  0.00  0.00     0.029 C 
BRANCH  13  16
ATOM     16  C   UNL d   1      28.921 -13.357  -3.991  0.00  0.00     0.193 C 
BRANCH  16  17
ATOM     17  O   UNL d   1      28.028 -14.461  -4.368  0.00  0.00    -0.385 OA
BRANCH  17  18
ATOM     18  C   UNL d   1      28.682 -15.200  -5.427  0.00  0.00     0.206 C 
BRANCH  18  19
ATOM     19  C   UNL d   1      29.784 -16.304  -5.308  0.00  0.00    -0.035 A 
ATOM     20  C   UNL d   1      30.275 -16.605  -6.545  0.00  0.00     0.009 A 
ATOM     21  C   UNL d   1      30.917 -17.818  -6.745  0.00  0.00     0.001 A 
ATOM     22  C   UNL d   1      31.163 -18.741  -5.717  0.00  0.00     0.000 A 
ATOM     23  C   UNL d   1      30.685 -18.513  -4.452  0.00  0.00     0.001 A 
ATOM     24  C   UNL d   1      30.028 -17.298  -4.246  0.00  0.00     0.009 A 
ENDBRANCH  18  19
ENDBRANCH  17  18
ENDBRANCH  16  17
ENDBRANCH  13  16
ENDBRANCH   5   9
ENDBRANCH   3   5
BRANCH   1  25
ATOM     25  C   UNL d   1      24.866 -17.669  -0.349  0.00  0.00     0.086 C 
BRANCH  25  26
ATOM     26  C   UNL d   1      25.004 -17.406  -1.895  0.00  0.00     0.119 C 
BRANCH  26  27
ATOM     27  C   UNL d   1      24.791 -15.949  -2.396  0.00  0.00     0.241 C 
ATOM     28  O   UNL d   1      23.850 -15.200  -2.001  0.00  0.00    -0.271 OA
ATOM     29  N   UNL d   1      25.623 -15.588  -3.432  0.00  0.00    -0.235 N 
ATOM     30  H   UNL d   1      26.610 -15.615  -3.216  0.00  0.00     0.197 HD
BRANCH  29  31
ATOM     31  O   UNL d   1      25.154 -14.450  -4.155  0.00  0.00    -0.273 OA
BRANCH  31  32
ATOM     32  C   UNL d   1      25.238 -13.275  -3.358  0.00  0.00     0.240 C 
BRANCH  32  33
ATOM     33  C   UNL d   1      25.707 -12.101  -4.181  0.00  0.00    -0.032 A 
ATOM     34  C   UNL d   1      25.588 -10.807  -3.660  0.00  0.00     0.009 A 
ATOM     35  C   UNL d   1      25.902  -9.700  -4.448  0.00  0.00     0.001 A 
ATOM     36  C   UNL d   1      26.438  -9.875  -5.723  0.00  0.00     0.000 A 
ATOM     37  C   UNL d   1      26.622 -11.158  -6.228  0.00  0.00     0.001 A 
ATOM     38  C   UNL d   1      26.262 -12.263  -5.458  0.00  0.00     0.009 A 
ENDBRANCH  32  33
ENDBRANCH  31  32
ENDBRANCH  29  31
ENDBRANCH  26  27
ENDBRANCH  25  26
BRANCH  25  39
ATOM     39  C   UNL d   1      24.009 -18.950  -0.144  0.00  0.00     0.014 C 
BRANCH  39  40
ATOM     40  C   UNL d   1      22.842 -18.842  -1.094  0.00  0.00     0.001 C 
BRANCH  40  41
ATOM     41  C   UNL d   1      21.447 -18.555  -0.728  0.00  0.00    -0.000 C 
BRANCH  41  42
ATOM     42  C   UNL d   1      20.454 -19.690  -0.719  0.00  0.00    -0.005 C 
ATOM     43  C   UNL d   1      19.330 -19.755   0.260  0.00  0.00     0.005 C 
ENDBRANCH  41  42
ENDBRANCH  40  41
ENDBRANCH  39  40
ENDBRANCH  25  39
ENDBRANCH   1  25
TORSDOF 17
ENDMDL
MODEL 7
REMARK VINA RESULT:    -7.669      1.781      6.662
REMARK INTER + INTRA:         -18.320
REMARK INTER:                 -12.741
REMARK INTRA:                  -5.579
REMARK CONF_INDEPENDENT:        5.071
REMARK UNBOUND:                -5.579
REMARK  17 active torsions:
REMARK  status: ('A' for Active; 'I' for Inactive)
REMARK    1  A    between atoms: C_2  and  C_3 
REMARK    2  A    between atoms: C_3  and  C_4 
REMARK    3  A    between atoms: C_4  and  C_5 
REMARK    4  A    between atoms: C_6  and  C_5 
REMARK    5  A    between atoms: C_6  and  C_19 
REMARK    6  A    between atoms: C_6  and  C_7 
REMARK    7  A    between atoms: C_7  and  C_8 
REMARK       I    between atoms: C_8  and  N_10 
REMARK    8  A    between atoms: N_10  and  O_11 
REMARK    9  A    between atoms: O_11  and  C_12 
REMARK   10  A    between atoms: C_12  and  C_13 
REMARK       I    between atoms: C_19  and  N_21 
REMARK   11  A    between atoms: C_22  and  N_21 
REMARK   12  A    between atoms: C_22  and  C_39 
REMARK   13  A    between atoms: C_22  and  C_23 
REMARK       I    between atoms: C_23  and  N_25 
REMARK   14  A    between atoms: C_29  and  C_30 
REMARK   15  A    between atoms: C_30  and  O_31 
REMARK   16  A    between atoms: O_31  and  C_32 
REMARK   17  A    between atoms: C_32  and  C_33 
ROOT
ATOM      1  C   UNL d   1      26.118 -17.680   0.534  0.00  0.00     0.223 C 
ATOM      2  O   UNL d   1      26.257 -18.577   1.338  0.00  0.00    -0.273 OA
ATOM      3  N   UNL d   1      27.186 -16.820   0.321  0.00  0.00    -0.347 N 
ATOM      4  H   UNL d   1      28.005 -17.192   0.801  0.00  0.00     0.163 HD
ENDROOT
BRANCH   3   5
ATOM      5  C   UNL d   1      27.485 -15.756  -0.705  0.00  0.00     0.180 C 
BRANCH   5   6
ATOM      6  C   UNL d   1      28.081 -14.474  -0.030  0.00  0.00     0.009 C 
ATOM      7  C   UNL d   1      27.064 -13.768   0.863  0.00  0.00     0.012 C 
ATOM      8  C   UNL d   1      29.272 -14.747   0.859  0.00  0.00     0.012 C 
ENDBRANCH   5   6
BRANCH   5   9
ATOM      9  C   UNL d   1      28.526 -16.066  -1.835  0.00  0.00     0.243 C 
ATOM     10  O   UNL d   1      28.091 -16.296  -2.982  0.00  0.00    -0.271 OA
ATOM     11  N   UNL d   1      29.833 -16.399  -1.501  0.00  0.00    -0.344 N 
ATOM     12  C   UNL d   1      30.117 -17.791  -1.651  0.00  0.00     0.126 C 
ATOM     13  C   UNL d   1      31.140 -15.744  -1.868  0.00  0.00     0.111 C 
ATOM     14  C   UNL d   1      31.470 -17.879  -1.022  0.00  0.00     0.022 C 
ATOM     15  C   UNL d   1      32.214 -16.812  -1.726  0.00  0.00     0.029 C 
BRANCH  13  16
ATOM     16  C   UNL d   1      31.444 -15.413  -3.280  0.00  0.00     0.193 C 
BRANCH  16  17
ATOM     17  O   UNL d   1      30.295 -14.968  -4.082  0.00  0.00    -0.385 OA
BRANCH  17  18
ATOM     18  C   UNL d   1      30.350 -15.680  -5.341  0.00  0.00     0.206 C 
BRANCH  18  19
ATOM     19  C   UNL d   1      30.744 -17.172  -5.600  0.00  0.00    -0.035 A 
ATOM     20  C   UNL d   1      31.031 -17.353  -6.923  0.00  0.00     0.009 A 
ATOM     21  C   UNL d   1      30.976 -18.630  -7.462  0.00  0.00     0.001 A 
ATOM     22  C   UNL d   1      30.712 -19.779  -6.701  0.00  0.00     0.000 A 
ATOM     23  C   UNL d   1      30.400 -19.672  -5.369  0.00  0.00     0.001 A 
ATOM     24  C   UNL d   1      30.443 -18.388  -4.823  0.00  0.00     0.009 A 
ENDBRANCH  18  19
ENDBRANCH  17  18
ENDBRANCH  16  17
ENDBRANCH  13  16
ENDBRANCH   5   9
ENDBRANCH   3   5
BRANCH   1  25
ATOM     25  C   UNL d   1      24.772 -17.451  -0.180  0.00  0.00     0.086 C 
BRANCH  25  26
ATOM     26  C   UNL d   1      24.839 -17.406  -1.753  0.00  0.00     0.119 C 
BRANCH  26  27
ATOM     27  C   UNL d   1      24.812 -16.008  -2.432  0.00  0.00     0.241 C 
ATOM     28  O   UNL d   1      24.087 -15.048  -2.038  0.00  0.00    -0.271 OA
ATOM     29  N   UNL d   1      25.531 -15.944  -3.605  0.00  0.00    -0.235 N 
ATOM     30  H   UNL d   1      26.519 -16.135  -3.511  0.00  0.00     0.197 HD
BRANCH  29  31
ATOM     31  O   UNL d   1      25.166 -14.832  -4.423  0.00  0.00    -0.273 OA
BRANCH  31  32
ATOM     32  C   UNL d   1      26.316 -14.238  -5.011  0.00  0.00     0.240 C 
BRANCH  32  33
ATOM     33  C   UNL d   1      26.977 -13.281  -4.050  0.00  0.00    -0.032 A 
ATOM     34  C   UNL d   1      28.285 -12.852  -4.301  0.00  0.00     0.009 A 
ATOM     35  C   UNL d   1      28.959 -12.065  -3.367  0.00  0.00     0.001 A 
ATOM     36  C   UNL d   1      28.298 -11.610  -2.226  0.00  0.00     0.000 A 
ATOM     37  C   UNL d   1      26.976 -11.977  -1.998  0.00  0.00     0.001 A 
ATOM     38  C   UNL d   1      26.320 -12.803  -2.908  0.00  0.00     0.009 A 
ENDBRANCH  32  33
ENDBRANCH  31  32
ENDBRANCH  29  31
ENDBRANCH  26  27
ENDBRANCH  25  26
BRANCH  25  39
ATOM     39  C   UNL d   1      23.763 -18.557   0.237  0.00  0.00     0.014 C 
BRANCH  39  40
ATOM     40  C   UNL d   1      22.978 -18.912  -1.001  0.00  0.00     0.001 C 
BRANCH  40  41
ATOM     41  C   UNL d   1      21.512 -18.941  -1.122  0.00  0.00    -0.000 C 
BRANCH  41  42
ATOM     42  C   UNL d   1      20.707 -19.544   0.003  0.00  0.00    -0.005 C 
ATOM     43  C   UNL d   1      19.262 -19.883  -0.149  0.00  0.00     0.005 C 
ENDBRANCH  41  42
ENDBRANCH  40  41
ENDBRANCH  39  40
ENDBRANCH  25  39
ENDBRANCH   1  25
TORSDOF 17
ENDMDL
MODEL 8
REMARK VINA RESULT:    -7.475      2.246      6.702
REMARK INTER + INTRA:         -18.416
REMARK INTER:                 -12.546
REMARK INTRA:                  -5.870
REMARK CONF_INDEPENDENT:        5.071
REMARK UNBOUND:                -5.870
REMARK  17 active torsions:
REMARK  status: ('A' for Active; 'I' for Inactive)
REMARK    1  A    between atoms: C_2  and  C_3 
REMARK    2  A    between atoms: C_3  and  C_4 
REMARK    3  A    between atoms: C_4  and  C_5 
REMARK    4  A    between atoms: C_6  and  C_5 
REMARK    5  A    between atoms: C_6  and  C_19 
REMARK    6  A    between atoms: C_6  and  C_7 
REMARK    7  A    between atoms: C_7  and  C_8 
REMARK       I    between atoms: C_8  and  N_10 
REMARK    8  A    between atoms: N_10  and  O_11 
REMARK    9  A    between atoms: O_11  and  C_12 
REMARK   10  A    between atoms: C_12  and  C_13 
REMARK       I    between atoms: C_19  and  N_21 
REMARK   11  A    between atoms: C_22  and  N_21 
REMARK   12  A    between atoms: C_22  and  C_39 
REMARK   13  A    between atoms: C_22  and  C_23 
REMARK       I    between atoms: C_23  and  N_25 
REMARK   14  A    between atoms: C_29  and  C_30 
REMARK   15  A    between atoms: C_30  and  O_31 
REMARK   16  A    between atoms: O_31  and  C_32 
REMARK   17  A    between atoms: C_32  and  C_33 
ROOT
ATOM      1  C   UNL d   1      26.407 -17.513   0.605  0.00  0.00     0.223 C 
ATOM      2  O   UNL d   1      26.793 -18.589   1.008  0.00  0.00    -0.273 OA
ATOM      3  N   UNL d   1      27.176 -16.393   0.887  0.00  0.00    -0.347 N 
ATOM      4  H   UNL d   1      28.061 -16.699   1.290  0.00  0.00     0.163 HD
ENDROOT
BRANCH   3   5
ATOM      5  C   UNL d   1      27.162 -14.964   0.406  0.00  0.00     0.180 C 
BRANCH   5   6
ATOM      6  C   UNL d   1      28.026 -14.047   1.336  0.00  0.00     0.009 C 
ATOM      7  C   UNL d   1      27.556 -12.595   1.311  0.00  0.00     0.012 C 
ATOM      8  C   UNL d   1      27.998 -14.451   2.792  0.00  0.00     0.012 C 
ENDBRANCH   5   6
BRANCH   5   9
ATOM      9  C   UNL d   1      27.728 -14.641  -1.019  0.00  0.00     0.243 C 
ATOM     10  O   UNL d   1      27.003 -13.993  -1.802  0.00  0.00    -0.271 OA
ATOM     11  N   UNL d   1      28.836 -15.330  -1.498  0.00  0.00    -0.344 N 
ATOM     12  C   UNL d   1      28.508 -16.314  -2.480  0.00  0.00     0.126 C 
ATOM     13  C   UNL d   1      30.184 -14.832  -1.953  0.00  0.00     0.111 C 
ATOM     14  C   UNL d   1      29.817 -17.020  -2.630  0.00  0.00     0.022 C 
ATOM     15  C   UNL d   1      30.752 -15.901  -2.873  0.00  0.00     0.029 C 
BRANCH  13  16
ATOM     16  C   UNL d   1      30.285 -13.723  -2.930  0.00  0.00     0.193 C 
BRANCH  16  17
ATOM     17  O   UNL d   1      30.690 -12.426  -2.370  0.00  0.00    -0.385 OA
BRANCH  17  18
ATOM     18  C   UNL d   1      29.485 -11.744  -1.951  0.00  0.00     0.206 C 
BRANCH  18  19
ATOM     19  C   UNL d   1      28.281 -11.266  -2.829  0.00  0.00    -0.035 A 
ATOM     20  C   UNL d   1      28.738 -10.531  -3.884  0.00  0.00     0.009 A 
ATOM     21  C   UNL d   1      27.875  -9.659  -4.531  0.00  0.00     0.001 A 
ATOM     22  C   UNL d   1      26.514  -9.537  -4.208  0.00  0.00     0.000 A 
ATOM     23  C   UNL d   1      25.989 -10.233  -3.149  0.00  0.00     0.001 A 
ATOM     24  C   UNL d   1      26.855 -11.105  -2.487  0.00  0.00     0.009 A 
ENDBRANCH  18  19
ENDBRANCH  17  18
ENDBRANCH  16  17
ENDBRANCH  13  16
ENDBRANCH   5   9
ENDBRANCH   3   5
BRANCH   1  25
ATOM     25  C   UNL d   1      25.063 -17.374  -0.137  0.00  0.00     0.086 C 
BRANCH  25  26
ATOM     26  C   UNL d   1      25.161 -17.275  -1.704  0.00  0.00     0.119 C 
BRANCH  26  27
ATOM     27  C   UNL d   1      24.778 -15.919  -2.363  0.00  0.00     0.241 C 
ATOM     28  O   UNL d   1      23.772 -15.230  -2.020  0.00  0.00    -0.271 OA
ATOM     29  N   UNL d   1      25.537 -15.600  -3.466  0.00  0.00    -0.235 N 
ATOM     30  H   UNL d   1      26.527 -15.497  -3.288  0.00  0.00     0.197 HD
BRANCH  29  31
ATOM     31  O   UNL d   1      24.927 -14.612  -4.297  0.00  0.00    -0.273 OA
BRANCH  31  32
ATOM     32  C   UNL d   1      25.731 -13.442  -4.364  0.00  0.00     0.240 C 
BRANCH  32  33
ATOM     33  C   UNL d   1      26.939 -13.669  -5.239  0.00  0.00    -0.032 A 
ATOM     34  C   UNL d   1      27.408 -12.626  -6.046  0.00  0.00     0.009 A 
ATOM     35  C   UNL d   1      28.446 -12.848  -6.951  0.00  0.00     0.001 A 
ATOM     36  C   UNL d   1      29.096 -14.081  -6.984  0.00  0.00     0.000 A 
ATOM     37  C   UNL d   1      28.681 -15.107  -6.141  0.00  0.00     0.001 A 
ATOM     38  C   UNL d   1      27.612 -14.898  -5.272  0.00  0.00     0.009 A 
ENDBRANCH  32  33
ENDBRANCH  31  32
ENDBRANCH  29  31
ENDBRANCH  26  27
ENDBRANCH  25  26
BRANCH  25  39
ATOM     39  C   UNL d   1      24.140 -18.573   0.222  0.00  0.00     0.014 C 
BRANCH  39  40
ATOM     40  C   UNL d   1      23.130 -18.686  -0.892  0.00  0.00     0.001 C 
BRANCH  40  41
ATOM     41  C   UNL d   1      21.774 -18.117  -0.895  0.00  0.00    -0.000 C 
BRANCH  41  42
ATOM     42  C   UNL d   1      20.595 -19.059  -0.883  0.00  0.00    -0.005 C 
ATOM     43  C   UNL d   1      20.180 -19.795   0.347  0.00  0.00     0.005 C 
ENDBRANCH  41  42
ENDBRANCH  40  41
ENDBRANCH  39  40
ENDBRANCH  25  39
ENDBRANCH   1  25
TORSDOF 17
ENDMDL
MODEL 9
REMARK VINA RESULT:    -7.351      1.976      6.459
REMARK INTER + INTRA:         -18.147
REMARK INTER:                 -12.423
REMARK INTRA:                  -5.724
REMARK CONF_INDEPENDENT:        5.071
REMARK UNBOUND:                -5.724
REMARK  17 active torsions:
REMARK  status: ('A' for Active; 'I' for Inactive)
REMARK    1  A    between atoms: C_2  and  C_3 
REMARK    2  A    between atoms: C_3  and  C_4 
REMARK    3  A    between atoms: C_4  and  C_5 
REMARK    4  A    between atoms: C_6  and  C_5 
REMARK    5  A    between atoms: C_6  and  C_19 
REMARK    6  A    between atoms: C_6  and  C_7 
REMARK    7  A    between atoms: C_7  and  C_8 
REMARK       I    between atoms: C_8  and  N_10 
REMARK    8  A    between atoms: N_10  and  O_11 
REMARK    9  A    between atoms: O_11  and  C_12 
REMARK   10  A    between atoms: C_12  and  C_13 
REMARK       I    between atoms: C_19  and  N_21 
REMARK   11  A    between atoms: C_22  and  N_21 
REMARK   12  A    between atoms: C_22  and  C_39 
REMARK   13  A    between atoms: C_22  and  C_23 
REMARK       I    between atoms: C_23  and  N_25 
REMARK   14  A    between atoms: C_29  and  C_30 
REMARK   15  A    between atoms: C_30  and  O_31 
REMARK   16  A    between atoms: O_31  and  C_32 
REMARK   17  A    between atoms: C_32  and  C_33 
ROOT
ATOM      1  C   UNL d   1      26.117 -17.605   0.605  0.00  0.00     0.223 C 
ATOM      2  O   UNL d   1      26.319 -18.575   1.303  0.00  0.00    -0.273 OA
ATOM      3  N   UNL d   1      27.077 -16.604   0.579  0.00  0.00    -0.347 N 
ATOM      4  H   UNL d   1      27.906 -16.935   1.072  0.00  0.00     0.163 HD
ENDROOT
BRANCH   3   5
ATOM      5  C   UNL d   1      27.301 -15.389  -0.286  0.00  0.00     0.180 C 
BRANCH   5   6
ATOM      6  C   UNL d   1      27.746 -14.159   0.575  0.00  0.00     0.009 C 
ATOM      7  C   UNL d   1      26.561 -13.458   1.236  0.00  0.00     0.012 C 
ATOM      8  C   UNL d   1      28.684 -14.510   1.707  0.00  0.00     0.012 C 
ENDBRANCH   5   6
BRANCH   5   9
ATOM      9  C   UNL d   1      28.401 -15.446  -1.401  0.00  0.00     0.243 C 
ATOM     10  O   UNL d   1      28.056 -15.199  -2.574  0.00  0.00    -0.271 OA
ATOM     11  N   UNL d   1      29.617 -16.069  -1.143  0.00  0.00    -0.344 N 
ATOM     12  C   UNL d   1      29.737 -17.350  -1.763  0.00  0.00     0.126 C 
ATOM     13  C   UNL d   1      31.026 -15.534  -1.191  0.00  0.00     0.111 C 
ATOM     14  C   UNL d   1      31.000 -17.854  -1.142  0.00  0.00     0.022 C 
ATOM     15  C   UNL d   1      31.938 -16.736  -1.384  0.00  0.00     0.029 C 
BRANCH  13  16
ATOM     16  C   UNL d   1      31.507 -14.788  -2.377  0.00  0.00     0.193 C 
BRANCH  16  17
ATOM     17  O   UNL d   1      31.252 -13.341  -2.354  0.00  0.00    -0.385 OA
BRANCH  17  18
ATOM     18  C   UNL d   1      30.146 -13.085  -3.253  0.00  0.00     0.206 C 
BRANCH  18  19
ATOM     19  C   UNL d   1      29.946 -13.592  -4.720  0.00  0.00    -0.035 A 
ATOM     20  C   UNL d   1      29.588 -12.551  -5.527  0.00  0.00     0.009 A 
ATOM     21  C   UNL d   1      28.947 -12.811  -6.729  0.00  0.00     0.001 A 
ATOM     22  C   UNL d   1      28.705 -14.106  -7.211  0.00  0.00     0.000 A 
ATOM     23  C   UNL d   1      29.024 -15.200  -6.448  0.00  0.00     0.001 A 
ATOM     24  C   UNL d   1      29.660 -14.945  -5.231  0.00  0.00     0.009 A 
ENDBRANCH  18  19
ENDBRANCH  17  18
ENDBRANCH  16  17
ENDBRANCH  13  16
ENDBRANCH   5   9
ENDBRANCH   3   5
BRANCH   1  25
ATOM     25  C   UNL d   1      24.799 -17.447  -0.178  0.00  0.00     0.086 C 
BRANCH  25  26
ATOM     26  C   UNL d   1      24.942 -17.404  -1.745  0.00  0.00     0.119 C 
BRANCH  26  27
ATOM     27  C   UNL d   1      24.881 -16.011  -2.433  0.00  0.00     0.241 C 
ATOM     28  O   UNL d   1      24.163 -15.053  -2.020  0.00  0.00    -0.271 OA
ATOM     29  N   UNL d   1      25.557 -15.949  -3.631  0.00  0.00    -0.235 N 
ATOM     30  H   UNL d   1      26.549 -16.134  -3.571  0.00  0.00     0.197 HD
BRANCH  29  31
ATOM     31  O   UNL d   1      25.154 -14.847  -4.444  0.00  0.00    -0.273 OA
BRANCH  31  32
ATOM     32  C   UNL d   1      26.285 -14.127  -4.915  0.00  0.00     0.240 C 
BRANCH  32  33
ATOM     33  C   UNL d   1      26.322 -12.738  -4.325  0.00  0.00    -0.032 A 
ATOM     34  C   UNL d   1      26.728 -12.567  -2.997  0.00  0.00     0.009 A 
ATOM     35  C   UNL d   1      26.654 -11.312  -2.394  0.00  0.00     0.001 A 
ATOM     36  C   UNL d   1      26.277 -10.196  -3.141  0.00  0.00     0.000 A 
ATOM     37  C   UNL d   1      25.934 -10.342  -4.481  0.00  0.00     0.001 A 
ATOM     38  C   UNL d   1      25.961 -11.606  -5.068  0.00  0.00     0.009 A 
ENDBRANCH  32  33
ENDBRANCH  31  32
ENDBRANCH  29  31
ENDBRANCH  26  27
ENDBRANCH  25  26
BRANCH  25  39
ATOM     39  C   UNL d   1      23.826 -18.601   0.195  0.00  0.00     0.014 C 
BRANCH  39  40
ATOM     40  C   UNL d   1      22.449 -18.156  -0.229  0.00  0.00     0.001 C 
BRANCH  40  41
ATOM     41  C   UNL d   1      21.477 -18.951  -0.996  0.00  0.00    -0.000 C 
BRANCH  41  42
ATOM     42  C   UNL d   1      20.046 -18.996  -0.520  0.00  0.00    -0.005 C 
ATOM     43  C   UNL d   1      19.512 -20.135   0.282  0.00  0.00     0.005 C 
ENDBRANCH  41  42
ENDBRANCH  40  41
ENDBRANCH  39  40
ENDBRANCH  25  39
ENDBRANCH   1  25
TORSDOF 17
ENDMDL
