MODEL 1
REMARK VINA RESULT:    -9.889      0.000      0.000
REMARK INTER + INTRA:         -12.867
REMARK INTER:                 -11.977
REMARK INTRA:                  -0.890
REMARK CONF_INDEPENDENT:        2.088
REMARK UNBOUND:                -0.890
REMARK  7 active torsions:
REMARK  status: ('A' for Active; 'I' for Inactive)
REMARK    1  A    between atoms: O_2  and  C_3 
REMARK    2  A    between atoms: C_6  and  N_7 
REMARK       I    between atoms: N_7  and  C_8 
REMARK       I    between atoms: C_8  and  N_20 
REMARK       I    between atoms: N_9  and  C_10 
REMARK    3  A    between atoms: C_10  and  C_12 
REMARK    4  A    between atoms: N_20  and  C_21 
REMARK    5  A    between atoms: C_21  and  C_22 
REMARK    6  A    between atoms: C_22  and  C_23 
REMARK    7  A    between atoms: C_33  and  O_34 
ROOT
ATOM      1  N   UNL d   1      27.781 -15.578   1.717  0.00  0.00    -0.190 N 
ATOM      2  C   UNL d   1      27.916 -14.495   2.616  0.00  0.00     0.704 C 
ATOM      3  N   UNL d   1      27.715 -13.213   2.472  0.00  0.00    -0.023 NA
ATOM      4  C   UNL d   1      27.951 -12.665   1.235  0.00  0.00     0.294 C 
ATOM      5  O   UNL d   1      28.899 -12.957   0.556  0.00  0.00    -0.265 OA
ATOM      6  N   UNL d   1      28.356 -14.827   3.912  0.00  0.00    -0.224 N 
ATOM      7  H   UNL d   1      28.237 -16.442   1.976  0.00  0.00     0.184 HD
ATOM      8  H   UNL d   1      28.861 -15.698   4.036  0.00  0.00     0.177 HD
ENDROOT
BRANCH   1   9
ATOM      9  C   UNL d   1      27.331 -15.579   0.351  0.00  0.00     0.052 C 
ATOM     10  C   UNL d   1      27.968 -14.979  -0.727  0.00  0.00     0.033 C 
ATOM     11  C   UNL d   1      27.306 -14.869  -2.004  0.00  0.00     0.042 C 
ATOM     12  C   UNL d   1      25.953 -15.226  -2.216  0.00  0.00     0.101 C 
ATOM     13  C   UNL d   1      25.338 -15.787  -1.126  0.00  0.00     0.103 C 
ATOM     14  C   UNL d   1      26.153 -16.185  -0.033  0.00  0.00     0.069 C 
BRANCH  12  15
ATOM     15  O   UNL d   1      25.546 -15.257  -3.522  0.00  0.00    -0.353 OA
ATOM     16  C   UNL d   1      25.277 -14.096  -4.300  0.00  0.00     0.210 C 
ENDBRANCH  12  15
BRANCH  13  17
ATOM     17  O   UNL d   1      24.032 -15.951  -0.809  0.00  0.00    -0.353 OA
ATOM     18  C   UNL d   1      23.400 -17.190  -0.707  0.00  0.00     0.210 C 
ENDBRANCH  13  17
ENDBRANCH   1   9
BRANCH   6  19
ATOM     19  C   UNL d   1      28.755 -13.716   4.826  0.00  0.00     0.142 C 
BRANCH  19  20
ATOM     20  C   UNL d   1      29.152 -14.149   6.238  0.00  0.00     0.057 C 
BRANCH  20  21
ATOM     21  C   UNL d   1      28.900 -13.167   7.366  0.00  0.00    -0.048 A 
ATOM     22  C   UNL d   1      28.893 -13.553   8.647  0.00  0.00    -0.006 A 
ATOM     23  C   UNL d   1      29.085 -14.825   9.252  0.00  0.00     0.014 A 
ATOM     24  C   UNL d   1      28.564 -12.363   9.445  0.00  0.00     0.038 A 
ATOM     25  C   UNL d   1      28.832 -14.950  10.561  0.00  0.00     0.001 A 
ATOM     26  C   UNL d   1      28.492 -13.797  11.382  0.00  0.00     0.002 A 
ATOM     27  C   UNL d   1      28.379 -12.542  10.899  0.00  0.00     0.030 A 
ATOM     28  N   UNL d   1      28.452 -11.321   8.715  0.00  0.00    -0.385 N 
ATOM     29  C   UNL d   1      28.562 -11.696   7.274  0.00  0.00     0.155 A 
ATOM     30  H   UNL d   1      28.288 -10.390   9.101  0.00  0.00     0.160 HD
ENDBRANCH  20  21
ENDBRANCH  19  20
ENDBRANCH   6  19
BRANCH   4  31
ATOM     31  C   UNL d   1      27.218 -11.406   0.897  0.00  0.00     0.037 A 
ATOM     32  C   UNL d   1      27.405 -10.530  -0.197  0.00  0.00     0.018 A 
ATOM     33  C   UNL d   1      27.057  -9.176  -0.064  0.00  0.00     0.011 A 
ATOM     34  C   UNL d   1      26.407  -8.742   1.091  0.00  0.00    -0.023 A 
ATOM     35  C   UNL d   1      25.889  -7.349   1.220  0.00  0.00     0.051 C 
ATOM     36  C   UNL d   1      26.165  -9.652   2.118  0.00  0.00     0.123 A 
ATOM     37  F   UNL d   1      25.560  -9.263   3.244  0.00  0.00    -0.206 F 
ATOM     38  C   UNL d   1      26.568 -10.961   2.031  0.00  0.00     0.060 A 
ENDBRANCH   4  31
TORSDOF 7
ENDMDL
MODEL 2
REMARK VINA RESULT:    -9.702      2.521      8.099
REMARK INTER + INTRA:         -13.617
REMARK INTER:                 -11.790
REMARK INTRA:                  -1.828
REMARK CONF_INDEPENDENT:        2.088
REMARK UNBOUND:                -1.828
REMARK  7 active torsions:
REMARK  status: ('A' for Active; 'I' for Inactive)
REMARK    1  A    between atoms: O_2  and  C_3 
REMARK    2  A    between atoms: C_6  and  N_7 
REMARK       I    between atoms: N_7  and  C_8 
REMARK       I    between atoms: C_8  and  N_20 
REMARK       I    between atoms: N_9  and  C_10 
REMARK    3  A    between atoms: C_10  and  C_12 
REMARK    4  A    between atoms: N_20  and  C_21 
REMARK    5  A    between atoms: C_21  and  C_22 
REMARK    6  A    between atoms: C_22  and  C_23 
REMARK    7  A    between atoms: C_33  and  O_34 
ROOT
ATOM      1  N   UNL d   1      29.415 -14.602   3.425  0.00  0.00    -0.190 N 
ATOM      2  C   UNL d   1      29.054 -14.210   2.114  0.00  0.00     0.704 C 
ATOM      3  N   UNL d   1      28.439 -13.152   1.660  0.00  0.00    -0.023 NA
ATOM      4  C   UNL d   1      27.495 -12.567   2.466  0.00  0.00     0.294 C 
ATOM      5  O   UNL d   1      26.696 -13.196   3.109  0.00  0.00    -0.265 OA
ATOM      6  N   UNL d   1      29.399 -15.112   1.090  0.00  0.00    -0.224 N 
ATOM      7  H   UNL d   1      29.652 -15.575   3.558  0.00  0.00     0.184 HD
ATOM      8  H   UNL d   1      29.554 -16.083   1.341  0.00  0.00     0.177 HD
ENDROOT
BRANCH   1   9
ATOM      9  C   UNL d   1      29.234 -13.902   4.668  0.00  0.00     0.052 C 
ATOM     10  C   UNL d   1      28.890 -14.464   5.889  0.00  0.00     0.033 C 
ATOM     11  C   UNL d   1      28.530 -13.630   7.009  0.00  0.00     0.042 C 
ATOM     12  C   UNL d   1      28.372 -12.226   6.918  0.00  0.00     0.101 C 
ATOM     13  C   UNL d   1      28.689 -11.699   5.692  0.00  0.00     0.103 C 
ATOM     14  C   UNL d   1      29.369 -12.531   4.764  0.00  0.00     0.069 C 
BRANCH  12  15
ATOM     15  O   UNL d   1      28.236 -11.566   8.109  0.00  0.00    -0.353 OA
ATOM     16  C   UNL d   1      28.683 -12.078   9.359  0.00  0.00     0.210 C 
ENDBRANCH  12  15
BRANCH  13  17
ATOM     17  O   UNL d   1      28.375 -10.519   5.105  0.00  0.00    -0.353 OA
ATOM     18  C   UNL d   1      28.881  -9.284   5.510  0.00  0.00     0.210 C 
ENDBRANCH  13  17
ENDBRANCH   1   9
BRANCH   6  19
ATOM     19  C   UNL d   1      28.833 -14.881  -0.272  0.00  0.00     0.142 C 
BRANCH  19  20
ATOM     20  C   UNL d   1      27.319 -15.063  -0.384  0.00  0.00     0.057 C 
BRANCH  20  21
ATOM     21  C   UNL d   1      26.769 -16.465  -0.207  0.00  0.00    -0.048 A 
ATOM     22  C   UNL d   1      25.489 -16.756  -0.462  0.00  0.00    -0.006 A 
ATOM     23  C   UNL d   1      24.406 -15.950  -0.908  0.00  0.00     0.014 A 
ATOM     24  C   UNL d   1      25.304 -18.177  -0.129  0.00  0.00     0.038 A 
ATOM     25  C   UNL d   1      23.175 -16.477  -0.895  0.00  0.00     0.001 A 
ATOM     26  C   UNL d   1      22.951 -17.876  -0.559  0.00  0.00     0.002 A 
ATOM     27  C   UNL d   1      23.937 -18.729  -0.213  0.00  0.00     0.030 A 
ATOM     28  N   UNL d   1      26.401 -18.724   0.231  0.00  0.00    -0.385 N 
ATOM     29  C   UNL d   1      27.478 -17.693   0.320  0.00  0.00     0.155 A 
ATOM     30  H   UNL d   1      26.480 -19.719   0.440  0.00  0.00     0.160 HD
ENDBRANCH  20  21
ENDBRANCH  19  20
ENDBRANCH   6  19
BRANCH   4  31
ATOM     31  C   UNL d   1      27.215 -11.114   2.244  0.00  0.00     0.037 A 
ATOM     32  C   UNL d   1      26.280 -10.275   2.893  0.00  0.00     0.018 A 
ATOM     33  C   UNL d   1      25.765  -9.161   2.213  0.00  0.00     0.011 A 
ATOM     34  C   UNL d   1      26.280  -8.816   0.964  0.00  0.00    -0.023 A 
ATOM     35  C   UNL d   1      25.870  -7.563   0.266  0.00  0.00     0.051 C 
ATOM     36  C   UNL d   1      27.262  -9.621   0.388  0.00  0.00     0.123 A 
ATOM     37  F   UNL d   1      27.763  -9.328  -0.816  0.00  0.00    -0.206 F 
ATOM     38  C   UNL d   1      27.719 -10.757   1.009  0.00  0.00     0.060 A 
ENDBRANCH   4  31
TORSDOF 7
ENDMDL
MODEL 3
REMARK VINA RESULT:    -9.433      2.261      7.955
REMARK INTER + INTRA:         -13.399
REMARK INTER:                 -11.521
REMARK INTRA:                  -1.878
REMARK CONF_INDEPENDENT:        2.088
REMARK UNBOUND:                -1.878
REMARK  7 active torsions:
REMARK  status: ('A' for Active; 'I' for Inactive)
REMARK    1  A    between atoms: O_2  and  C_3 
REMARK    2  A    between atoms: C_6  and  N_7 
REMARK       I    between atoms: N_7  and  C_8 
REMARK       I    between atoms: C_8  and  N_20 
REMARK       I    between atoms: N_9  and  C_10 
REMARK    3  A    between atoms: C_10  and  C_12 
REMARK    4  A    between atoms: N_20  and  C_21 
REMARK    5  A    between atoms: C_21  and  C_22 
REMARK    6  A    between atoms: C_22  and  C_23 
REMARK    7  A    between atoms: C_33  and  O_34 
ROOT
ATOM      1  N   UNL d   1      29.552 -14.549   3.159  0.00  0.00    -0.190 N 
ATOM      2  C   UNL d   1      29.306 -14.458   1.769  0.00  0.00     0.704 C 
ATOM      3  N   UNL d   1      28.604 -13.614   1.062  0.00  0.00    -0.023 NA
ATOM      4  C   UNL d   1      27.489 -13.066   1.645  0.00  0.00     0.294 C 
ATOM      5  O   UNL d   1      26.717 -13.699   2.316  0.00  0.00    -0.265 OA
ATOM      6  N   UNL d   1      29.908 -15.454   0.976  0.00  0.00    -0.224 N 
ATOM      7  H   UNL d   1      29.912 -15.430   3.499  0.00  0.00     0.184 HD
ATOM      8  H   UNL d   1      30.171 -16.326   1.422  0.00  0.00     0.177 HD
ENDROOT
BRANCH   1   9
ATOM      9  C   UNL d   1      29.114 -13.684   4.220  0.00  0.00     0.052 C 
ATOM     10  C   UNL d   1      29.143 -12.296   4.219  0.00  0.00     0.033 C 
ATOM     11  C   UNL d   1      28.876 -11.554   5.426  0.00  0.00     0.042 C 
ATOM     12  C   UNL d   1      28.703 -12.159   6.694  0.00  0.00     0.101 C 
ATOM     13  C   UNL d   1      28.710 -13.530   6.672  0.00  0.00     0.103 C 
ATOM     14  C   UNL d   1      28.620 -14.177   5.411  0.00  0.00     0.069 C 
BRANCH  12  15
ATOM     15  O   UNL d   1      28.253 -11.334   7.688  0.00  0.00    -0.353 OA
ATOM     16  C   UNL d   1      29.096 -10.714   8.653  0.00  0.00     0.210 C 
ENDBRANCH  12  15
BRANCH  13  17
ATOM     17  O   UNL d   1      28.905 -14.450   7.647  0.00  0.00    -0.353 OA
ATOM     18  C   UNL d   1      29.554 -14.187   8.854  0.00  0.00     0.210 C 
ENDBRANCH  13  17
ENDBRANCH   1   9
BRANCH   6  19
ATOM     19  C   UNL d   1      29.491 -15.562  -0.454  0.00  0.00     0.142 C 
BRANCH  19  20
ATOM     20  C   UNL d   1      28.409 -16.604  -0.737  0.00  0.00     0.057 C 
BRANCH  20  21
ATOM     21  C   UNL d   1      27.035 -16.096  -1.132  0.00  0.00    -0.048 A 
ATOM     22  C   UNL d   1      25.915 -16.690  -0.706  0.00  0.00    -0.006 A 
ATOM     23  C   UNL d   1      25.703 -17.826   0.123  0.00  0.00     0.014 A 
ATOM     24  C   UNL d   1      24.793 -15.970  -1.325  0.00  0.00     0.038 A 
ATOM     25  C   UNL d   1      24.460 -18.312   0.228  0.00  0.00     0.001 A 
ATOM     26  C   UNL d   1      23.326 -17.633  -0.381  0.00  0.00     0.002 A 
ATOM     27  C   UNL d   1      23.432 -16.501  -1.107  0.00  0.00     0.030 A 
ATOM     28  N   UNL d   1      25.195 -14.971  -2.013  0.00  0.00    -0.385 N 
ATOM     29  C   UNL d   1      26.687 -14.958  -2.064  0.00  0.00     0.155 A 
ATOM     30  H   UNL d   1      24.554 -14.318  -2.466  0.00  0.00     0.160 HD
ENDBRANCH  20  21
ENDBRANCH  19  20
ENDBRANCH   6  19
BRANCH   4  31
ATOM     31  C   UNL d   1      27.028 -11.743   1.122  0.00  0.00     0.037 A 
ATOM     32  C   UNL d   1      27.523 -10.992   0.031  0.00  0.00     0.018 A 
ATOM     33  C   UNL d   1      27.377  -9.596   0.031  0.00  0.00     0.011 A 
ATOM     34  C   UNL d   1      26.629  -8.981   1.034  0.00  0.00    -0.023 A 
ATOM     35  C   UNL d   1      26.324  -7.521   1.000  0.00  0.00     0.051 C 
ATOM     36  C   UNL d   1      26.085  -9.762   2.052  0.00  0.00     0.123 A 
ATOM     37  F   UNL d   1      25.378  -9.202   3.038  0.00  0.00    -0.206 F 
ATOM     38  C   UNL d   1      26.285 -11.120   2.105  0.00  0.00     0.060 A 
ENDBRANCH   4  31
TORSDOF 7
ENDMDL
MODEL 4
REMARK VINA RESULT:    -8.900      2.445      7.840
REMARK INTER + INTRA:         -13.591
REMARK INTER:                 -10.988
REMARK INTRA:                  -2.603
REMARK CONF_INDEPENDENT:        2.088
REMARK UNBOUND:                -2.603
REMARK  7 active torsions:
REMARK  status: ('A' for Active; 'I' for Inactive)
REMARK    1  A    between atoms: O_2  and  C_3 
REMARK    2  A    between atoms: C_6  and  N_7 
REMARK       I    between atoms: N_7  and  C_8 
REMARK       I    between atoms: C_8  and  N_20 
REMARK       I    between atoms: N_9  and  C_10 
REMARK    3  A    between atoms: C_10  and  C_12 
REMARK    4  A    between atoms: N_20  and  C_21 
REMARK    5  A    between atoms: C_21  and  C_22 
REMARK    6  A    between atoms: C_22  and  C_23 
REMARK    7  A    between atoms: C_33  and  O_34 
ROOT
ATOM      1  N   UNL d   1      30.081 -14.801   3.180  0.00  0.00    -0.190 N 
ATOM      2  C   UNL d   1      29.720 -14.695   1.817  0.00  0.00     0.704 C 
ATOM      3  N   UNL d   1      28.924 -13.872   1.188  0.00  0.00    -0.023 NA
ATOM      4  C   UNL d   1      27.835 -13.391   1.870  0.00  0.00     0.294 C 
ATOM      5  O   UNL d   1      27.150 -14.075   2.584  0.00  0.00    -0.265 OA
ATOM      6  N   UNL d   1      30.303 -15.643   0.955  0.00  0.00    -0.224 N 
ATOM      7  H   UNL d   1      30.508 -15.669   3.470  0.00  0.00     0.184 HD
ATOM      8  H   UNL d   1      30.643 -16.510   1.358  0.00  0.00     0.177 HD
ENDROOT
BRANCH   1   9
ATOM      9  C   UNL d   1      29.688 -13.980   4.294  0.00  0.00     0.052 C 
ATOM     10  C   UNL d   1      29.040 -14.406   5.445  0.00  0.00     0.033 C 
ATOM     11  C   UNL d   1      28.511 -13.451   6.388  0.00  0.00     0.042 C 
ATOM     12  C   UNL d   1      28.490 -12.055   6.157  0.00  0.00     0.101 C 
ATOM     13  C   UNL d   1      29.109 -11.664   4.998  0.00  0.00     0.103 C 
ATOM     14  C   UNL d   1      29.908 -12.617   4.314  0.00  0.00     0.069 C 
BRANCH  12  15
ATOM     15  O   UNL d   1      28.149 -11.282   7.234  0.00  0.00    -0.353 OA
ATOM     16  C   UNL d   1      28.563 -11.547   8.569  0.00  0.00     0.210 C 
ENDBRANCH  12  15
BRANCH  13  17
ATOM     17  O   UNL d   1      29.027 -10.525   4.268  0.00  0.00    -0.353 OA
ATOM     18  C   UNL d   1      28.846  -9.255   4.815  0.00  0.00     0.210 C 
ENDBRANCH  13  17
ENDBRANCH   1   9
BRANCH   6  19
ATOM     19  C   UNL d   1      29.779 -15.743  -0.439  0.00  0.00     0.142 C 
BRANCH  19  20
ATOM     20  C   UNL d   1      28.614 -16.716  -0.626  0.00  0.00     0.057 C 
BRANCH  20  21
ATOM     21  C   UNL d   1      27.277 -16.135  -1.044  0.00  0.00    -0.048 A 
ATOM     22  C   UNL d   1      26.120 -16.684  -0.661  0.00  0.00    -0.006 A 
ATOM     23  C   UNL d   1      25.832 -17.825   0.136  0.00  0.00     0.014 A 
ATOM     24  C   UNL d   1      25.049 -15.897  -1.293  0.00  0.00     0.038 A 
ATOM     25  C   UNL d   1      24.565 -18.253   0.198  0.00  0.00     0.001 A 
ATOM     26  C   UNL d   1      23.480 -17.509  -0.425  0.00  0.00     0.002 A 
ATOM     27  C   UNL d   1      23.660 -16.367  -1.122  0.00  0.00     0.030 A 
ATOM     28  N   UNL d   1      25.517 -14.905  -1.947  0.00  0.00    -0.385 N 
ATOM     29  C   UNL d   1      27.009 -14.961  -1.960  0.00  0.00     0.155 A 
ATOM     30  H   UNL d   1      24.920 -14.212  -2.401  0.00  0.00     0.160 HD
ENDBRANCH  20  21
ENDBRANCH  19  20
ENDBRANCH   6  19
BRANCH   4  31
ATOM     31  C   UNL d   1      27.270 -12.082   1.417  0.00  0.00     0.037 A 
ATOM     32  C   UNL d   1      27.588 -11.323   0.268  0.00  0.00     0.018 A 
ATOM     33  C   UNL d   1      27.408  -9.931   0.289  0.00  0.00     0.011 A 
ATOM     34  C   UNL d   1      26.790  -9.333   1.386  0.00  0.00    -0.023 A 
ATOM     35  C   UNL d   1      26.446  -7.881   1.396  0.00  0.00     0.051 C 
ATOM     36  C   UNL d   1      26.415 -10.124   2.470  0.00  0.00     0.123 A 
ATOM     37  F   UNL d   1      25.838  -9.578   3.545  0.00  0.00    -0.206 F 
ATOM     38  C   UNL d   1      26.655 -11.476   2.494  0.00  0.00     0.060 A 
ENDBRANCH   4  31
TORSDOF 7
ENDMDL
MODEL 5
REMARK VINA RESULT:    -8.473      6.417      9.802
REMARK INTER + INTRA:         -12.529
REMARK INTER:                 -10.562
REMARK INTRA:                  -1.967
REMARK CONF_INDEPENDENT:        2.088
REMARK UNBOUND:                -1.967
REMARK  7 active torsions:
REMARK  status: ('A' for Active; 'I' for Inactive)
REMARK    1  A    between atoms: O_2  and  C_3 
REMARK    2  A    between atoms: C_6  and  N_7 
REMARK       I    between atoms: N_7  and  C_8 
REMARK       I    between atoms: C_8  and  N_20 
REMARK       I    between atoms: N_9  and  C_10 
REMARK    3  A    between atoms: C_10  and  C_12 
REMARK    4  A    between atoms: N_20  and  C_21 
REMARK    5  A    between atoms: C_21  and  C_22 
REMARK    6  A    between atoms: C_22  and  C_23 
REMARK    7  A    between atoms: C_33  and  O_34 
ROOT
ATOM      1  N   UNL d   1      29.580 -15.376  -2.600  0.00  0.00    -0.190 N 
ATOM      2  C   UNL d   1      29.498 -16.602  -1.900  0.00  0.00     0.704 C 
ATOM      3  N   UNL d   1      28.537 -17.143  -1.200  0.00  0.00    -0.023 NA
ATOM      4  C   UNL d   1      27.689 -16.303  -0.523  0.00  0.00     0.294 C 
ATOM      5  O   UNL d   1      28.066 -15.332   0.079  0.00  0.00    -0.265 OA
ATOM      6  N   UNL d   1      30.654 -17.405  -1.937  0.00  0.00    -0.224 N 
ATOM      7  H   UNL d   1      30.505 -15.057  -2.850  0.00  0.00     0.184 HD
ATOM      8  H   UNL d   1      31.541 -16.956  -2.138  0.00  0.00     0.177 HD
ENDROOT
BRANCH   1   9
ATOM      9  C   UNL d   1      28.578 -14.359  -2.779  0.00  0.00     0.052 C 
ATOM     10  C   UNL d   1      28.422 -13.212  -2.013  0.00  0.00     0.033 C 
ATOM     11  C   UNL d   1      27.251 -12.384  -2.160  0.00  0.00     0.042 C 
ATOM     12  C   UNL d   1      26.142 -12.734  -2.967  0.00  0.00     0.101 C 
ATOM     13  C   UNL d   1      26.310 -13.888  -3.689  0.00  0.00     0.103 C 
ATOM     14  C   UNL d   1      27.614 -14.444  -3.762  0.00  0.00     0.069 C 
BRANCH  12  15
ATOM     15  O   UNL d   1      25.213 -11.747  -3.158  0.00  0.00    -0.353 OA
ATOM     16  C   UNL d   1      25.530 -10.422  -3.567  0.00  0.00     0.210 C 
ENDBRANCH  12  15
BRANCH  13  17
ATOM     17  O   UNL d   1      25.423 -14.716  -4.291  0.00  0.00    -0.353 OA
ATOM     18  C   UNL d   1      25.762 -15.648  -5.271  0.00  0.00     0.210 C 
ENDBRANCH  13  17
ENDBRANCH   1   9
BRANCH   6  19
ATOM     19  C   UNL d   1      30.722 -18.583  -1.022  0.00  0.00     0.142 C 
BRANCH  19  20
ATOM     20  C   UNL d   1      31.656 -19.705  -1.477  0.00  0.00     0.057 C 
BRANCH  20  21
ATOM     21  C   UNL d   1      31.278 -20.462  -2.735  0.00  0.00    -0.048 A 
ATOM     22  C   UNL d   1      31.258 -19.870  -3.934  0.00  0.00    -0.006 A 
ATOM     23  C   UNL d   1      31.539 -18.535  -4.334  0.00  0.00     0.014 A 
ATOM     24  C   UNL d   1      30.798 -20.881  -4.897  0.00  0.00     0.038 A 
ATOM     25  C   UNL d   1      31.250 -18.176  -5.591  0.00  0.00     0.001 A 
ATOM     26  C   UNL d   1      30.780 -19.145  -6.570  0.00  0.00     0.002 A 
ATOM     27  C   UNL d   1      30.575 -20.450  -6.292  0.00  0.00     0.030 A 
ATOM     28  N   UNL d   1      30.622 -22.018  -4.341  0.00  0.00    -0.385 N 
ATOM     29  C   UNL d   1      30.816 -21.896  -2.865  0.00  0.00     0.155 A 
ATOM     30  H   UNL d   1      30.363 -22.855  -4.864  0.00  0.00     0.160 HD
ENDBRANCH  20  21
ENDBRANCH  19  20
ENDBRANCH   6  19
BRANCH   4  31
ATOM     31  C   UNL d   1      26.320 -16.820  -0.215  0.00  0.00     0.037 A 
ATOM     32  C   UNL d   1      25.929 -18.102   0.232  0.00  0.00     0.018 A 
ATOM     33  C   UNL d   1      24.643 -18.576  -0.069  0.00  0.00     0.011 A 
ATOM     34  C   UNL d   1      23.722 -17.727  -0.682  0.00  0.00    -0.023 A 
ATOM     35  C   UNL d   1      22.302 -18.133  -0.892  0.00  0.00     0.051 C 
ATOM     36  C   UNL d   1      24.117 -16.438  -1.037  0.00  0.00     0.123 A 
ATOM     37  F   UNL d   1      23.263 -15.606  -1.642  0.00  0.00    -0.206 F 
ATOM     38  C   UNL d   1      25.395 -15.989  -0.817  0.00  0.00     0.060 A 
ENDBRANCH   4  31
TORSDOF 7
ENDMDL
MODEL 6
REMARK VINA RESULT:    -8.022      6.262      8.680
REMARK INTER + INTRA:         -13.329
REMARK INTER:                 -10.110
REMARK INTRA:                  -3.219
REMARK CONF_INDEPENDENT:        2.088
REMARK UNBOUND:                -3.219
REMARK  7 active torsions:
REMARK  status: ('A' for Active; 'I' for Inactive)
REMARK    1  A    between atoms: O_2  and  C_3 
REMARK    2  A    between atoms: C_6  and  N_7 
REMARK       I    between atoms: N_7  and  C_8 
REMARK       I    between atoms: C_8  and  N_20 
REMARK       I    between atoms: N_9  and  C_10 
REMARK    3  A    between atoms: C_10  and  C_12 
REMARK    4  A    between atoms: N_20  and  C_21 
REMARK    5  A    between atoms: C_21  and  C_22 
REMARK    6  A    between atoms: C_22  and  C_23 
REMARK    7  A    between atoms: C_33  and  O_34 
ROOT
ATOM      1  N   UNL d   1      27.886 -16.538   0.615  0.00  0.00    -0.190 N 
ATOM      2  C   UNL d   1      28.856 -15.775  -0.075  0.00  0.00     0.704 C 
ATOM      3  N   UNL d   1      28.858 -15.239  -1.265  0.00  0.00    -0.023 NA
ATOM      4  C   UNL d   1      28.158 -15.881  -2.256  0.00  0.00     0.294 C 
ATOM      5  O   UNL d   1      28.168 -17.075  -2.402  0.00  0.00    -0.265 OA
ATOM      6  N   UNL d   1      30.058 -15.543   0.621  0.00  0.00    -0.224 N 
ATOM      7  H   UNL d   1      28.206 -17.060   1.419  0.00  0.00     0.184 HD
ATOM      8  H   UNL d   1      30.304 -16.176   1.374  0.00  0.00     0.177 HD
ENDROOT
BRANCH   1   9
ATOM      9  C   UNL d   1      26.563 -16.921   0.200  0.00  0.00     0.052 C 
ATOM     10  C   UNL d   1      25.895 -18.087   0.546  0.00  0.00     0.033 C 
ATOM     11  C   UNL d   1      24.661 -18.450  -0.108  0.00  0.00     0.042 C 
ATOM     12  C   UNL d   1      24.124 -17.743  -1.210  0.00  0.00     0.101 C 
ATOM     13  C   UNL d   1      24.821 -16.612  -1.551  0.00  0.00     0.103 C 
ATOM     14  C   UNL d   1      25.803 -16.136  -0.644  0.00  0.00     0.069 C 
BRANCH  12  15
ATOM     15  O   UNL d   1      22.851 -18.091  -1.574  0.00  0.00    -0.353 OA
ATOM     16  C   UNL d   1      21.869 -18.579  -0.668  0.00  0.00     0.210 C 
ENDBRANCH  12  15
BRANCH  13  17
ATOM     17  O   UNL d   1      24.847 -15.873  -2.686  0.00  0.00    -0.353 OA
ATOM     18  C   UNL d   1      24.413 -14.550  -2.769  0.00  0.00     0.210 C 
ENDBRANCH  13  17
ENDBRANCH   1   9
BRANCH   6  19
ATOM     19  C   UNL d   1      31.208 -14.964  -0.136  0.00  0.00     0.142 C 
BRANCH  19  20
ATOM     20  C   UNL d   1      31.777 -15.859  -1.237  0.00  0.00     0.057 C 
BRANCH  20  21
ATOM     21  C   UNL d   1      31.451 -15.493  -2.673  0.00  0.00    -0.048 A 
ATOM     22  C   UNL d   1      31.030 -16.406  -3.554  0.00  0.00    -0.006 A 
ATOM     23  C   UNL d   1      30.800 -17.804  -3.431  0.00  0.00     0.014 A 
ATOM     24  C   UNL d   1      30.869 -15.710  -4.840  0.00  0.00     0.038 A 
ATOM     25  C   UNL d   1      30.558 -18.507  -4.544  0.00  0.00     0.001 A 
ATOM     26  C   UNL d   1      30.405 -17.856  -5.837  0.00  0.00     0.002 A 
ATOM     27  C   UNL d   1      30.518 -16.524  -6.021  0.00  0.00     0.030 A 
ATOM     28  N   UNL d   1      31.103 -14.459  -4.732  0.00  0.00    -0.385 N 
ATOM     29  C   UNL d   1      31.595 -14.151  -3.356  0.00  0.00     0.155 A 
ATOM     30  H   UNL d   1      30.982 -13.805  -5.506  0.00  0.00     0.160 HD
ENDBRANCH  20  21
ENDBRANCH  19  20
ENDBRANCH   6  19
BRANCH   4  31
ATOM     31  C   UNL d   1      27.678 -15.048  -3.402  0.00  0.00     0.037 A 
ATOM     32  C   UNL d   1      27.278 -15.454  -4.695  0.00  0.00     0.018 A 
ATOM     33  C   UNL d   1      27.408 -14.559  -5.770  0.00  0.00     0.011 A 
ATOM     34  C   UNL d   1      27.796 -13.242  -5.527  0.00  0.00    -0.023 A 
ATOM     35  C   UNL d   1      27.809 -12.218  -6.612  0.00  0.00     0.051 C 
ATOM     36  C   UNL d   1      28.105 -12.853  -4.225  0.00  0.00     0.123 A 
ATOM     37  F   UNL d   1      28.498 -11.604  -3.963  0.00  0.00    -0.206 F 
ATOM     38  C   UNL d   1      28.056 -13.739  -3.177  0.00  0.00     0.060 A 
ENDBRANCH   4  31
TORSDOF 7
ENDMDL
MODEL 7
REMARK VINA RESULT:    -7.881      4.285      6.186
REMARK INTER + INTRA:         -12.707
REMARK INTER:                  -9.969
REMARK INTRA:                  -2.738
REMARK CONF_INDEPENDENT:        2.088
REMARK UNBOUND:                -2.738
REMARK  7 active torsions:
REMARK  status: ('A' for Active; 'I' for Inactive)
REMARK    1  A    between atoms: O_2  and  C_3 
REMARK    2  A    between atoms: C_6  and  N_7 
REMARK       I    between atoms: N_7  and  C_8 
REMARK       I    between atoms: C_8  and  N_20 
REMARK       I    between atoms: N_9  and  C_10 
REMARK    3  A    between atoms: C_10  and  C_12 
REMARK    4  A    between atoms: N_20  and  C_21 
REMARK    5  A    between atoms: C_21  and  C_22 
REMARK    6  A    between atoms: C_22  and  C_23 
REMARK    7  A    between atoms: C_33  and  O_34 
ROOT
ATOM      1  N   UNL d   1      27.875 -16.558   0.674  0.00  0.00    -0.190 N 
ATOM      2  C   UNL d   1      28.845 -15.770   0.011  0.00  0.00     0.704 C 
ATOM      3  N   UNL d   1      28.863 -15.228  -1.177  0.00  0.00    -0.023 NA
ATOM      4  C   UNL d   1      28.201 -15.882  -2.187  0.00  0.00     0.294 C 
ATOM      5  O   UNL d   1      28.242 -17.074  -2.337  0.00  0.00    -0.265 OA
ATOM      6  N   UNL d   1      30.024 -15.514   0.736  0.00  0.00    -0.224 N 
ATOM      7  H   UNL d   1      28.187 -17.076   1.483  0.00  0.00     0.184 HD
ATOM      8  H   UNL d   1      30.266 -16.145   1.493  0.00  0.00     0.177 HD
ENDROOT
BRANCH   1   9
ATOM      9  C   UNL d   1      26.571 -16.967   0.226  0.00  0.00     0.052 C 
ATOM     10  C   UNL d   1      25.925 -18.154   0.542  0.00  0.00     0.033 C 
ATOM     11  C   UNL d   1      24.716 -18.539  -0.143  0.00  0.00     0.042 C 
ATOM     12  C   UNL d   1      24.184 -17.831  -1.247  0.00  0.00     0.101 C 
ATOM     13  C   UNL d   1      24.859 -16.679  -1.558  0.00  0.00     0.103 C 
ATOM     14  C   UNL d   1      25.810 -16.190  -0.624  0.00  0.00     0.069 C 
BRANCH  12  15
ATOM     15  O   UNL d   1      22.929 -18.206  -1.643  0.00  0.00    -0.353 OA
ATOM     16  C   UNL d   1      21.876 -18.538  -0.745  0.00  0.00     0.210 C 
ENDBRANCH  12  15
BRANCH  13  17
ATOM     17  O   UNL d   1      24.890 -15.924  -2.682  0.00  0.00    -0.353 OA
ATOM     18  C   UNL d   1      24.387 -14.625  -2.769  0.00  0.00     0.210 C 
ENDBRANCH  13  17
ENDBRANCH   1   9
BRANCH   6  19
ATOM     19  C   UNL d   1      31.179 -14.907   0.010  0.00  0.00     0.142 C 
BRANCH  19  20
ATOM     20  C   UNL d   1      31.251 -13.380   0.067  0.00  0.00     0.057 C 
BRANCH  20  21
ATOM     21  C   UNL d   1      29.945 -12.615  -0.039  0.00  0.00    -0.048 A 
ATOM     22  C   UNL d   1      29.035 -12.636   0.940  0.00  0.00    -0.006 A 
ATOM     23  C   UNL d   1      29.015 -13.298   2.199  0.00  0.00     0.014 A 
ATOM     24  C   UNL d   1      27.891 -11.839   0.472  0.00  0.00     0.038 A 
ATOM     25  C   UNL d   1      27.875 -13.289   2.901  0.00  0.00     0.001 A 
ATOM     26  C   UNL d   1      26.718 -12.522   2.464  0.00  0.00     0.002 A 
ATOM     27  C   UNL d   1      26.689 -11.795   1.327  0.00  0.00     0.030 A 
ATOM     28  N   UNL d   1      28.119 -11.314  -0.671  0.00  0.00    -0.385 N 
ATOM     29  C   UNL d   1      29.424 -11.804  -1.204  0.00  0.00     0.155 A 
ATOM     30  H   UNL d   1      27.464 -10.677  -1.126  0.00  0.00     0.160 HD
ENDBRANCH  20  21
ENDBRANCH  19  20
ENDBRANCH   6  19
BRANCH   4  31
ATOM     31  C   UNL d   1      27.731 -15.054  -3.341  0.00  0.00     0.037 A 
ATOM     32  C   UNL d   1      27.932 -15.256  -4.725  0.00  0.00     0.018 A 
ATOM     33  C   UNL d   1      27.930 -14.151  -5.591  0.00  0.00     0.011 A 
ATOM     34  C   UNL d   1      27.595 -12.890  -5.099  0.00  0.00    -0.023 A 
ATOM     35  C   UNL d   1      27.439 -11.714  -6.002  0.00  0.00     0.051 C 
ATOM     36  C   UNL d   1      27.323 -12.741  -3.740  0.00  0.00     0.123 A 
ATOM     37  F   UNL d   1      27.016 -11.543  -3.235  0.00  0.00    -0.206 F 
ATOM     38  C   UNL d   1      27.395 -13.800  -2.870  0.00  0.00     0.060 A 
ENDBRANCH   4  31
TORSDOF 7
ENDMDL
MODEL 8
REMARK VINA RESULT:    -7.831      3.309      9.047
REMARK INTER + INTRA:         -12.524
REMARK INTER:                  -9.919
REMARK INTRA:                  -2.605
REMARK CONF_INDEPENDENT:        2.088
REMARK UNBOUND:                -2.605
REMARK  7 active torsions:
REMARK  status: ('A' for Active; 'I' for Inactive)
REMARK    1  A    between atoms: O_2  and  C_3 
REMARK    2  A    between atoms: C_6  and  N_7 
REMARK       I    between atoms: N_7  and  C_8 
REMARK       I    between atoms: C_8  and  N_20 
REMARK       I    between atoms: N_9  and  C_10 
REMARK    3  A    between atoms: C_10  and  C_12 
REMARK    4  A    between atoms: N_20  and  C_21 
REMARK    5  A    between atoms: C_21  and  C_22 
REMARK    6  A    between atoms: C_22  and  C_23 
REMARK    7  A    between atoms: C_33  and  O_34 
ROOT
ATOM      1  N   UNL d   1      29.399 -15.203   1.354  0.00  0.00    -0.190 N 
ATOM      2  C   UNL d   1      29.293 -16.002   0.192  0.00  0.00     0.704 C 
ATOM      3  N   UNL d   1      28.463 -15.968  -0.816  0.00  0.00    -0.023 NA
ATOM      4  C   UNL d   1      27.181 -15.543  -0.572  0.00  0.00     0.294 C 
ATOM      5  O   UNL d   1      26.551 -15.872   0.399  0.00  0.00    -0.265 OA
ATOM      6  N   UNL d   1      30.238 -17.040   0.075  0.00  0.00    -0.224 N 
ATOM      7  H   UNL d   1      29.954 -15.576   2.112  0.00  0.00     0.184 HD
ATOM      8  H   UNL d   1      30.687 -17.374   0.921  0.00  0.00     0.177 HD
ENDROOT
BRANCH   1   9
ATOM      9  C   UNL d   1      28.618 -14.063   1.751  0.00  0.00     0.052 C 
ATOM     10  C   UNL d   1      28.558 -12.838   1.103  0.00  0.00     0.033 C 
ATOM     11  C   UNL d   1      27.906 -11.709   1.721  0.00  0.00     0.042 C 
ATOM     12  C   UNL d   1      27.412 -11.722   3.047  0.00  0.00     0.101 C 
ATOM     13  C   UNL d   1      27.512 -12.937   3.676  0.00  0.00     0.103 C 
ATOM     14  C   UNL d   1      27.832 -14.072   2.886  0.00  0.00     0.069 C 
BRANCH  12  15
ATOM     15  O   UNL d   1      26.641 -10.649   3.403  0.00  0.00    -0.353 OA
ATOM     16  C   UNL d   1      26.236  -9.625   2.502  0.00  0.00     0.210 C 
ENDBRANCH  12  15
BRANCH  13  17
ATOM     17  O   UNL d   1      27.473 -13.284   4.985  0.00  0.00    -0.353 OA
ATOM     18  C   UNL d   1      28.155 -14.373   5.527  0.00  0.00     0.210 C 
ENDBRANCH  13  17
ENDBRANCH   1   9
BRANCH   6  19
ATOM     19  C   UNL d   1      30.030 -18.064  -0.992  0.00  0.00     0.142 C 
BRANCH  19  20
ATOM     20  C   UNL d   1      31.110 -18.103  -2.073  0.00  0.00     0.057 C 
BRANCH  20  21
ATOM     21  C   UNL d   1      30.679 -17.835  -3.502  0.00  0.00    -0.048 A 
ATOM     22  C   UNL d   1      30.269 -16.625  -3.899  0.00  0.00    -0.006 A 
ATOM     23  C   UNL d   1      30.126 -15.398  -3.196  0.00  0.00     0.014 A 
ATOM     24  C   UNL d   1      29.882 -16.753  -5.312  0.00  0.00     0.038 A 
ATOM     25  C   UNL d   1      29.506 -14.383  -3.812  0.00  0.00     0.001 A 
ATOM     26  C   UNL d   1      29.097 -14.476  -5.206  0.00  0.00     0.002 A 
ATOM     27  C   UNL d   1      29.280 -15.575  -5.967  0.00  0.00     0.030 A 
ATOM     28  N   UNL d   1      30.108 -17.928  -5.759  0.00  0.00    -0.385 N 
ATOM     29  C   UNL d   1      30.566 -18.815  -4.648  0.00  0.00     0.155 A 
ATOM     30  H   UNL d   1      29.961 -18.186  -6.736  0.00  0.00     0.160 HD
ENDBRANCH  20  21
ENDBRANCH  19  20
ENDBRANCH   6  19
BRANCH   4  31
ATOM     31  C   UNL d   1      26.423 -14.967  -1.726  0.00  0.00     0.037 A 
ATOM     32  C   UNL d   1      26.062 -15.574  -2.950  0.00  0.00     0.018 A 
ATOM     33  C   UNL d   1      25.878 -14.775  -4.089  0.00  0.00     0.011 A 
ATOM     34  C   UNL d   1      25.918 -13.386  -3.970  0.00  0.00    -0.023 A 
ATOM     35  C   UNL d   1      25.588 -12.493  -5.118  0.00  0.00     0.051 C 
ATOM     36  C   UNL d   1      26.198 -12.818  -2.729  0.00  0.00     0.123 A 
ATOM     37  F   UNL d   1      26.261 -11.491  -2.586  0.00  0.00    -0.206 F 
ATOM     38  C   UNL d   1      26.454 -13.590  -1.623  0.00  0.00     0.060 A 
ENDBRANCH   4  31
TORSDOF 7
ENDMDL
MODEL 9
REMARK VINA RESULT:    -7.207      5.594      7.744
REMARK INTER + INTRA:         -13.119
REMARK INTER:                  -9.295
REMARK INTRA:                  -3.824
REMARK CONF_INDEPENDENT:        2.088
REMARK UNBOUND:                -3.824
REMARK  7 active torsions:
REMARK  status: ('A' for Active; 'I' for Inactive)
REMARK    1  A    between atoms: O_2  and  C_3 
REMARK    2  A    between atoms: C_6  and  N_7 
REMARK       I    between atoms: N_7  and  C_8 
REMARK       I    between atoms: C_8  and  N_20 
REMARK       I    between atoms: N_9  and  C_10 
REMARK    3  A    between atoms: C_10  and  C_12 
REMARK    4  A    between atoms: N_20  and  C_21 
REMARK    5  A    between atoms: C_21  and  C_22 
REMARK    6  A    between atoms: C_22  and  C_23 
REMARK    7  A    between atoms: C_33  and  O_34 
ROOT
ATOM      1  N   UNL d   1      27.900 -15.990   0.960  0.00  0.00    -0.190 N 
ATOM      2  C   UNL d   1      29.096 -15.581   0.325  0.00  0.00     0.704 C 
ATOM      3  N   UNL d   1      29.486 -15.642  -0.920  0.00  0.00    -0.023 NA
ATOM      4  C   UNL d   1      29.034 -16.692  -1.679  0.00  0.00     0.294 C 
ATOM      5  O   UNL d   1      28.969 -17.821  -1.270  0.00  0.00    -0.265 OA
ATOM      6  N   UNL d   1      30.069 -15.008   1.166  0.00  0.00    -0.224 N 
ATOM      7  H   UNL d   1      27.928 -16.077   1.967  0.00  0.00     0.184 HD
ATOM      8  H   UNL d   1      30.029 -15.221   2.157  0.00  0.00     0.177 HD
ENDROOT
BRANCH   1   9
ATOM      9  C   UNL d   1      26.717 -16.574   0.388  0.00  0.00     0.052 C 
ATOM     10  C   UNL d   1      26.210 -17.838   0.654  0.00  0.00     0.033 C 
ATOM     11  C   UNL d   1      25.141 -18.385  -0.145  0.00  0.00     0.042 C 
ATOM     12  C   UNL d   1      24.634 -17.757  -1.307  0.00  0.00     0.101 C 
ATOM     13  C   UNL d   1      25.174 -16.523  -1.565  0.00  0.00     0.103 C 
ATOM     14  C   UNL d   1      25.949 -15.909  -0.546  0.00  0.00     0.069 C 
BRANCH  12  15
ATOM     15  O   UNL d   1      23.489 -18.300  -1.823  0.00  0.00    -0.353 OA
ATOM     16  C   UNL d   1      22.325 -18.583  -1.055  0.00  0.00     0.210 C 
ENDBRANCH  12  15
BRANCH  13  17
ATOM     17  O   UNL d   1      25.218 -15.771  -2.691  0.00  0.00    -0.353 OA
ATOM     18  C   UNL d   1      24.778 -14.450  -2.768  0.00  0.00     0.210 C 
ENDBRANCH  13  17
ENDBRANCH   1   9
BRANCH   6  19
ATOM     19  C   UNL d   1      31.437 -14.786   0.609  0.00  0.00     0.142 C 
BRANCH  19  20
ATOM     20  C   UNL d   1      31.675 -13.401   0.007  0.00  0.00     0.057 C 
BRANCH  20  21
ATOM     21  C   UNL d   1      30.934 -13.059  -1.272  0.00  0.00    -0.048 A 
ATOM     22  C   UNL d   1      29.665 -12.638  -1.259  0.00  0.00    -0.006 A 
ATOM     23  C   UNL d   1      28.751 -12.422  -0.191  0.00  0.00     0.014 A 
ATOM     24  C   UNL d   1      29.264 -12.459  -2.663  0.00  0.00     0.038 A 
ATOM     25  C   UNL d   1      27.470 -12.177  -0.493  0.00  0.00     0.001 A 
ATOM     26  C   UNL d   1      27.033 -12.006  -1.871  0.00  0.00     0.002 A 
ATOM     27  C   UNL d   1      27.857 -12.105  -2.935  0.00  0.00     0.030 A 
ATOM     28  N   UNL d   1      30.235 -12.682  -3.462  0.00  0.00    -0.385 N 
ATOM     29  C   UNL d   1      31.417 -13.184  -2.700  0.00  0.00     0.155 A 
ATOM     30  H   UNL d   1      30.162 -12.548  -4.471  0.00  0.00     0.160 HD
ENDBRANCH  20  21
ENDBRANCH  19  20
ENDBRANCH   6  19
BRANCH   4  31
ATOM     31  C   UNL d   1      28.982 -16.489  -3.160  0.00  0.00     0.037 A 
ATOM     32  C   UNL d   1      29.981 -16.729  -4.131  0.00  0.00     0.018 A 
ATOM     33  C   UNL d   1      29.980 -15.984  -5.321  0.00  0.00     0.011 A 
ATOM     34  C   UNL d   1      28.920 -15.120  -5.592  0.00  0.00    -0.023 A 
ATOM     35  C   UNL d   1      28.799 -14.417  -6.903  0.00  0.00     0.051 C 
ATOM     36  C   UNL d   1      27.907 -14.968  -4.647  0.00  0.00     0.123 A 
ATOM     37  F   UNL d   1      26.887 -14.134  -4.869  0.00  0.00    -0.206 F 
ATOM     38  C   UNL d   1      27.936 -15.633  -3.446  0.00  0.00     0.060 A 
ENDBRANCH   4  31
TORSDOF 7
ENDMDL
