MODEL 1
REMARK VINA RESULT:    -5.734      0.000      0.000
REMARK INTER + INTRA:         -17.899
REMARK INTER:                  -9.911
REMARK INTRA:                  -7.989
REMARK CONF_INDEPENDENT:        4.176
REMARK UNBOUND:                -7.989
REMARK  14 active torsions:
REMARK  status: ('A' for Active; 'I' for Inactive)
REMARK    1  A    between atoms: N_2  and  C_4 
REMARK    2  A    between atoms: C_6  and  S_7 
REMARK    3  A    between atoms: S_7  and  N_10 
REMARK    4  A    between atoms: C_17  and  O_18 
REMARK    5  A    between atoms: O_18  and  C_19 
REMARK    6  A    between atoms: C_19  and  C_20 
REMARK    7  A    between atoms: C_20  and  O_21 
REMARK    8  A    between atoms: C_20  and  C_22 
REMARK    9  A    between atoms: N_23  and  C_22 
REMARK   10  A    between atoms: N_23  and  C_27 
REMARK   11  A    between atoms: N_23  and  C_24 
REMARK   12  A    between atoms: C_24  and  C_25 
REMARK   13  A    between atoms: C_25  and  O_26 
REMARK   14  A    between atoms: C_27  and  C_28 
ROOT
ATOM      1  O   UNL d   1      28.454 -15.862  -4.788  0.00  0.00    -0.346 OA
ENDROOT
BRANCH   1   2
ATOM      2  C   UNL d   1      27.728 -14.714  -5.003  0.00  0.00     0.102 C 
ATOM      3  C   UNL d   1      28.486 -13.907  -5.800  0.00  0.00     0.041 C 
ATOM      4  C   UNL d   1      28.053 -12.616  -6.012  0.00  0.00     0.028 C 
ATOM      5  C   UNL d   1      26.763 -12.184  -5.817  0.00  0.00     0.082 C 
ATOM      6  C   UNL d   1      25.998 -12.925  -4.969  0.00  0.00     0.064 C 
ATOM      7  C   UNL d   1      26.486 -14.175  -4.549  0.00  0.00     0.137 C 
BRANCH   5   8
ATOM      8  S   UNL d   1      26.033 -10.818  -6.700  0.00  0.00     0.260 S 
ATOM      9  O   UNL d   1      26.910 -10.571  -7.818  0.00  0.00    -0.200 OA
ATOM     10  O   UNL d   1      24.645 -11.204  -6.895  0.00  0.00    -0.200 OA
BRANCH   8  11
ATOM     11  N   UNL d   1      26.089  -9.451  -5.679  0.00  0.00    -0.307 N 
ATOM     12  C   UNL d   1      25.160  -9.354  -4.519  0.00  0.00     0.135 C 
ATOM     13  C   UNL d   1      24.067  -8.434  -5.015  0.00  0.00     0.022 C 
ATOM     14  C   UNL d   1      24.851  -7.406  -5.857  0.00  0.00     0.022 C 
ATOM     15  C   UNL d   1      26.148  -8.116  -6.314  0.00  0.00     0.135 C 
ENDBRANCH   8  11
ENDBRANCH   5   8
BRANCH   7  16
ATOM     16  N   UNL d   1      25.574 -14.765  -3.602  0.00  0.00    -0.113 N 
ATOM     17  O   UNL d   1      25.768 -15.936  -3.260  0.00  0.00    -0.532 OA
ATOM     18  O   UNL d   1      24.677 -14.051  -3.137  0.00  0.00    -0.532 OA
ENDBRANCH   7  16
ENDBRANCH   1   2
BRANCH   1  19
ATOM     19  C   UNL d   1      29.453 -15.681  -3.844  0.00  0.00     0.209 C 
BRANCH  19  20
ATOM     20  C   UNL d   1      29.064 -15.523  -2.396  0.00  0.00     0.168 C 
BRANCH  20  21
ATOM     21  O   UNL d   1      28.174 -14.409  -2.271  0.00  0.00    -0.392 OA
ATOM     22  H   UNL d   1      27.286 -14.657  -2.593  0.00  0.00     0.210 HD
ENDBRANCH  20  21
BRANCH  20  23
ATOM     23  C   UNL d   1      28.301 -16.777  -1.912  0.00  0.00     0.269 C 
BRANCH  23  24
ATOM     24  N   UNL d   1      27.088 -16.564  -1.003  0.00  0.00    -0.063 N 
ATOM     25  H   UNL d   1      26.403 -16.049  -1.576  0.00  0.00     0.280 HD
BRANCH  24  26
ATOM     26  C   UNL d   1      26.407 -17.859  -0.612  0.00  0.00     0.273 C 
BRANCH  26  27
ATOM     27  C   UNL d   1      24.943 -17.667  -0.465  0.00  0.00    -0.033 A 
ATOM     28  C   UNL d   1      24.130 -18.750  -0.101  0.00  0.00     0.009 A 
ATOM     29  C   UNL d   1      22.755 -18.647  -0.235  0.00  0.00     0.001 A 
ATOM     30  C   UNL d   1      22.189 -17.427  -0.594  0.00  0.00     0.000 A 
ATOM     31  C   UNL d   1      22.994 -16.330  -0.901  0.00  0.00     0.001 A 
ATOM     32  C   UNL d   1      24.374 -16.455  -0.864  0.00  0.00     0.009 A 
ENDBRANCH  26  27
ENDBRANCH  24  26
BRANCH  24  33
ATOM     33  C   UNL d   1      27.332 -15.833   0.287  0.00  0.00     0.261 C 
BRANCH  33  34
ATOM     34  C   UNL d   1      26.439 -14.587   0.341  0.00  0.00     0.192 C 
BRANCH  34  35
ATOM     35  O   UNL d   1      26.285 -13.916  -0.885  0.00  0.00    -0.399 OA
ATOM     36  H   UNL d   1      26.060 -14.525  -1.618  0.00  0.00     0.209 HD
ENDBRANCH  34  35
ENDBRANCH  33  34
ENDBRANCH  24  33
ENDBRANCH  23  24
ENDBRANCH  20  23
ENDBRANCH  19  20
ENDBRANCH   1  19
TORSDOF 14
ENDMDL
MODEL 2
REMARK VINA RESULT:    -5.098      3.804      7.643
REMARK INTER + INTRA:         -18.267
REMARK INTER:                  -9.274
REMARK INTRA:                  -8.993
REMARK CONF_INDEPENDENT:        4.176
REMARK UNBOUND:                -8.993
REMARK  14 active torsions:
REMARK  status: ('A' for Active; 'I' for Inactive)
REMARK    1  A    between atoms: N_2  and  C_4 
REMARK    2  A    between atoms: C_6  and  S_7 
REMARK    3  A    between atoms: S_7  and  N_10 
REMARK    4  A    between atoms: C_17  and  O_18 
REMARK    5  A    between atoms: O_18  and  C_19 
REMARK    6  A    between atoms: C_19  and  C_20 
REMARK    7  A    between atoms: C_20  and  O_21 
REMARK    8  A    between atoms: C_20  and  C_22 
REMARK    9  A    between atoms: N_23  and  C_22 
REMARK   10  A    between atoms: N_23  and  C_27 
REMARK   11  A    between atoms: N_23  and  C_24 
REMARK   12  A    between atoms: C_24  and  C_25 
REMARK   13  A    between atoms: C_25  and  O_26 
REMARK   14  A    between atoms: C_27  and  C_28 
ROOT
ATOM      1  O   UNL d   1      27.937 -15.300  -6.098  0.00  0.00    -0.346 OA
ENDROOT
BRANCH   1   2
ATOM      2  C   UNL d   1      27.588 -15.443  -4.775  0.00  0.00     0.102 C 
ATOM      3  C   UNL d   1      26.229 -15.557  -4.732  0.00  0.00     0.041 C 
ATOM      4  C   UNL d   1      25.617 -15.529  -3.498  0.00  0.00     0.028 C 
ATOM      5  C   UNL d   1      26.254 -15.779  -2.305  0.00  0.00     0.082 C 
ATOM      6  C   UNL d   1      27.605 -15.605  -2.292  0.00  0.00     0.064 C 
ATOM      7  C   UNL d   1      28.265 -15.419  -3.518  0.00  0.00     0.137 C 
BRANCH   5   8
ATOM      8  S   UNL d   1      25.433 -16.428  -0.862  0.00  0.00     0.260 S 
ATOM      9  O   UNL d   1      26.148 -17.633  -0.522  0.00  0.00    -0.200 OA
ATOM     10  O   UNL d   1      25.357 -15.305   0.057  0.00  0.00    -0.200 OA
BRANCH   8  11
ATOM     11  N   UNL d   1      23.850 -16.873  -1.323  0.00  0.00    -0.307 N 
ATOM     12  C   UNL d   1      22.713 -16.641  -0.390  0.00  0.00     0.135 C 
ATOM     13  C   UNL d   1      22.479 -17.999   0.232  0.00  0.00     0.022 C 
ATOM     14  C   UNL d   1      22.721 -18.956  -0.954  0.00  0.00     0.022 C 
ATOM     15  C   UNL d   1      23.657 -18.208  -1.933  0.00  0.00     0.135 C 
ENDBRANCH   8  11
ENDBRANCH   5   8
BRANCH   7  16
ATOM     16  N   UNL d   1      29.667 -15.176  -3.289  0.00  0.00    -0.113 N 
ATOM     17  O   UNL d   1      30.404 -16.150  -3.106  0.00  0.00    -0.532 OA
ATOM     18  O   UNL d   1      30.071 -14.007  -3.342  0.00  0.00    -0.532 OA
ENDBRANCH   7  16
ENDBRANCH   1   2
BRANCH   1  19
ATOM     19  C   UNL d   1      28.522 -14.070  -6.356  0.00  0.00     0.209 C 
BRANCH  19  20
ATOM     20  C   UNL d   1      29.979 -14.024  -6.736  0.00  0.00     0.168 C 
BRANCH  20  21
ATOM     21  O   UNL d   1      30.722 -13.418  -5.671  0.00  0.00    -0.392 OA
ATOM     22  H   UNL d   1      30.632 -13.954  -4.860  0.00  0.00     0.210 HD
ENDBRANCH  20  21
BRANCH  20  23
ATOM     23  C   UNL d   1      30.526 -15.458  -6.918  0.00  0.00     0.269 C 
BRANCH  23  24
ATOM     24  N   UNL d   1      30.926 -16.232  -5.659  0.00  0.00    -0.063 N 
ATOM     25  H   UNL d   1      30.729 -15.595  -4.872  0.00  0.00     0.280 HD
BRANCH  24  26
ATOM     26  C   UNL d   1      30.071 -17.458  -5.422  0.00  0.00     0.273 C 
BRANCH  26  27
ATOM     27  C   UNL d   1      30.486 -18.576  -6.304  0.00  0.00    -0.033 A 
ATOM     28  C   UNL d   1      30.751 -19.839  -5.755  0.00  0.00     0.009 A 
ATOM     29  C   UNL d   1      31.400 -20.795  -6.519  0.00  0.00     0.001 A 
ATOM     30  C   UNL d   1      31.653 -20.543  -7.865  0.00  0.00     0.000 A 
ATOM     31  C   UNL d   1      31.337 -19.307  -8.430  0.00  0.00     0.001 A 
ATOM     32  C   UNL d   1      30.778 -18.311  -7.645  0.00  0.00     0.009 A 
ENDBRANCH  26  27
ENDBRANCH  24  26
BRANCH  24  33
ATOM     33  C   UNL d   1      32.347 -16.714  -5.587  0.00  0.00     0.261 C 
BRANCH  33  34
ATOM     34  C   UNL d   1      33.133 -15.834  -4.605  0.00  0.00     0.192 C 
BRANCH  34  35
ATOM     35  O   UNL d   1      32.560 -14.576  -4.351  0.00  0.00    -0.399 OA
ATOM     36  H   UNL d   1      31.628 -14.641  -4.060  0.00  0.00     0.209 HD
ENDBRANCH  34  35
ENDBRANCH  33  34
ENDBRANCH  24  33
ENDBRANCH  23  24
ENDBRANCH  20  23
ENDBRANCH  19  20
ENDBRANCH   1  19
TORSDOF 14
ENDMDL
MODEL 3
REMARK VINA RESULT:    -5.057      3.694      6.787
REMARK INTER + INTRA:         -17.992
REMARK INTER:                  -9.233
REMARK INTRA:                  -8.759
REMARK CONF_INDEPENDENT:        4.176
REMARK UNBOUND:                -8.759
REMARK  14 active torsions:
REMARK  status: ('A' for Active; 'I' for Inactive)
REMARK    1  A    between atoms: N_2  and  C_4 
REMARK    2  A    between atoms: C_6  and  S_7 
REMARK    3  A    between atoms: S_7  and  N_10 
REMARK    4  A    between atoms: C_17  and  O_18 
REMARK    5  A    between atoms: O_18  and  C_19 
REMARK    6  A    between atoms: C_19  and  C_20 
REMARK    7  A    between atoms: C_20  and  O_21 
REMARK    8  A    between atoms: C_20  and  C_22 
REMARK    9  A    between atoms: N_23  and  C_22 
REMARK   10  A    between atoms: N_23  and  C_27 
REMARK   11  A    between atoms: N_23  and  C_24 
REMARK   12  A    between atoms: C_24  and  C_25 
REMARK   13  A    between atoms: C_25  and  O_26 
REMARK   14  A    between atoms: C_27  and  C_28 
ROOT
ATOM      1  O   UNL d   1      30.447 -13.352  -4.230  0.00  0.00    -0.346 OA
ENDROOT
BRANCH   1   2
ATOM      2  C   UNL d   1      30.480 -14.486  -5.009  0.00  0.00     0.102 C 
ATOM      3  C   UNL d   1      31.751 -14.598  -5.493  0.00  0.00     0.041 C 
ATOM      4  C   UNL d   1      31.995 -15.558  -6.450  0.00  0.00     0.028 C 
ATOM      5  C   UNL d   1      31.192 -16.649  -6.685  0.00  0.00     0.082 C 
ATOM      6  C   UNL d   1      29.896 -16.545  -6.279  0.00  0.00     0.064 C 
ATOM      7  C   UNL d   1      29.539 -15.459  -5.462  0.00  0.00     0.137 C 
BRANCH   5   8
ATOM      8  S   UNL d   1      31.788 -18.191  -7.352  0.00  0.00     0.260 S 
ATOM      9  O   UNL d   1      31.527 -18.122  -8.769  0.00  0.00    -0.200 OA
ATOM     10  O   UNL d   1      33.139 -18.321  -6.833  0.00  0.00    -0.200 OA
BRANCH   8  11
ATOM     11  N   UNL d   1      30.824 -19.442  -6.704  0.00  0.00    -0.307 N 
ATOM     12  C   UNL d   1      30.455 -19.422  -5.261  0.00  0.00     0.135 C 
ATOM     13  C   UNL d   1      31.427 -20.394  -4.631  0.00  0.00     0.022 C 
ATOM     14  C   UNL d   1      31.533 -21.501  -5.701  0.00  0.00     0.022 C 
ATOM     15  C   UNL d   1      31.175 -20.837  -7.052  0.00  0.00     0.135 C 
ENDBRANCH   8  11
ENDBRANCH   5   8
BRANCH   7  16
ATOM     16  N   UNL d   1      28.120 -15.483  -5.206  0.00  0.00    -0.113 N 
ATOM     17  O   UNL d   1      27.740 -15.728  -4.057  0.00  0.00    -0.532 OA
ATOM     18  O   UNL d   1      27.358 -15.202  -6.139  0.00  0.00    -0.532 OA
ENDBRANCH   7  16
ENDBRANCH   1   2
BRANCH   1  19
ATOM     19  C   UNL d   1      29.573 -12.399  -4.732  0.00  0.00     0.209 C 
BRANCH  19  20
ATOM     20  C   UNL d   1      28.187 -12.305  -4.148  0.00  0.00     0.168 C 
BRANCH  20  21
ATOM     21  O   UNL d   1      27.250 -12.860  -5.078  0.00  0.00    -0.392 OA
ATOM     22  H   UNL d   1      27.134 -13.814  -4.901  0.00  0.00     0.210 HD
ENDBRANCH  20  21
BRANCH  20  23
ATOM     23  C   UNL d   1      28.098 -13.143  -2.852  0.00  0.00     0.269 C 
BRANCH  23  24
ATOM     24  N   UNL d   1      26.770 -13.839  -2.545  0.00  0.00    -0.063 N 
ATOM     25  H   UNL d   1      26.770 -14.695  -3.121  0.00  0.00     0.280 HD
BRANCH  24  26
ATOM     26  C   UNL d   1      26.666 -14.309  -1.110  0.00  0.00     0.273 C 
BRANCH  26  27
ATOM     27  C   UNL d   1      26.124 -15.688  -1.039  0.00  0.00    -0.033 A 
ATOM     28  C   UNL d   1      24.825 -15.952  -1.493  0.00  0.00     0.009 A 
ATOM     29  C   UNL d   1      24.221 -17.159  -1.175  0.00  0.00     0.001 A 
ATOM     30  C   UNL d   1      24.960 -18.148  -0.533  0.00  0.00     0.000 A 
ATOM     31  C   UNL d   1      26.275 -17.909  -0.131  0.00  0.00     0.001 A 
ATOM     32  C   UNL d   1      26.851 -16.669  -0.358  0.00  0.00     0.009 A 
ENDBRANCH  26  27
ENDBRANCH  24  26
BRANCH  24  33
ATOM     33  C   UNL d   1      25.519 -13.048  -2.800  0.00  0.00     0.261 C 
BRANCH  33  34
ATOM     34  C   UNL d   1      24.728 -13.701  -3.941  0.00  0.00     0.192 C 
BRANCH  34  35
ATOM     35  O   UNL d   1      25.298 -14.877  -4.458  0.00  0.00    -0.399 OA
ATOM     36  H   UNL d   1      26.093 -14.699  -5.001  0.00  0.00     0.209 HD
ENDBRANCH  34  35
ENDBRANCH  33  34
ENDBRANCH  24  33
ENDBRANCH  23  24
ENDBRANCH  20  23
ENDBRANCH  19  20
ENDBRANCH   1  19
TORSDOF 14
ENDMDL
MODEL 4
REMARK VINA RESULT:    -4.976      5.180      8.193
REMARK INTER + INTRA:         -17.833
REMARK INTER:                  -9.152
REMARK INTRA:                  -8.681
REMARK CONF_INDEPENDENT:        4.176
REMARK UNBOUND:                -8.681
REMARK  14 active torsions:
REMARK  status: ('A' for Active; 'I' for Inactive)
REMARK    1  A    between atoms: N_2  and  C_4 
REMARK    2  A    between atoms: C_6  and  S_7 
REMARK    3  A    between atoms: S_7  and  N_10 
REMARK    4  A    between atoms: C_17  and  O_18 
REMARK    5  A    between atoms: O_18  and  C_19 
REMARK    6  A    between atoms: C_19  and  C_20 
REMARK    7  A    between atoms: C_20  and  O_21 
REMARK    8  A    between atoms: C_20  and  C_22 
REMARK    9  A    between atoms: N_23  and  C_22 
REMARK   10  A    between atoms: N_23  and  C_27 
REMARK   11  A    between atoms: N_23  and  C_24 
REMARK   12  A    between atoms: C_24  and  C_25 
REMARK   13  A    between atoms: C_25  and  O_26 
REMARK   14  A    between atoms: C_27  and  C_28 
ROOT
ATOM      1  O   UNL d   1      30.058 -14.063   0.433  0.00  0.00    -0.346 OA
ENDROOT
BRANCH   1   2
ATOM      2  C   UNL d   1      28.750 -14.268   0.055  0.00  0.00     0.102 C 
ATOM      3  C   UNL d   1      28.781 -14.907  -1.150  0.00  0.00     0.041 C 
ATOM      4  C   UNL d   1      27.592 -15.063  -1.828  0.00  0.00     0.028 C 
ATOM      5  C   UNL d   1      26.347 -14.983  -1.250  0.00  0.00     0.082 C 
ATOM      6  C   UNL d   1      26.266 -14.288  -0.081  0.00  0.00     0.064 C 
ATOM      7  C   UNL d   1      27.461 -13.916   0.557  0.00  0.00     0.137 C 
BRANCH   5   8
ATOM      8  S   UNL d   1      24.909 -15.833  -1.874  0.00  0.00     0.260 S 
ATOM      9  O   UNL d   1      24.048 -14.799  -2.393  0.00  0.00    -0.200 OA
ATOM     10  O   UNL d   1      25.441 -16.879  -2.730  0.00  0.00    -0.200 OA
BRANCH   8  11
ATOM     11  N   UNL d   1      24.117 -16.554  -0.545  0.00  0.00    -0.307 N 
ATOM     12  C   UNL d   1      24.546 -17.898  -0.067  0.00  0.00     0.135 C 
ATOM     13  C   UNL d   1      23.521 -18.834  -0.667  0.00  0.00     0.022 C 
ATOM     14  C   UNL d   1      22.217 -18.016  -0.557  0.00  0.00     0.022 C 
ATOM     15  C   UNL d   1      22.637 -16.527  -0.524  0.00  0.00     0.135 C 
ENDBRANCH   8  11
ENDBRANCH   5   8
BRANCH   7  16
ATOM     16  N   UNL d   1      27.167 -13.128   1.728  0.00  0.00    -0.113 N 
ATOM     17  O   UNL d   1      27.250 -13.674   2.833  0.00  0.00    -0.532 OA
ATOM     18  O   UNL d   1      26.902 -11.930   1.570  0.00  0.00    -0.532 OA
ENDBRANCH   7  16
ENDBRANCH   1   2
BRANCH   1  19
ATOM     19  C   UNL d   1      30.291 -14.454   1.743  0.00  0.00     0.209 C 
BRANCH  19  20
ATOM     20  C   UNL d   1      30.500 -13.393   2.792  0.00  0.00     0.168 C 
BRANCH  20  21
ATOM     21  O   UNL d   1      29.747 -12.228   2.434  0.00  0.00    -0.392 OA
ATOM     22  H   UNL d   1      28.791 -12.419   2.500  0.00  0.00     0.210 HD
ENDBRANCH  20  21
BRANCH  20  23
ATOM     23  C   UNL d   1      29.964 -13.883   4.157  0.00  0.00     0.269 C 
BRANCH  23  24
ATOM     24  N   UNL d   1      28.863 -13.057   4.827  0.00  0.00    -0.063 N 
ATOM     25  H   UNL d   1      28.139 -12.928   4.104  0.00  0.00     0.280 HD
BRANCH  24  26
ATOM     26  C   UNL d   1      28.185 -13.788   5.966  0.00  0.00     0.273 C 
BRANCH  26  27
ATOM     27  C   UNL d   1      28.862 -13.508   7.256  0.00  0.00    -0.033 A 
ATOM     28  C   UNL d   1      30.116 -14.075   7.525  0.00  0.00     0.009 A 
ATOM     29  C   UNL d   1      30.616 -14.047   8.817  0.00  0.00     0.001 A 
ATOM     30  C   UNL d   1      29.937 -13.333   9.801  0.00  0.00     0.000 A 
ATOM     31  C   UNL d   1      28.717 -12.717   9.522  0.00  0.00     0.001 A 
ATOM     32  C   UNL d   1      28.163 -12.826   8.256  0.00  0.00     0.009 A 
ENDBRANCH  26  27
ENDBRANCH  24  26
BRANCH  24  33
ATOM     33  C   UNL d   1      29.268 -11.724   5.390  0.00  0.00     0.261 C 
BRANCH  33  34
ATOM     34  C   UNL d   1      28.523 -10.609   4.644  0.00  0.00     0.192 C 
BRANCH  34  35
ATOM     35  O   UNL d   1      27.485 -11.051   3.805  0.00  0.00    -0.399 OA
ATOM     36  H   UNL d   1      27.813 -11.593   3.059  0.00  0.00     0.209 HD
ENDBRANCH  34  35
ENDBRANCH  33  34
ENDBRANCH  24  33
ENDBRANCH  23  24
ENDBRANCH  20  23
ENDBRANCH  19  20
ENDBRANCH   1  19
TORSDOF 14
ENDMDL
MODEL 5
REMARK VINA RESULT:    -4.934      3.585      6.669
REMARK INTER + INTRA:         -18.482
REMARK INTER:                  -9.110
REMARK INTRA:                  -9.373
REMARK CONF_INDEPENDENT:        4.176
REMARK UNBOUND:                -9.373
REMARK  14 active torsions:
REMARK  status: ('A' for Active; 'I' for Inactive)
REMARK    1  A    between atoms: N_2  and  C_4 
REMARK    2  A    between atoms: C_6  and  S_7 
REMARK    3  A    between atoms: S_7  and  N_10 
REMARK    4  A    between atoms: C_17  and  O_18 
REMARK    5  A    between atoms: O_18  and  C_19 
REMARK    6  A    between atoms: C_19  and  C_20 
REMARK    7  A    between atoms: C_20  and  O_21 
REMARK    8  A    between atoms: C_20  and  C_22 
REMARK    9  A    between atoms: N_23  and  C_22 
REMARK   10  A    between atoms: N_23  and  C_27 
REMARK   11  A    between atoms: N_23  and  C_24 
REMARK   12  A    between atoms: C_24  and  C_25 
REMARK   13  A    between atoms: C_25  and  O_26 
REMARK   14  A    between atoms: C_27  and  C_28 
ROOT
ATOM      1  O   UNL d   1      28.676 -15.850  -1.214  0.00  0.00    -0.346 OA
ENDROOT
BRANCH   1   2
ATOM      2  C   UNL d   1      29.163 -16.450  -2.353  0.00  0.00     0.102 C 
ATOM      3  C   UNL d   1      30.046 -17.410  -1.949  0.00  0.00     0.041 C 
ATOM      4  C   UNL d   1      30.808 -18.033  -2.913  0.00  0.00     0.028 C 
ATOM      5  C   UNL d   1      30.504 -18.058  -4.254  0.00  0.00     0.082 C 
ATOM      6  C   UNL d   1      29.683 -17.070  -4.706  0.00  0.00     0.064 C 
ATOM      7  C   UNL d   1      29.031 -16.259  -3.761  0.00  0.00     0.137 C 
BRANCH   5   8
ATOM      8  S   UNL d   1      31.013 -19.359  -5.360  0.00  0.00     0.260 S 
ATOM      9  O   UNL d   1      32.439 -19.481  -5.179  0.00  0.00    -0.200 OA
ATOM     10  O   UNL d   1      30.114 -20.463  -5.070  0.00  0.00    -0.200 OA
BRANCH   8  11
ATOM     11  N   UNL d   1      30.732 -18.821  -6.956  0.00  0.00    -0.307 N 
ATOM     12  C   UNL d   1      30.779 -19.793  -8.084  0.00  0.00     0.135 C 
ATOM     13  C   UNL d   1      32.150 -19.577  -8.684  0.00  0.00     0.022 C 
ATOM     14  C   UNL d   1      32.328 -18.048  -8.569  0.00  0.00     0.022 C 
ATOM     15  C   UNL d   1      31.422 -17.590  -7.402  0.00  0.00     0.135 C 
ENDBRANCH   8  11
ENDBRANCH   5   8
BRANCH   7  16
ATOM     16  N   UNL d   1      28.275 -15.232  -4.434  0.00  0.00    -0.113 N 
ATOM     17  O   UNL d   1      28.696 -14.072  -4.383  0.00  0.00    -0.532 OA
ATOM     18  O   UNL d   1      27.274 -15.575  -5.075  0.00  0.00    -0.532 OA
ENDBRANCH   7  16
ENDBRANCH   1   2
BRANCH   1  19
ATOM     19  C   UNL d   1      28.920 -14.485  -1.196  0.00  0.00     0.209 C 
BRANCH  19  20
ATOM     20  C   UNL d   1      27.750 -13.537  -1.237  0.00  0.00     0.168 C 
BRANCH  20  21
ATOM     21  O   UNL d   1      27.867 -12.702  -2.395  0.00  0.00    -0.392 OA
ATOM     22  H   UNL d   1      27.955 -13.256  -3.195  0.00  0.00     0.210 HD
ENDBRANCH  20  21
BRANCH  20  23
ATOM     23  C   UNL d   1      26.429 -14.328  -1.373  0.00  0.00     0.269 C 
BRANCH  23  24
ATOM     24  N   UNL d   1      25.943 -14.662  -2.786  0.00  0.00    -0.063 N 
ATOM     25  H   UNL d   1      26.760 -14.517  -3.399  0.00  0.00     0.280 HD
BRANCH  24  26
ATOM     26  C   UNL d   1      25.558 -16.117  -2.951  0.00  0.00     0.273 C 
BRANCH  26  27
ATOM     27  C   UNL d   1      25.185 -16.720  -1.647  0.00  0.00    -0.033 A 
ATOM     28  C   UNL d   1      26.153 -17.389  -0.885  0.00  0.00     0.009 A 
ATOM     29  C   UNL d   1      25.756 -18.183   0.179  0.00  0.00     0.001 A 
ATOM     30  C   UNL d   1      24.419 -18.195   0.567  0.00  0.00     0.000 A 
ATOM     31  C   UNL d   1      23.461 -17.483  -0.156  0.00  0.00     0.001 A 
ATOM     32  C   UNL d   1      23.838 -16.765  -1.280  0.00  0.00     0.009 A 
ENDBRANCH  26  27
ENDBRANCH  24  26
BRANCH  24  33
ATOM     33  C   UNL d   1      24.770 -13.876  -3.299  0.00  0.00     0.261 C 
BRANCH  33  34
ATOM     34  C   UNL d   1      25.154 -13.193  -4.618  0.00  0.00     0.192 C 
BRANCH  34  35
ATOM     35  O   UNL d   1      26.522 -12.900  -4.756  0.00  0.00    -0.399 OA
ATOM     36  H   UNL d   1      27.090 -13.535  -4.274  0.00  0.00     0.209 HD
ENDBRANCH  34  35
ENDBRANCH  33  34
ENDBRANCH  24  33
ENDBRANCH  23  24
ENDBRANCH  20  23
ENDBRANCH  19  20
ENDBRANCH   1  19
TORSDOF 14
ENDMDL
MODEL 6
REMARK VINA RESULT:    -4.525      4.709      7.931
REMARK INTER + INTRA:         -18.304
REMARK INTER:                  -8.701
REMARK INTRA:                  -9.603
REMARK CONF_INDEPENDENT:        4.176
REMARK UNBOUND:                -9.603
REMARK  14 active torsions:
REMARK  status: ('A' for Active; 'I' for Inactive)
REMARK    1  A    between atoms: N_2  and  C_4 
REMARK    2  A    between atoms: C_6  and  S_7 
REMARK    3  A    between atoms: S_7  and  N_10 
REMARK    4  A    between atoms: C_17  and  O_18 
REMARK    5  A    between atoms: O_18  and  C_19 
REMARK    6  A    between atoms: C_19  and  C_20 
REMARK    7  A    between atoms: C_20  and  O_21 
REMARK    8  A    between atoms: C_20  and  C_22 
REMARK    9  A    between atoms: N_23  and  C_22 
REMARK   10  A    between atoms: N_23  and  C_27 
REMARK   11  A    between atoms: N_23  and  C_24 
REMARK   12  A    between atoms: C_24  and  C_25 
REMARK   13  A    between atoms: C_25  and  O_26 
REMARK   14  A    between atoms: C_27  and  C_28 
ROOT
ATOM      1  O   UNL d   1      29.377 -13.908   2.460  0.00  0.00    -0.346 OA
ENDROOT
BRANCH   1   2
ATOM      2  C   UNL d   1      28.392 -14.121   1.523  0.00  0.00     0.102 C 
ATOM      3  C   UNL d   1      28.620 -15.352   0.980  0.00  0.00     0.041 C 
ATOM      4  C   UNL d   1      27.872 -15.723  -0.116  0.00  0.00     0.028 C 
ATOM      5  C   UNL d   1      26.677 -15.147  -0.477  0.00  0.00     0.082 C 
ATOM      6  C   UNL d   1      26.448 -13.888  -0.012  0.00  0.00     0.064 C 
ATOM      7  C   UNL d   1      27.312 -13.371   0.968  0.00  0.00     0.137 C 
BRANCH   5   8
ATOM      8  S   UNL d   1      25.402 -16.000  -1.385  0.00  0.00     0.260 S 
ATOM      9  O   UNL d   1      24.694 -14.973  -2.108  0.00  0.00    -0.200 OA
ATOM     10  O   UNL d   1      26.095 -17.075  -2.075  0.00  0.00    -0.200 OA
BRANCH   8  11
ATOM     11  N   UNL d   1      24.323 -16.678  -0.249  0.00  0.00    -0.307 N 
ATOM     12  C   UNL d   1      24.572 -18.046   0.285  0.00  0.00     0.135 C 
ATOM     13  C   UNL d   1      23.634 -18.918  -0.520  0.00  0.00     0.022 C 
ATOM     14  C   UNL d   1      22.383 -18.026  -0.657  0.00  0.00     0.022 C 
ATOM     15  C   UNL d   1      22.872 -16.565  -0.520  0.00  0.00     0.135 C 
ENDBRANCH   8  11
ENDBRANCH   5   8
BRANCH   7  16
ATOM     16  N   UNL d   1      26.952 -12.008   1.271  0.00  0.00    -0.113 N 
ATOM     17  O   UNL d   1      26.638 -11.733   2.433  0.00  0.00    -0.532 OA
ATOM     18  O   UNL d   1      27.030 -11.172   0.362  0.00  0.00    -0.532 OA
ENDBRANCH   7  16
ENDBRANCH   1   2
BRANCH   1  19
ATOM     19  C   UNL d   1      30.388 -13.090   1.979  0.00  0.00     0.209 C 
BRANCH  19  20
ATOM     20  C   UNL d   1      30.386 -11.632   2.360  0.00  0.00     0.168 C 
BRANCH  20  21
ATOM     21  O   UNL d   1      29.489 -10.924   1.496  0.00  0.00    -0.392 OA
ATOM     22  H   UNL d   1      28.574 -11.009   1.828  0.00  0.00     0.210 HD
ENDBRANCH  20  21
BRANCH  20  23
ATOM     23  C   UNL d   1      29.861 -11.461   3.804  0.00  0.00     0.269 C 
BRANCH  23  24
ATOM     24  N   UNL d   1      28.574 -10.656   4.002  0.00  0.00    -0.063 N 
ATOM     25  H   UNL d   1      27.985 -10.875   3.185  0.00  0.00     0.280 HD
BRANCH  24  26
ATOM     26  C   UNL d   1      27.780 -11.098   5.213  0.00  0.00     0.273 C 
BRANCH  26  27
ATOM     27  C   UNL d   1      27.999 -12.538   5.497  0.00  0.00    -0.033 A 
ATOM     28  C   UNL d   1      28.929 -12.923   6.474  0.00  0.00     0.009 A 
ATOM     29  C   UNL d   1      29.336 -14.246   6.545  0.00  0.00     0.001 A 
ATOM     30  C   UNL d   1      28.716 -15.200   5.744  0.00  0.00     0.000 A 
ATOM     31  C   UNL d   1      27.748 -14.827   4.811  0.00  0.00     0.001 A 
ATOM     32  C   UNL d   1      27.407 -13.492   4.666  0.00  0.00     0.009 A 
ENDBRANCH  26  27
ENDBRANCH  24  26
BRANCH  24  33
ATOM     33  C   UNL d   1      28.725  -9.168   4.142  0.00  0.00     0.261 C 
BRANCH  33  34
ATOM     34  C   UNL d   1      28.029  -8.473   2.964  0.00  0.00     0.192 C 
BRANCH  34  35
ATOM     35  O   UNL d   1      27.168  -9.296   2.217  0.00  0.00    -0.399 OA
ATOM     36  H   UNL d   1      27.654  -9.962   1.689  0.00  0.00     0.209 HD
ENDBRANCH  34  35
ENDBRANCH  33  34
ENDBRANCH  24  33
ENDBRANCH  23  24
ENDBRANCH  20  23
ENDBRANCH  19  20
ENDBRANCH   1  19
TORSDOF 14
ENDMDL
MODEL 7
REMARK VINA RESULT:    -4.334      2.702      6.856
REMARK INTER + INTRA:         -18.250
REMARK INTER:                  -8.510
REMARK INTRA:                  -9.740
REMARK CONF_INDEPENDENT:        4.176
REMARK UNBOUND:                -9.740
REMARK  14 active torsions:
REMARK  status: ('A' for Active; 'I' for Inactive)
REMARK    1  A    between atoms: N_2  and  C_4 
REMARK    2  A    between atoms: C_6  and  S_7 
REMARK    3  A    between atoms: S_7  and  N_10 
REMARK    4  A    between atoms: C_17  and  O_18 
REMARK    5  A    between atoms: O_18  and  C_19 
REMARK    6  A    between atoms: C_19  and  C_20 
REMARK    7  A    between atoms: C_20  and  O_21 
REMARK    8  A    between atoms: C_20  and  C_22 
REMARK    9  A    between atoms: N_23  and  C_22 
REMARK   10  A    between atoms: N_23  and  C_27 
REMARK   11  A    between atoms: N_23  and  C_24 
REMARK   12  A    between atoms: C_24  and  C_25 
REMARK   13  A    between atoms: C_25  and  O_26 
REMARK   14  A    between atoms: C_27  and  C_28 
ROOT
ATOM      1  O   UNL d   1      29.780 -15.476  -4.089  0.00  0.00    -0.346 OA
ENDROOT
BRANCH   1   2
ATOM      2  C   UNL d   1      28.587 -15.732  -3.453  0.00  0.00     0.102 C 
ATOM      3  C   UNL d   1      28.888 -16.373  -2.287  0.00  0.00     0.041 C 
ATOM      4  C   UNL d   1      27.848 -16.900  -1.553  0.00  0.00     0.028 C 
ATOM      5  C   UNL d   1      26.533 -16.520  -1.677  0.00  0.00     0.082 C 
ATOM      6  C   UNL d   1      26.180 -15.941  -2.859  0.00  0.00     0.064 C 
ATOM      7  C   UNL d   1      27.201 -15.567  -3.750  0.00  0.00     0.137 C 
BRANCH   5   8
ATOM      8  S   UNL d   1      25.343 -16.626  -0.355  0.00  0.00     0.260 S 
ATOM      9  O   UNL d   1      25.727 -17.782   0.416  0.00  0.00    -0.200 OA
ATOM     10  O   UNL d   1      25.321 -15.296   0.230  0.00  0.00    -0.200 OA
BRANCH   8  11
ATOM     11  N   UNL d   1      23.819 -16.947  -1.055  0.00  0.00    -0.307 N 
ATOM     12  C   UNL d   1      22.579 -16.756  -0.251  0.00  0.00     0.135 C 
ATOM     13  C   UNL d   1      22.221 -18.157   0.189  0.00  0.00     0.022 C 
ATOM     14  C   UNL d   1      22.581 -19.000  -1.052  0.00  0.00     0.022 C 
ATOM     15  C   UNL d   1      23.661 -18.202  -1.822  0.00  0.00     0.135 C 
ENDBRANCH   8  11
ENDBRANCH   5   8
BRANCH   7  16
ATOM     16  N   UNL d   1      26.625 -15.048  -4.965  0.00  0.00    -0.113 N 
ATOM     17  O   UNL d   1      27.293 -15.119  -6.002  0.00  0.00    -0.532 OA
ATOM     18  O   UNL d   1      25.469 -14.610  -4.919  0.00  0.00    -0.532 OA
ENDBRANCH   7  16
ENDBRANCH   1   2
BRANCH   1  19
ATOM     19  C   UNL d   1      30.294 -14.231  -3.757  0.00  0.00     0.209 C 
BRANCH  19  20
ATOM     20  C   UNL d   1      29.796 -13.018  -4.499  0.00  0.00     0.168 C 
BRANCH  20  21
ATOM     21  O   UNL d   1      29.222 -13.435  -5.743  0.00  0.00    -0.392 OA
ATOM     22  H   UNL d   1      28.485 -14.054  -5.576  0.00  0.00     0.210 HD
ENDBRANCH  20  21
BRANCH  20  23
ATOM     23  C   UNL d   1      28.680 -12.321  -3.689  0.00  0.00     0.269 C 
BRANCH  23  24
ATOM     24  N   UNL d   1      27.259 -12.360  -4.257  0.00  0.00    -0.063 N 
ATOM     25  H   UNL d   1      27.224 -13.204  -4.850  0.00  0.00     0.280 HD
BRANCH  24  26
ATOM     26  C   UNL d   1      26.201 -12.560  -3.193  0.00  0.00     0.273 C 
BRANCH  26  27
ATOM     27  C   UNL d   1      26.742 -12.264  -1.843  0.00  0.00    -0.033 A 
ATOM     28  C   UNL d   1      27.049 -10.943  -1.488  0.00  0.00     0.009 A 
ATOM     29  C   UNL d   1      27.804 -10.698  -0.352  0.00  0.00     0.001 A 
ATOM     30  C   UNL d   1      28.127 -11.752   0.498  0.00  0.00     0.000 A 
ATOM     31  C   UNL d   1      27.772 -13.062   0.177  0.00  0.00     0.001 A 
ATOM     32  C   UNL d   1      27.102 -13.325  -1.008  0.00  0.00     0.009 A 
ENDBRANCH  26  27
ENDBRANCH  24  26
BRANCH  24  33
ATOM     33  C   UNL d   1      26.814 -11.161  -5.045  0.00  0.00     0.261 C 
BRANCH  33  34
ATOM     34  C   UNL d   1      26.643 -11.555  -6.518  0.00  0.00     0.192 C 
BRANCH  34  35
ATOM     35  O   UNL d   1      27.409 -12.660  -6.927  0.00  0.00    -0.399 OA
ATOM     36  H   UNL d   1      27.155 -13.483  -6.462  0.00  0.00     0.209 HD
ENDBRANCH  34  35
ENDBRANCH  33  34
ENDBRANCH  24  33
ENDBRANCH  23  24
ENDBRANCH  20  23
ENDBRANCH  19  20
ENDBRANCH   1  19
TORSDOF 14
ENDMDL
MODEL 8
REMARK VINA RESULT:    -4.004      2.579      7.261
REMARK INTER + INTRA:         -18.249
REMARK INTER:                  -8.180
REMARK INTRA:                 -10.068
REMARK CONF_INDEPENDENT:        4.176
REMARK UNBOUND:               -10.068
REMARK  14 active torsions:
REMARK  status: ('A' for Active; 'I' for Inactive)
REMARK    1  A    between atoms: N_2  and  C_4 
REMARK    2  A    between atoms: C_6  and  S_7 
REMARK    3  A    between atoms: S_7  and  N_10 
REMARK    4  A    between atoms: C_17  and  O_18 
REMARK    5  A    between atoms: O_18  and  C_19 
REMARK    6  A    between atoms: C_19  and  C_20 
REMARK    7  A    between atoms: C_20  and  O_21 
REMARK    8  A    between atoms: C_20  and  C_22 
REMARK    9  A    between atoms: N_23  and  C_22 
REMARK   10  A    between atoms: N_23  and  C_27 
REMARK   11  A    between atoms: N_23  and  C_24 
REMARK   12  A    between atoms: C_24  and  C_25 
REMARK   13  A    between atoms: C_25  and  O_26 
REMARK   14  A    between atoms: C_27  and  C_28 
ROOT
ATOM      1  O   UNL d   1      30.857 -14.295  -4.251  0.00  0.00    -0.346 OA
ENDROOT
BRANCH   1   2
ATOM      2  C   UNL d   1      29.555 -14.650  -3.982  0.00  0.00     0.102 C 
ATOM      3  C   UNL d   1      29.499 -14.981  -2.660  0.00  0.00     0.041 C 
ATOM      4  C   UNL d   1      28.336 -15.547  -2.184  0.00  0.00     0.028 C 
ATOM      5  C   UNL d   1      27.114 -15.461  -2.808  0.00  0.00     0.082 C 
ATOM      6  C   UNL d   1      27.135 -15.203  -4.146  0.00  0.00     0.064 C 
ATOM      7  C   UNL d   1      28.353 -14.818  -4.732  0.00  0.00     0.137 C 
BRANCH   5   8
ATOM      8  S   UNL d   1      25.556 -15.537  -1.947  0.00  0.00     0.260 S 
ATOM      9  O   UNL d   1      25.778 -14.864  -0.691  0.00  0.00    -0.200 OA
ATOM     10  O   UNL d   1      24.579 -15.052  -2.907  0.00  0.00    -0.200 OA
BRANCH   8  11
ATOM     11  N   UNL d   1      25.231 -17.179  -1.609  0.00  0.00    -0.307 N 
ATOM     12  C   UNL d   1      23.825 -17.673  -1.616  0.00  0.00     0.135 C 
ATOM     13  C   UNL d   1      23.457 -17.718  -0.150  0.00  0.00     0.022 C 
ATOM     14  C   UNL d   1      24.766 -18.200   0.509  0.00  0.00     0.022 C 
ATOM     15  C   UNL d   1      25.911 -17.794  -0.448  0.00  0.00     0.135 C 
ENDBRANCH   8  11
ENDBRANCH   5   8
BRANCH   7  16
ATOM     16  N   UNL d   1      28.185 -14.667  -6.156  0.00  0.00    -0.113 N 
ATOM     17  O   UNL d   1      27.635 -13.643  -6.572  0.00  0.00    -0.532 OA
ATOM     18  O   UNL d   1      28.653 -15.546  -6.892  0.00  0.00    -0.532 OA
ENDBRANCH   7  16
ENDBRANCH   1   2
BRANCH   1  19
ATOM     19  C   UNL d   1      31.254 -14.684  -5.522  0.00  0.00     0.209 C 
BRANCH  19  20
ATOM     20  C   UNL d   1      31.319 -13.646  -6.612  0.00  0.00     0.168 C 
BRANCH  20  21
ATOM     21  O   UNL d   1      30.515 -14.077  -7.717  0.00  0.00    -0.392 OA
ATOM     22  H   UNL d   1      29.598 -14.231  -7.418  0.00  0.00     0.210 HD
ENDBRANCH  20  21
BRANCH  20  23
ATOM     23  C   UNL d   1      30.727 -12.309  -6.109  0.00  0.00     0.269 C 
BRANCH  23  24
ATOM     24  N   UNL d   1      29.473 -11.779  -6.808  0.00  0.00    -0.063 N 
ATOM     25  H   UNL d   1      28.827 -12.582  -6.858  0.00  0.00     0.280 HD
BRANCH  24  26
ATOM     26  C   UNL d   1      28.751 -10.718  -6.004  0.00  0.00     0.273 C 
BRANCH  26  27
ATOM     27  C   UNL d   1      27.927 -11.330  -4.933  0.00  0.00    -0.033 A 
ATOM     28  C   UNL d   1      26.556 -11.538  -5.138  0.00  0.00     0.009 A 
ATOM     29  C   UNL d   1      25.742 -11.843  -4.060  0.00  0.00     0.001 A 
ATOM     30  C   UNL d   1      26.313 -12.079  -2.812  0.00  0.00     0.000 A 
ATOM     31  C   UNL d   1      27.687 -11.929  -2.617  0.00  0.00     0.001 A 
ATOM     32  C   UNL d   1      28.493 -11.528  -3.671  0.00  0.00     0.009 A 
ENDBRANCH  26  27
ENDBRANCH  24  26
BRANCH  24  33
ATOM     33  C   UNL d   1      29.662 -11.187  -8.176  0.00  0.00     0.261 C 
BRANCH  33  34
ATOM     34  C   UNL d   1      29.244 -12.214  -9.236  0.00  0.00     0.192 C 
BRANCH  34  35
ATOM     35  O   UNL d   1      28.294 -13.156  -8.806  0.00  0.00    -0.399 OA
ATOM     36  H   UNL d   1      28.707 -13.960  -8.433  0.00  0.00     0.209 HD
ENDBRANCH  34  35
ENDBRANCH  33  34
ENDBRANCH  24  33
ENDBRANCH  23  24
ENDBRANCH  20  23
ENDBRANCH  19  20
ENDBRANCH   1  19
TORSDOF 14
ENDMDL
MODEL 9
REMARK VINA RESULT:    -3.910      2.406      3.797
REMARK INTER + INTRA:         -18.372
REMARK INTER:                  -8.086
REMARK INTRA:                 -10.286
REMARK CONF_INDEPENDENT:        4.176
REMARK UNBOUND:               -10.286
REMARK  14 active torsions:
REMARK  status: ('A' for Active; 'I' for Inactive)
REMARK    1  A    between atoms: N_2  and  C_4 
REMARK    2  A    between atoms: C_6  and  S_7 
REMARK    3  A    between atoms: S_7  and  N_10 
REMARK    4  A    between atoms: C_17  and  O_18 
REMARK    5  A    between atoms: O_18  and  C_19 
REMARK    6  A    between atoms: C_19  and  C_20 
REMARK    7  A    between atoms: C_20  and  O_21 
REMARK    8  A    between atoms: C_20  and  C_22 
REMARK    9  A    between atoms: N_23  and  C_22 
REMARK   10  A    between atoms: N_23  and  C_27 
REMARK   11  A    between atoms: N_23  and  C_24 
REMARK   12  A    between atoms: C_24  and  C_25 
REMARK   13  A    between atoms: C_25  and  O_26 
REMARK   14  A    between atoms: C_27  and  C_28 
ROOT
ATOM      1  O   UNL d   1      30.488 -16.451  -4.676  0.00  0.00    -0.346 OA
ENDROOT
BRANCH   1   2
ATOM      2  C   UNL d   1      29.530 -15.528  -4.325  0.00  0.00     0.102 C 
ATOM      3  C   UNL d   1      28.476 -15.708  -5.173  0.00  0.00     0.041 C 
ATOM      4  C   UNL d   1      27.457 -14.781  -5.143  0.00  0.00     0.028 C 
ATOM      5  C   UNL d   1      27.215 -13.920  -4.099  0.00  0.00     0.082 C 
ATOM      6  C   UNL d   1      28.267 -13.659  -3.274  0.00  0.00     0.064 C 
ATOM      7  C   UNL d   1      29.425 -14.447  -3.399  0.00  0.00     0.137 C 
BRANCH   5   8
ATOM      8  S   UNL d   1      25.606 -13.258  -3.715  0.00  0.00     0.260 S 
ATOM      9  O   UNL d   1      24.670 -14.075  -4.447  0.00  0.00    -0.200 OA
ATOM     10  O   UNL d   1      25.574 -13.181  -2.265  0.00  0.00    -0.200 OA
BRANCH   8  11
ATOM     11  N   UNL d   1      25.530 -11.677  -4.355  0.00  0.00    -0.307 N 
ATOM     12  C   UNL d   1      25.928 -11.430  -5.769  0.00  0.00     0.135 C 
ATOM     13  C   UNL d   1      27.332 -10.880  -5.653  0.00  0.00     0.022 C 
ATOM     14  C   UNL d   1      27.243 -10.000  -4.389  0.00  0.00     0.022 C 
ATOM     15  C   UNL d   1      26.084 -10.573  -3.539  0.00  0.00     0.135 C 
ENDBRANCH   8  11
ENDBRANCH   5   8
BRANCH   7  16
ATOM     16  N   UNL d   1      30.443 -13.968  -2.498  0.00  0.00    -0.113 N 
ATOM     17  O   UNL d   1      30.084 -13.400  -1.463  0.00  0.00    -0.532 OA
ATOM     18  O   UNL d   1      31.625 -14.202  -2.782  0.00  0.00    -0.532 OA
ENDBRANCH   7  16
ENDBRANCH   1   2
BRANCH   1  19
ATOM     19  C   UNL d   1      30.350 -17.641  -3.976  0.00  0.00     0.209 C 
BRANCH  19  20
ATOM     20  C   UNL d   1      30.853 -17.713  -2.558  0.00  0.00     0.168 C 
BRANCH  20  21
ATOM     21  O   UNL d   1      31.887 -16.737  -2.379  0.00  0.00    -0.392 OA
ATOM     22  H   UNL d   1      31.605 -15.884  -2.763  0.00  0.00     0.210 HD
ENDBRANCH  20  21
BRANCH  20  23
ATOM     23  C   UNL d   1      29.715 -17.362  -1.572  0.00  0.00     0.269 C 
BRANCH  23  24
ATOM     24  N   UNL d   1      29.897 -16.126  -0.687  0.00  0.00    -0.063 N 
ATOM     25  H   UNL d   1      30.393 -15.439  -1.275  0.00  0.00     0.280 HD
BRANCH  24  26
ATOM     26  C   UNL d   1      28.586 -15.473  -0.305  0.00  0.00     0.273 C 
BRANCH  26  27
ATOM     27  C   UNL d   1      27.443 -16.385  -0.562  0.00  0.00    -0.033 A 
ATOM     28  C   UNL d   1      26.569 -16.126  -1.627  0.00  0.00     0.009 A 
ATOM     29  C   UNL d   1      25.360 -16.800  -1.699  0.00  0.00     0.001 A 
ATOM     30  C   UNL d   1      25.091 -17.825  -0.796  0.00  0.00     0.000 A 
ATOM     31  C   UNL d   1      25.986 -18.125   0.231  0.00  0.00     0.001 A 
ATOM     32  C   UNL d   1      27.152 -17.387   0.367  0.00  0.00     0.009 A 
ENDBRANCH  26  27
ENDBRANCH  24  26
BRANCH  24  33
ATOM     33  C   UNL d   1      30.638 -16.325   0.605  0.00  0.00     0.261 C 
BRANCH  33  34
ATOM     34  C   UNL d   1      31.879 -15.423   0.624  0.00  0.00     0.192 C 
BRANCH  34  35
ATOM     35  O   UNL d   1      32.437 -15.159  -0.639  0.00  0.00    -0.399 OA
ATOM     36  H   UNL d   1      31.774 -14.824  -1.277  0.00  0.00     0.209 HD
ENDBRANCH  34  35
ENDBRANCH  33  34
ENDBRANCH  24  33
ENDBRANCH  23  24
ENDBRANCH  20  23
ENDBRANCH  19  20
ENDBRANCH   1  19
TORSDOF 14
ENDMDL
