MODEL 1
REMARK VINA RESULT:    -7.814      0.000      0.000
REMARK INTER + INTRA:         -10.468
REMARK INTER:                  -9.902
REMARK INTRA:                  -0.566
REMARK CONF_INDEPENDENT:        2.088
REMARK UNBOUND:                -0.566
REMARK  7 active torsions:
REMARK  status: ('A' for Active; 'I' for Inactive)
REMARK    1  A    between atoms: C_2  and  C_3 
REMARK       I    between atoms: C_2  and  N_15 
REMARK    2  A    between atoms: C_3  and  C_4 
REMARK    3  A    between atoms: N_15  and  N_16 
REMARK       I    between atoms: N_16  and  C_17 
REMARK       I    between atoms: C_17  and  N_19 
REMARK    4  A    between atoms: N_19  and  C_20 
REMARK    5  A    between atoms: C_20  and  C_21 
REMARK    6  A    between atoms: C_21  and  C_22 
REMARK    7  A    between atoms: C_22  and  N_23 
ROOT
ATOM      1  O   UNL d   1      23.875 -13.771  -3.579  0.00  0.00    -0.272 OA
ATOM      2  C   UNL d   1      25.090 -13.844  -3.779  0.00  0.00     0.240 C 
ATOM      3  N   UNL d   1      25.605 -13.290  -4.937  0.00  0.00    -0.266 N 
ATOM      4  H   UNL d   1      24.930 -12.842  -5.561  0.00  0.00     0.190 HD
ENDROOT
BRANCH   3   5
ATOM      5  N   UNL d   1      26.956 -13.258  -5.353  0.00  0.00    -0.249 N 
ATOM      6  C   UNL d   1      27.570 -14.453  -5.719  0.00  0.00     0.334 C 
ATOM      7  O   UNL d   1      26.997 -15.541  -5.703  0.00  0.00    -0.246 OA
ATOM      8  N   UNL d   1      28.889 -14.315  -6.114  0.00  0.00    -0.342 N 
ATOM      9  H   UNL d   1      29.311 -13.399  -6.086  0.00  0.00     0.164 HD
ATOM     10  H   UNL d   1      27.442 -12.374  -5.364  0.00  0.00     0.192 HD
BRANCH   8  11
ATOM     11  C   UNL d   1      29.682 -15.478  -6.522  0.00  0.00     0.126 C 
BRANCH  11  12
ATOM     12  C   UNL d   1      29.659 -16.624  -5.504  0.00  0.00     0.040 C 
BRANCH  12  13
ATOM     13  C   UNL d   1      30.979 -17.405  -5.471  0.00  0.00     0.130 C 
BRANCH  13  14
ATOM     14  N   UNL d   1      30.899 -18.645  -6.271  0.00  0.00    -0.352 N 
ATOM     15  C   UNL d   1      30.811 -18.722  -7.660  0.00  0.00     0.108 A 
ATOM     16  C   UNL d   1      30.765 -20.050  -7.983  0.00  0.00     0.106 A 
ATOM     17  N   UNL d   1      30.837 -20.737  -6.796  0.00  0.00    -0.361 N 
ATOM     18  C   UNL d   1      30.937 -19.891  -5.768  0.00  0.00     0.182 A 
ATOM     19  H   UNL d   1      30.826 -21.751  -6.704  0.00  0.00     0.166 HD
ENDBRANCH  13  14
ENDBRANCH  12  13
ENDBRANCH  11  12
ENDBRANCH   8  11
ENDBRANCH   3   5
BRANCH   2  20
ATOM     20  C   UNL d   1      26.040 -14.531  -2.799  0.00  0.00     0.143 C 
BRANCH  20  21
ATOM     21  C   UNL d   1      25.423 -15.649  -1.958  0.00  0.00    -0.045 A 
ATOM     22  C   UNL d   1      26.228 -16.478  -1.157  0.00  0.00     0.034 A 
ATOM     23  C   UNL d   1      25.665 -17.500  -0.376  0.00  0.00     0.070 A 
ATOM     24 CL   UNL d   1      26.725 -18.481   0.576  0.00  0.00    -0.081 Cl
ATOM     25  C   UNL d   1      24.282 -17.707  -0.362  0.00  0.00     0.123 A 
ATOM     26  C   UNL d   1      23.472 -16.909  -1.177  0.00  0.00     0.104 A 
ATOM     27  O   UNL d   1      23.768 -18.694   0.449  0.00  0.00    -0.344 OA
ATOM     28  C   UNL d   1      24.035 -15.877  -1.949  0.00  0.00     0.047 A 
ATOM     29  O   UNL d   1      22.109 -17.076  -1.270  0.00  0.00    -0.346 OA
ATOM     30  C   UNL d   1      21.690 -18.338  -0.724  0.00  0.00     0.202 C 
ATOM     31  C   UNL d   1      22.352 -18.566   0.622  0.00  0.00     0.202 C 
ENDBRANCH  20  21
ENDBRANCH   2  20
TORSDOF 7
ENDMDL
MODEL 2
REMARK VINA RESULT:    -7.709      7.145      9.837
REMARK INTER + INTRA:         -10.656
REMARK INTER:                  -9.797
REMARK INTRA:                  -0.859
REMARK CONF_INDEPENDENT:        2.088
REMARK UNBOUND:                -0.859
REMARK  7 active torsions:
REMARK  status: ('A' for Active; 'I' for Inactive)
REMARK    1  A    between atoms: C_2  and  C_3 
REMARK       I    between atoms: C_2  and  N_15 
REMARK    2  A    between atoms: C_3  and  C_4 
REMARK    3  A    between atoms: N_15  and  N_16 
REMARK       I    between atoms: N_16  and  C_17 
REMARK       I    between atoms: C_17  and  N_19 
REMARK    4  A    between atoms: N_19  and  C_20 
REMARK    5  A    between atoms: C_20  and  C_21 
REMARK    6  A    between atoms: C_21  and  C_22 
REMARK    7  A    between atoms: C_22  and  N_23 
ROOT
ATOM      1  O   UNL d   1      29.987 -13.685  -1.460  0.00  0.00    -0.272 OA
ATOM      2  C   UNL d   1      29.680 -14.445  -0.540  0.00  0.00     0.240 C 
ATOM      3  N   UNL d   1      29.722 -13.967   0.757  0.00  0.00    -0.266 N 
ATOM      4  H   UNL d   1      30.008 -12.991   0.869  0.00  0.00     0.190 HD
ENDROOT
BRANCH   3   5
ATOM      5  N   UNL d   1      29.406 -14.664   1.947  0.00  0.00    -0.249 N 
ATOM      6  C   UNL d   1      28.558 -14.058   2.870  0.00  0.00     0.334 C 
ATOM      7  O   UNL d   1      28.064 -12.945   2.706  0.00  0.00    -0.246 OA
ATOM      8  N   UNL d   1      28.308 -14.822   3.997  0.00  0.00    -0.342 N 
ATOM      9  H   UNL d   1      28.760 -15.721   4.084  0.00  0.00     0.164 HD
ATOM     10  H   UNL d   1      29.810 -15.576   2.099  0.00  0.00     0.192 HD
BRANCH   8  11
ATOM     11  C   UNL d   1      27.443 -14.327   5.070  0.00  0.00     0.126 C 
BRANCH  11  12
ATOM     12  C   UNL d   1      28.148 -13.359   6.029  0.00  0.00     0.040 C 
BRANCH  12  13
ATOM     13  C   UNL d   1      29.041 -14.087   7.042  0.00  0.00     0.130 C 
BRANCH  13  14
ATOM     14  N   UNL d   1      28.830 -13.582   8.416  0.00  0.00    -0.352 N 
ATOM     15  C   UNL d   1      28.906 -14.334   9.587  0.00  0.00     0.108 A 
ATOM     16  C   UNL d   1      28.651 -13.480  10.625  0.00  0.00     0.106 A 
ATOM     17  N   UNL d   1      28.442 -12.244  10.064  0.00  0.00    -0.361 N 
ATOM     18  C   UNL d   1      28.568 -12.303   8.735  0.00  0.00     0.182 A 
ATOM     19  H   UNL d   1      28.228 -11.393  10.580  0.00  0.00     0.166 HD
ENDBRANCH  13  14
ENDBRANCH  12  13
ENDBRANCH  11  12
ENDBRANCH   8  11
ENDBRANCH   3   5
BRANCH   2  20
ATOM     20  C   UNL d   1      29.262 -15.896  -0.783  0.00  0.00     0.143 C 
BRANCH  20  21
ATOM     21  C   UNL d   1      27.764 -16.126  -0.978  0.00  0.00    -0.045 A 
ATOM     22  C   UNL d   1      27.013 -15.302  -1.835  0.00  0.00     0.034 A 
ATOM     23  C   UNL d   1      25.638 -15.515  -2.025  0.00  0.00     0.070 A 
ATOM     24 CL   UNL d   1      24.785 -14.452  -3.090  0.00  0.00    -0.081 Cl
ATOM     25  C   UNL d   1      24.983 -16.568  -1.378  0.00  0.00     0.123 A 
ATOM     26  C   UNL d   1      25.713 -17.376  -0.499  0.00  0.00     0.104 A 
ATOM     27  O   UNL d   1      23.644 -16.766  -1.623  0.00  0.00    -0.344 OA
ATOM     28  C   UNL d   1      27.092 -17.171  -0.319  0.00  0.00     0.047 A 
ATOM     29  O   UNL d   1      25.142 -18.400   0.223  0.00  0.00    -0.346 OA
ATOM     30  C   UNL d   1      23.707 -18.310   0.229  0.00  0.00     0.202 C 
ATOM     31  C   UNL d   1      23.198 -18.052  -1.177  0.00  0.00     0.202 C 
ENDBRANCH  20  21
ENDBRANCH   2  20
TORSDOF 7
ENDMDL
MODEL 3
REMARK VINA RESULT:    -7.599      6.605      9.314
REMARK INTER + INTRA:         -10.531
REMARK INTER:                  -9.687
REMARK INTRA:                  -0.843
REMARK CONF_INDEPENDENT:        2.088
REMARK UNBOUND:                -0.843
REMARK  7 active torsions:
REMARK  status: ('A' for Active; 'I' for Inactive)
REMARK    1  A    between atoms: C_2  and  C_3 
REMARK       I    between atoms: C_2  and  N_15 
REMARK    2  A    between atoms: C_3  and  C_4 
REMARK    3  A    between atoms: N_15  and  N_16 
REMARK       I    between atoms: N_16  and  C_17 
REMARK       I    between atoms: C_17  and  N_19 
REMARK    4  A    between atoms: N_19  and  C_20 
REMARK    5  A    between atoms: C_20  and  C_21 
REMARK    6  A    between atoms: C_21  and  C_22 
REMARK    7  A    between atoms: C_22  and  N_23 
ROOT
ATOM      1  O   UNL d   1      30.154 -15.714  -2.201  0.00  0.00    -0.272 OA
ATOM      2  C   UNL d   1      29.747 -15.970  -1.066  0.00  0.00     0.240 C 
ATOM      3  N   UNL d   1      30.056 -15.096  -0.039  0.00  0.00    -0.266 N 
ATOM      4  H   UNL d   1      30.611 -14.276  -0.297  0.00  0.00     0.190 HD
ENDROOT
BRANCH   3   5
ATOM      5  N   UNL d   1      29.686 -15.197   1.322  0.00  0.00    -0.249 N 
ATOM      6  C   UNL d   1      28.804 -14.256   1.845  0.00  0.00     0.334 C 
ATOM      7  O   UNL d   1      28.324 -13.336   1.185  0.00  0.00    -0.246 OA
ATOM      8  N   UNL d   1      28.503 -14.443   3.184  0.00  0.00    -0.342 N 
ATOM      9  H   UNL d   1      28.945 -15.203   3.679  0.00  0.00     0.164 HD
ATOM     10  H   UNL d   1      30.078 -15.941   1.880  0.00  0.00     0.192 HD
BRANCH   8  11
ATOM     11  C   UNL d   1      27.596 -13.533   3.890  0.00  0.00     0.126 C 
BRANCH  11  12
ATOM     12  C   UNL d   1      27.507 -13.804   5.396  0.00  0.00     0.040 C 
BRANCH  12  13
ATOM     13  C   UNL d   1      28.887 -13.845   6.066  0.00  0.00     0.130 C 
BRANCH  13  14
ATOM     14  N   UNL d   1      28.850 -13.268   7.427  0.00  0.00    -0.352 N 
ATOM     15  C   UNL d   1      29.371 -13.852   8.581  0.00  0.00     0.108 A 
ATOM     16  C   UNL d   1      29.128 -12.985   9.610  0.00  0.00     0.106 A 
ATOM     17  N   UNL d   1      28.484 -11.905   9.059  0.00  0.00    -0.361 N 
ATOM     18  C   UNL d   1      28.333 -12.068   7.742  0.00  0.00     0.182 A 
ATOM     19  H   UNL d   1      28.169 -11.084   9.573  0.00  0.00     0.166 HD
ENDBRANCH  13  14
ENDBRANCH  12  13
ENDBRANCH  11  12
ENDBRANCH   8  11
ENDBRANCH   3   5
BRANCH   2  20
ATOM     20  C   UNL d   1      28.921 -17.218  -0.755  0.00  0.00     0.143 C 
BRANCH  20  21
ATOM     21  C   UNL d   1      27.407 -17.053  -0.878  0.00  0.00    -0.045 A 
ATOM     22  C   UNL d   1      26.854 -16.029  -1.666  0.00  0.00     0.034 A 
ATOM     23  C   UNL d   1      25.462 -15.879  -1.789  0.00  0.00     0.070 A 
ATOM     24 CL   UNL d   1      24.863 -14.588  -2.771  0.00  0.00    -0.081 Cl
ATOM     25  C   UNL d   1      24.590 -16.760  -1.142  0.00  0.00     0.123 A 
ATOM     26  C   UNL d   1      25.127 -17.765  -0.330  0.00  0.00     0.104 A 
ATOM     27  O   UNL d   1      23.235 -16.602  -1.322  0.00  0.00    -0.344 OA
ATOM     28  C   UNL d   1      26.520 -17.924  -0.219  0.00  0.00     0.047 A 
ATOM     29  O   UNL d   1      24.347 -18.644   0.387  0.00  0.00    -0.346 OA
ATOM     30  C   UNL d   1      22.984 -18.195   0.472  0.00  0.00     0.202 C 
ATOM     31  C   UNL d   1      22.497 -17.753  -0.895  0.00  0.00     0.202 C 
ENDBRANCH  20  21
ENDBRANCH   2  20
TORSDOF 7
ENDMDL
MODEL 4
REMARK VINA RESULT:    -7.464      8.620     10.325
REMARK INTER + INTRA:         -10.279
REMARK INTER:                  -9.552
REMARK INTRA:                  -0.727
REMARK CONF_INDEPENDENT:        2.088
REMARK UNBOUND:                -0.727
REMARK  7 active torsions:
REMARK  status: ('A' for Active; 'I' for Inactive)
REMARK    1  A    between atoms: C_2  and  C_3 
REMARK       I    between atoms: C_2  and  N_15 
REMARK    2  A    between atoms: C_3  and  C_4 
REMARK    3  A    between atoms: N_15  and  N_16 
REMARK       I    between atoms: N_16  and  C_17 
REMARK       I    between atoms: C_17  and  N_19 
REMARK    4  A    between atoms: N_19  and  C_20 
REMARK    5  A    between atoms: C_20  and  C_21 
REMARK    6  A    between atoms: C_21  and  C_22 
REMARK    7  A    between atoms: C_22  and  N_23 
ROOT
ATOM      1  O   UNL d   1      27.447 -12.661   5.601  0.00  0.00    -0.272 OA
ATOM      2  C   UNL d   1      28.102 -13.510   4.993  0.00  0.00     0.240 C 
ATOM      3  N   UNL d   1      27.712 -13.856   3.712  0.00  0.00    -0.266 N 
ATOM      4  H   UNL d   1      26.890 -13.370   3.344  0.00  0.00     0.190 HD
ENDROOT
BRANCH   3   5
ATOM      5  N   UNL d   1      28.321 -14.794   2.846  0.00  0.00    -0.249 N 
ATOM      6  C   UNL d   1      27.778 -14.983   1.578  0.00  0.00     0.334 C 
ATOM      7  O   UNL d   1      26.792 -14.374   1.166  0.00  0.00    -0.246 OA
ATOM      8  N   UNL d   1      28.447 -15.918   0.808  0.00  0.00    -0.342 N 
ATOM      9  H   UNL d   1      29.237 -16.401   1.208  0.00  0.00     0.164 HD
ATOM     10  H   UNL d   1      29.126 -15.308   3.173  0.00  0.00     0.192 HD
BRANCH   8  11
ATOM     11  C   UNL d   1      27.999 -16.241  -0.549  0.00  0.00     0.126 C 
BRANCH  11  12
ATOM     12  C   UNL d   1      26.797 -17.193  -0.587  0.00  0.00     0.040 C 
BRANCH  12  13
ATOM     13  C   UNL d   1      25.507 -16.491  -1.030  0.00  0.00     0.130 C 
BRANCH  13  14
ATOM     14  N   UNL d   1      24.310 -17.297  -0.710  0.00  0.00    -0.352 N 
ATOM     15  C   UNL d   1      22.984 -16.883  -0.833  0.00  0.00     0.108 A 
ATOM     16  C   UNL d   1      22.201 -17.932  -0.440  0.00  0.00     0.106 A 
ATOM     17  N   UNL d   1      23.061 -18.949  -0.103  0.00  0.00    -0.361 N 
ATOM     18  C   UNL d   1      24.330 -18.572  -0.284  0.00  0.00     0.182 A 
ATOM     19  H   UNL d   1      22.781 -19.869   0.231  0.00  0.00     0.166 HD
ENDBRANCH  13  14
ENDBRANCH  12  13
ENDBRANCH  11  12
ENDBRANCH   8  11
ENDBRANCH   3   5
BRANCH   2  20
ATOM     20  C   UNL d   1      29.322 -14.197   5.608  0.00  0.00     0.143 C 
BRANCH  20  21
ATOM     21  C   UNL d   1      29.507 -13.987   7.110  0.00  0.00    -0.045 A 
ATOM     22  C   UNL d   1      30.663 -14.446   7.766  0.00  0.00     0.034 A 
ATOM     23  C   UNL d   1      30.842 -14.248   9.145  0.00  0.00     0.070 A 
ATOM     24 CL   UNL d   1      32.289 -14.850   9.876  0.00  0.00    -0.081 Cl
ATOM     25  C   UNL d   1      29.879 -13.570   9.899  0.00  0.00     0.123 A 
ATOM     26  C   UNL d   1      28.710 -13.135   9.265  0.00  0.00     0.104 A 
ATOM     27  O   UNL d   1      30.113 -13.362  11.239  0.00  0.00    -0.344 OA
ATOM     28  C   UNL d   1      28.537 -13.321   7.881  0.00  0.00     0.047 A 
ATOM     29  O   UNL d   1      27.684 -12.508   9.936  0.00  0.00    -0.346 OA
ATOM     30  C   UNL d   1      27.806 -12.668  11.359  0.00  0.00     0.202 C 
ATOM     31  C   UNL d   1      29.230 -12.380  11.794  0.00  0.00     0.202 C 
ENDBRANCH  20  21
ENDBRANCH   2  20
TORSDOF 7
ENDMDL
MODEL 5
REMARK VINA RESULT:    -7.206      6.181      7.774
REMARK INTER + INTRA:         -10.255
REMARK INTER:                  -9.294
REMARK INTRA:                  -0.961
REMARK CONF_INDEPENDENT:        2.088
REMARK UNBOUND:                -0.961
REMARK  7 active torsions:
REMARK  status: ('A' for Active; 'I' for Inactive)
REMARK    1  A    between atoms: C_2  and  C_3 
REMARK       I    between atoms: C_2  and  N_15 
REMARK    2  A    between atoms: C_3  and  C_4 
REMARK    3  A    between atoms: N_15  and  N_16 
REMARK       I    between atoms: N_16  and  C_17 
REMARK       I    between atoms: C_17  and  N_19 
REMARK    4  A    between atoms: N_19  and  C_20 
REMARK    5  A    between atoms: C_20  and  C_21 
REMARK    6  A    between atoms: C_21  and  C_22 
REMARK    7  A    between atoms: C_22  and  N_23 
ROOT
ATOM      1  O   UNL d   1      30.423 -15.926  -2.799  0.00  0.00    -0.272 OA
ATOM      2  C   UNL d   1      30.180 -16.588  -1.788  0.00  0.00     0.240 C 
ATOM      3  N   UNL d   1      30.740 -17.847  -1.670  0.00  0.00    -0.266 N 
ATOM      4  H   UNL d   1      31.336 -18.150  -2.444  0.00  0.00     0.190 HD
ENDROOT
BRANCH   3   5
ATOM      5  N   UNL d   1      30.596 -18.760  -0.599  0.00  0.00    -0.249 N 
ATOM      6  C   UNL d   1      31.402 -19.895  -0.577  0.00  0.00     0.334 C 
ATOM      7  O   UNL d   1      32.239 -20.148  -1.441  0.00  0.00    -0.246 OA
ATOM      8  N   UNL d   1      31.187 -20.722   0.512  0.00  0.00    -0.342 N 
ATOM      9  H   UNL d   1      30.471 -20.473   1.177  0.00  0.00     0.164 HD
ATOM     10  H   UNL d   1      29.907 -18.571   0.114  0.00  0.00     0.192 HD
BRANCH   8  11
ATOM     11  C   UNL d   1      31.947 -21.964   0.680  0.00  0.00     0.126 C 
BRANCH  11  12
ATOM     12  C   UNL d   1      32.563 -22.120   2.076  0.00  0.00     0.040 C 
BRANCH  12  13
ATOM     13  C   UNL d   1      32.377 -20.868   2.942  0.00  0.00     0.130 C 
BRANCH  13  14
ATOM     14  N   UNL d   1      32.025 -21.215   4.335  0.00  0.00    -0.352 N 
ATOM     15  C   UNL d   1      32.887 -21.190   5.430  0.00  0.00     0.108 A 
ATOM     16  C   UNL d   1      32.156 -21.575   6.521  0.00  0.00     0.106 A 
ATOM     17  N   UNL d   1      30.882 -21.810   6.066  0.00  0.00    -0.361 N 
ATOM     18  C   UNL d   1      30.799 -21.575   4.754  0.00  0.00     0.182 A 
ATOM     19  H   UNL d   1      30.099 -22.112   6.643  0.00  0.00     0.166 HD
ENDBRANCH  13  14
ENDBRANCH  12  13
ENDBRANCH  11  12
ENDBRANCH   8  11
ENDBRANCH   3   5
BRANCH   2  20
ATOM     20  C   UNL d   1      29.277 -16.069  -0.669  0.00  0.00     0.143 C 
BRANCH  20  21
ATOM     21  C   UNL d   1      27.776 -16.246  -0.899  0.00  0.00    -0.045 A 
ATOM     22  C   UNL d   1      27.075 -15.400  -1.776  0.00  0.00     0.034 A 
ATOM     23  C   UNL d   1      25.698 -15.565  -1.997  0.00  0.00     0.070 A 
ATOM     24 CL   UNL d   1      24.908 -14.478  -3.085  0.00  0.00    -0.081 Cl
ATOM     25  C   UNL d   1      24.991 -16.590  -1.360  0.00  0.00     0.123 A 
ATOM     26  C   UNL d   1      25.670 -17.420  -0.461  0.00  0.00     0.104 A 
ATOM     27  O   UNL d   1      23.651 -16.741  -1.636  0.00  0.00    -0.344 OA
ATOM     28  C   UNL d   1      27.052 -17.264  -0.251  0.00  0.00     0.047 A 
ATOM     29  O   UNL d   1      25.047 -18.419   0.252  0.00  0.00    -0.346 OA
ATOM     30  C   UNL d   1      23.616 -18.277   0.224  0.00  0.00     0.202 C 
ATOM     31  C   UNL d   1      23.149 -18.008  -1.194  0.00  0.00     0.202 C 
ENDBRANCH  20  21
ENDBRANCH   2  20
TORSDOF 7
ENDMDL
MODEL 6
REMARK VINA RESULT:    -7.135      5.099      8.817
REMARK INTER + INTRA:         -10.127
REMARK INTER:                  -9.223
REMARK INTRA:                  -0.904
REMARK CONF_INDEPENDENT:        2.088
REMARK UNBOUND:                -0.904
REMARK  7 active torsions:
REMARK  status: ('A' for Active; 'I' for Inactive)
REMARK    1  A    between atoms: C_2  and  C_3 
REMARK       I    between atoms: C_2  and  N_15 
REMARK    2  A    between atoms: C_3  and  C_4 
REMARK    3  A    between atoms: N_15  and  N_16 
REMARK       I    between atoms: N_16  and  C_17 
REMARK       I    between atoms: C_17  and  N_19 
REMARK    4  A    between atoms: N_19  and  C_20 
REMARK    5  A    between atoms: C_20  and  C_21 
REMARK    6  A    between atoms: C_21  and  C_22 
REMARK    7  A    between atoms: C_22  and  N_23 
ROOT
ATOM      1  O   UNL d   1      28.712 -17.794  -0.462  0.00  0.00    -0.272 OA
ATOM      2  C   UNL d   1      27.615 -17.515   0.027  0.00  0.00     0.240 C 
ATOM      3  N   UNL d   1      26.631 -18.487   0.044  0.00  0.00    -0.266 N 
ATOM      4  H   UNL d   1      26.887 -19.394  -0.354  0.00  0.00     0.190 HD
ENDROOT
BRANCH   3   5
ATOM      5  N   UNL d   1      25.318 -18.380   0.558  0.00  0.00    -0.249 N 
ATOM      6  C   UNL d   1      24.268 -18.175  -0.332  0.00  0.00     0.334 C 
ATOM      7  O   UNL d   1      24.419 -18.085  -1.549  0.00  0.00    -0.246 OA
ATOM      8  N   UNL d   1      23.024 -18.087   0.270  0.00  0.00    -0.342 N 
ATOM      9  H   UNL d   1      22.965 -18.148   1.275  0.00  0.00     0.164 HD
ATOM     10  H   UNL d   1      25.178 -18.444   1.556  0.00  0.00     0.192 HD
BRANCH   8  11
ATOM     11  C   UNL d   1      21.813 -17.864  -0.526  0.00  0.00     0.126 C 
BRANCH  11  12
ATOM     12  C   UNL d   1      21.328 -19.115  -1.268  0.00  0.00     0.040 C 
BRANCH  12  13
ATOM     13  C   UNL d   1      19.813 -19.322  -1.138  0.00  0.00     0.130 C 
BRANCH  13  14
ATOM     14  N   UNL d   1      19.456 -19.932   0.160  0.00  0.00    -0.352 N 
ATOM     15  C   UNL d   1      20.084 -19.690   1.381  0.00  0.00     0.108 A 
ATOM     16  C   UNL d   1      19.439 -20.450   2.318  0.00  0.00     0.106 A 
ATOM     17  N   UNL d   1      18.440 -21.117   1.651  0.00  0.00    -0.361 N 
ATOM     18  C   UNL d   1      18.440 -20.790   0.356  0.00  0.00     0.182 A 
ATOM     19  H   UNL d   1      17.781 -21.765   2.077  0.00  0.00     0.166 HD
ENDBRANCH  13  14
ENDBRANCH  12  13
ENDBRANCH  11  12
ENDBRANCH   8  11
ENDBRANCH   3   5
BRANCH   2  20
ATOM     20  C   UNL d   1      27.304 -16.135   0.605  0.00  0.00     0.143 C 
BRANCH  20  21
ATOM     21  C   UNL d   1      26.918 -15.065  -0.416  0.00  0.00    -0.045 A 
ATOM     22  C   UNL d   1      27.297 -13.724  -0.235  0.00  0.00     0.034 A 
ATOM     23  C   UNL d   1      26.952 -12.738  -1.175  0.00  0.00     0.070 A 
ATOM     24 CL   UNL d   1      27.451 -11.110  -0.875  0.00  0.00    -0.081 Cl
ATOM     25  C   UNL d   1      26.235 -13.073  -2.328  0.00  0.00     0.123 A 
ATOM     26  C   UNL d   1      25.824 -14.399  -2.506  0.00  0.00     0.104 A 
ATOM     27  O   UNL d   1      25.952 -12.085  -3.243  0.00  0.00    -0.344 OA
ATOM     28  C   UNL d   1      26.182 -15.388  -1.571  0.00  0.00     0.047 A 
ATOM     29  O   UNL d   1      25.069 -14.811  -3.580  0.00  0.00    -0.346 OA
ATOM     30  C   UNL d   1      24.485 -13.696  -4.276  0.00  0.00     0.202 C 
ATOM     31  C   UNL d   1      25.530 -12.621  -4.502  0.00  0.00     0.202 C 
ENDBRANCH  20  21
ENDBRANCH   2  20
TORSDOF 7
ENDMDL
MODEL 7
REMARK VINA RESULT:    -7.006      4.865      6.402
REMARK INTER + INTRA:         -10.124
REMARK INTER:                  -9.094
REMARK INTRA:                  -1.031
REMARK CONF_INDEPENDENT:        2.088
REMARK UNBOUND:                -1.031
REMARK  7 active torsions:
REMARK  status: ('A' for Active; 'I' for Inactive)
REMARK    1  A    between atoms: C_2  and  C_3 
REMARK       I    between atoms: C_2  and  N_15 
REMARK    2  A    between atoms: C_3  and  C_4 
REMARK    3  A    between atoms: N_15  and  N_16 
REMARK       I    between atoms: N_16  and  C_17 
REMARK       I    between atoms: C_17  and  N_19 
REMARK    4  A    between atoms: N_19  and  C_20 
REMARK    5  A    between atoms: C_20  and  C_21 
REMARK    6  A    between atoms: C_21  and  C_22 
REMARK    7  A    between atoms: C_22  and  N_23 
ROOT
ATOM      1  O   UNL d   1      30.697 -16.319  -2.914  0.00  0.00    -0.272 OA
ATOM      2  C   UNL d   1      30.411 -16.931  -1.883  0.00  0.00     0.240 C 
ATOM      3  N   UNL d   1      30.893 -18.218  -1.722  0.00  0.00    -0.266 N 
ATOM      4  H   UNL d   1      31.471 -18.582  -2.484  0.00  0.00     0.190 HD
ENDROOT
BRANCH   3   5
ATOM      5  N   UNL d   1      30.691 -19.085  -0.623  0.00  0.00    -0.249 N 
ATOM      6  C   UNL d   1      31.030 -20.428  -0.762  0.00  0.00     0.334 C 
ATOM      7  O   UNL d   1      31.501 -20.905  -1.793  0.00  0.00    -0.246 OA
ATOM      8  N   UNL d   1      30.797 -21.191   0.370  0.00  0.00    -0.342 N 
ATOM      9  H   UNL d   1      30.389 -20.748   1.179  0.00  0.00     0.164 HD
ATOM     10  H   UNL d   1      30.298 -18.710   0.228  0.00  0.00     0.192 HD
BRANCH   8  11
ATOM     11  C   UNL d   1      31.092 -22.627   0.387  0.00  0.00     0.126 C 
BRANCH  11  12
ATOM     12  C   UNL d   1      29.847 -23.506   0.558  0.00  0.00     0.040 C 
BRANCH  12  13
ATOM     13  C   UNL d   1      30.003 -24.878  -0.110  0.00  0.00     0.130 C 
BRANCH  13  14
ATOM     14  N   UNL d   1      29.571 -24.848  -1.523  0.00  0.00    -0.352 N 
ATOM     15  C   UNL d   1      28.644 -25.704  -2.117  0.00  0.00     0.108 A 
ATOM     16  C   UNL d   1      28.536 -25.327  -3.427  0.00  0.00     0.106 A 
ATOM     17  N   UNL d   1      29.381 -24.256  -3.590  0.00  0.00    -0.361 N 
ATOM     18  C   UNL d   1      29.990 -23.958  -2.439  0.00  0.00     0.182 A 
ATOM     19  H   UNL d   1      29.524 -23.749  -4.461  0.00  0.00     0.166 HD
ENDBRANCH  13  14
ENDBRANCH  12  13
ENDBRANCH  11  12
ENDBRANCH   8  11
ENDBRANCH   3   5
BRANCH   2  20
ATOM     20  C   UNL d   1      29.540 -16.322  -0.785  0.00  0.00     0.143 C 
BRANCH  20  21
ATOM     21  C   UNL d   1      28.032 -16.468  -0.984  0.00  0.00    -0.045 A 
ATOM     22  C   UNL d   1      27.331 -15.610  -1.850  0.00  0.00     0.034 A 
ATOM     23  C   UNL d   1      25.947 -15.746  -2.043  0.00  0.00     0.070 A 
ATOM     24 CL   UNL d   1      25.159 -14.645  -3.119  0.00  0.00    -0.081 Cl
ATOM     25  C   UNL d   1      25.231 -16.754  -1.390  0.00  0.00     0.123 A 
ATOM     26  C   UNL d   1      25.911 -17.596  -0.502  0.00  0.00     0.104 A 
ATOM     27  O   UNL d   1      23.883 -16.878  -1.638  0.00  0.00    -0.344 OA
ATOM     28  C   UNL d   1      27.299 -17.468  -0.319  0.00  0.00     0.047 A 
ATOM     29  O   UNL d   1      25.281 -18.580   0.226  0.00  0.00    -0.346 OA
ATOM     30  C   UNL d   1      23.853 -18.408   0.226  0.00  0.00     0.202 C 
ATOM     31  C   UNL d   1      23.364 -18.133  -1.183  0.00  0.00     0.202 C 
ENDBRANCH  20  21
ENDBRANCH   2  20
TORSDOF 7
ENDMDL
MODEL 8
REMARK VINA RESULT:    -6.294      5.191      7.789
REMARK INTER + INTRA:         -10.091
REMARK INTER:                  -8.382
REMARK INTRA:                  -1.709
REMARK CONF_INDEPENDENT:        2.088
REMARK UNBOUND:                -1.709
REMARK  7 active torsions:
REMARK  status: ('A' for Active; 'I' for Inactive)
REMARK    1  A    between atoms: C_2  and  C_3 
REMARK       I    between atoms: C_2  and  N_15 
REMARK    2  A    between atoms: C_3  and  C_4 
REMARK    3  A    between atoms: N_15  and  N_16 
REMARK       I    between atoms: N_16  and  C_17 
REMARK       I    between atoms: C_17  and  N_19 
REMARK    4  A    between atoms: N_19  and  C_20 
REMARK    5  A    between atoms: C_20  and  C_21 
REMARK    6  A    between atoms: C_21  and  C_22 
REMARK    7  A    between atoms: C_22  and  N_23 
ROOT
ATOM      1  O   UNL d   1      30.364 -15.082  -2.107  0.00  0.00    -0.272 OA
ATOM      2  C   UNL d   1      30.085 -15.540  -0.997  0.00  0.00     0.240 C 
ATOM      3  N   UNL d   1      30.463 -14.829   0.127  0.00  0.00    -0.266 N 
ATOM      4  H   UNL d   1      30.957 -13.948  -0.042  0.00  0.00     0.190 HD
ENDROOT
BRANCH   3   5
ATOM      5  N   UNL d   1      30.238 -15.168   1.481  0.00  0.00    -0.249 N 
ATOM      6  C   UNL d   1      30.189 -14.147   2.426  0.00  0.00     0.334 C 
ATOM      7  O   UNL d   1      30.330 -12.958   2.146  0.00  0.00    -0.246 OA
ATOM      8  N   UNL d   1      29.961 -14.582   3.720  0.00  0.00    -0.342 N 
ATOM      9  H   UNL d   1      29.875 -15.573   3.891  0.00  0.00     0.164 HD
ATOM     10  H   UNL d   1      30.128 -16.141   1.728  0.00  0.00     0.192 HD
BRANCH   8  11
ATOM     11  C   UNL d   1      29.890 -13.635   4.836  0.00  0.00     0.126 C 
BRANCH  11  12
ATOM     12  C   UNL d   1      28.465 -13.164   5.150  0.00  0.00     0.040 C 
BRANCH  12  13
ATOM     13  C   UNL d   1      27.405 -13.928   4.346  0.00  0.00     0.130 C 
BRANCH  13  14
ATOM     14  N   UNL d   1      27.231 -13.357   2.993  0.00  0.00    -0.352 N 
ATOM     15  C   UNL d   1      27.202 -12.001   2.672  0.00  0.00     0.108 A 
ATOM     16  C   UNL d   1      27.030 -11.916   1.318  0.00  0.00     0.106 A 
ATOM     17  N   UNL d   1      26.971 -13.208   0.856  0.00  0.00    -0.361 N 
ATOM     18  C   UNL d   1      27.111 -14.075   1.863  0.00  0.00     0.182 A 
ATOM     19  H   UNL d   1      26.848 -13.479  -0.117  0.00  0.00     0.166 HD
ENDBRANCH  13  14
ENDBRANCH  12  13
ENDBRANCH  11  12
ENDBRANCH   8  11
ENDBRANCH   3   5
BRANCH   2  20
ATOM     20  C   UNL d   1      29.343 -16.865  -0.823  0.00  0.00     0.143 C 
BRANCH  20  21
ATOM     21  C   UNL d   1      27.824 -16.795  -0.975  0.00  0.00    -0.045 A 
ATOM     22  C   UNL d   1      27.223 -15.805  -1.772  0.00  0.00     0.034 A 
ATOM     23  C   UNL d   1      25.828 -15.742  -1.923  0.00  0.00     0.070 A 
ATOM     24 CL   UNL d   1      25.168 -14.490  -2.916  0.00  0.00    -0.081 Cl
ATOM     25  C   UNL d   1      25.001 -16.677  -1.293  0.00  0.00     0.123 A 
ATOM     26  C   UNL d   1      25.583 -17.648  -0.472  0.00  0.00     0.104 A 
ATOM     27  O   UNL d   1      23.642 -16.604  -1.499  0.00  0.00    -0.344 OA
ATOM     28  C   UNL d   1      26.981 -17.720  -0.333  0.00  0.00     0.047 A 
ATOM     29  O   UNL d   1      24.845 -18.575   0.230  0.00  0.00    -0.346 OA
ATOM     30  C   UNL d   1      23.456 -18.211   0.289  0.00  0.00     0.202 C 
ATOM     31  C   UNL d   1      22.968 -17.799  -1.087  0.00  0.00     0.202 C 
ENDBRANCH  20  21
ENDBRANCH   2  20
TORSDOF 7
ENDMDL
MODEL 9
REMARK VINA RESULT:    -6.236      3.627      5.343
REMARK INTER + INTRA:          -9.822
REMARK INTER:                  -8.324
REMARK INTRA:                  -1.498
REMARK CONF_INDEPENDENT:        2.088
REMARK UNBOUND:                -1.498
REMARK  7 active torsions:
REMARK  status: ('A' for Active; 'I' for Inactive)
REMARK    1  A    between atoms: C_2  and  C_3 
REMARK       I    between atoms: C_2  and  N_15 
REMARK    2  A    between atoms: C_3  and  C_4 
REMARK    3  A    between atoms: N_15  and  N_16 
REMARK       I    between atoms: N_16  and  C_17 
REMARK       I    between atoms: C_17  and  N_19 
REMARK    4  A    between atoms: N_19  and  C_20 
REMARK    5  A    between atoms: C_20  and  C_21 
REMARK    6  A    between atoms: C_21  and  C_22 
REMARK    7  A    between atoms: C_22  and  N_23 
ROOT
ATOM      1  O   UNL d   1      28.783 -12.281   1.895  0.00  0.00    -0.272 OA
ATOM      2  C   UNL d   1      28.730 -13.481   1.617  0.00  0.00     0.240 C 
ATOM      3  N   UNL d   1      29.906 -14.145   1.320  0.00  0.00    -0.266 N 
ATOM      4  H   UNL d   1      30.762 -13.584   1.356  0.00  0.00     0.190 HD
ENDROOT
BRANCH   3   5
ATOM      5  N   UNL d   1      30.068 -15.509   0.984  0.00  0.00    -0.249 N 
ATOM      6  C   UNL d   1      30.263 -15.849  -0.352  0.00  0.00     0.334 C 
ATOM      7  O   UNL d   1      30.304 -15.023  -1.262  0.00  0.00    -0.246 OA
ATOM      8  N   UNL d   1      30.413 -17.206  -0.576  0.00  0.00    -0.342 N 
ATOM      9  H   UNL d   1      30.349 -17.838   0.209  0.00  0.00     0.164 HD
ATOM     10  H   UNL d   1      30.029 -16.200   1.719  0.00  0.00     0.192 HD
BRANCH   8  11
ATOM     11  C   UNL d   1      30.618 -17.732  -1.928  0.00  0.00     0.126 C 
BRANCH  11  12
ATOM     12  C   UNL d   1      29.723 -17.072  -2.984  0.00  0.00     0.040 C 
BRANCH  12  13
ATOM     13  C   UNL d   1      30.404 -16.986  -4.357  0.00  0.00     0.130 C 
BRANCH  13  14
ATOM     14  N   UNL d   1      29.654 -16.112  -5.283  0.00  0.00    -0.352 N 
ATOM     15  C   UNL d   1      28.499 -15.391  -4.978  0.00  0.00     0.108 A 
ATOM     16  C   UNL d   1      28.141 -14.715  -6.112  0.00  0.00     0.106 A 
ATOM     17  N   UNL d   1      29.083 -15.030  -7.061  0.00  0.00    -0.361 N 
ATOM     18  C   UNL d   1      30.003 -15.856  -6.556  0.00  0.00     0.182 A 
ATOM     19  H   UNL d   1      29.092 -14.681  -8.018  0.00  0.00     0.166 HD
ENDBRANCH  13  14
ENDBRANCH  12  13
ENDBRANCH  11  12
ENDBRANCH   8  11
ENDBRANCH   3   5
BRANCH   2  20
ATOM     20  C   UNL d   1      27.412 -14.254   1.581  0.00  0.00     0.143 C 
BRANCH  20  21
ATOM     21  C   UNL d   1      26.774 -14.406   0.201  0.00  0.00    -0.045 A 
ATOM     22  C   UNL d   1      26.081 -15.577  -0.150  0.00  0.00     0.034 A 
ATOM     23  C   UNL d   1      25.485 -15.718  -1.414  0.00  0.00     0.070 A 
ATOM     24 CL   UNL d   1      24.657 -17.194  -1.769  0.00  0.00    -0.081 Cl
ATOM     25  C   UNL d   1      25.552 -14.683  -2.352  0.00  0.00     0.123 A 
ATOM     26  C   UNL d   1      26.265 -13.523  -2.028  0.00  0.00     0.104 A 
ATOM     27  O   UNL d   1      24.920 -14.845  -3.564  0.00  0.00    -0.344 OA
ATOM     28  C   UNL d   1      26.849 -13.378  -0.757  0.00  0.00     0.047 A 
ATOM     29  O   UNL d   1      26.430 -12.476  -2.906  0.00  0.00    -0.346 OA
ATOM     30  C   UNL d   1      26.098 -12.856  -4.252  0.00  0.00     0.202 C 
ATOM     31  C   UNL d   1      24.780 -13.607  -4.270  0.00  0.00     0.202 C 
ENDBRANCH  20  21
ENDBRANCH   2  20
TORSDOF 7
ENDMDL
