MODEL 1
REMARK VINA RESULT:    -7.605      0.000      0.000
REMARK INTER + INTRA:         -13.003
REMARK INTER:                  -9.694
REMARK INTRA:                  -3.309
REMARK CONF_INDEPENDENT:        2.088
REMARK UNBOUND:                -3.309
REMARK  7 active torsions:
REMARK  status: ('A' for Active; 'I' for Inactive)
REMARK    1  A    between atoms: C_8  and  O_9 
REMARK    2  A    between atoms: O_9  and  C_10 
REMARK    3  A    between atoms: C_10  and  C_11 
REMARK       I    between atoms: C_11  and  N_13 
REMARK    4  A    between atoms: N_13  and  N_14 
REMARK    5  A    between atoms: N_14  and  S_15 
REMARK    6  A    between atoms: S_15  and  C_18 
REMARK    7  A    between atoms: C_23  and  N_24 
ROOT
ATOM      1  C   UNL d   1      27.950 -15.879  -1.602  0.00  0.00     0.260 C 
ATOM      2  O   UNL d   1      29.146 -16.149  -1.571  0.00  0.00    -0.269 OA
ATOM      3  N   UNL d   1      27.254 -15.553  -2.772  0.00  0.00    -0.259 N 
ATOM      4  H   UNL d   1      26.308 -15.176  -2.792  0.00  0.00     0.190 HD
ENDROOT
BRANCH   3   5
ATOM      5  N   UNL d   1      27.932 -15.758  -4.042  0.00  0.00    -0.220 N 
ATOM      6  H   UNL d   1      28.939 -15.918  -3.949  0.00  0.00     0.200 HD
BRANCH   5   7
ATOM      7  S   UNL d   1      27.281 -15.162  -5.474  0.00  0.00     0.278 S 
ATOM      8  O   UNL d   1      28.384 -15.200  -6.416  0.00  0.00    -0.199 OA
ATOM      9  O   UNL d   1      26.059 -15.880  -5.770  0.00  0.00    -0.199 OA
BRANCH   7  10
ATOM     10  C   UNL d   1      26.846 -13.431  -5.311  0.00  0.00     0.114 A 
ATOM     11  C   UNL d   1      27.405 -12.592  -6.310  0.00  0.00     0.028 A 
ATOM     12  C   UNL d   1      27.331 -11.195  -6.220  0.00  0.00     0.002 A 
ATOM     13  C   UNL d   1      26.641 -10.604  -5.173  0.00  0.00     0.003 A 
ATOM     14  C   UNL d   1      26.038 -11.409  -4.214  0.00  0.00     0.038 A 
ATOM     15  C   UNL d   1      26.119 -12.820  -4.281  0.00  0.00     0.126 A 
BRANCH  15  16
ATOM     16  N   UNL d   1      25.314 -13.514  -3.280  0.00  0.00    -0.114 N 
ATOM     17  O   UNL d   1      24.483 -14.337  -3.665  0.00  0.00    -0.532 OA
ATOM     18  O   UNL d   1      25.530 -13.259  -2.090  0.00  0.00    -0.532 OA
ENDBRANCH  15  16
ENDBRANCH   7  10
ENDBRANCH   5   7
ENDBRANCH   3   5
BRANCH   1  19
ATOM     19  C   UNL d   1      27.026 -15.949  -0.394  0.00  0.00     0.280 C 
BRANCH  19  20
ATOM     20  O   UNL d   1      25.671 -15.578  -0.571  0.00  0.00    -0.342 OA
BRANCH  20  21
ATOM     21  C   UNL d   1      24.700 -16.554  -0.508  0.00  0.00     0.075 A 
ATOM     22  C   UNL d   1      23.424 -16.090  -0.888  0.00  0.00     0.039 A 
ATOM     23  C   UNL d   1      22.307 -16.936  -0.895  0.00  0.00     0.026 A 
ATOM     24  C   UNL d   1      22.450 -18.259  -0.507  0.00  0.00     0.034 A 
ATOM     25  C   UNL d   1      23.700 -18.736  -0.127  0.00  0.00     0.033 A 
ATOM     26 CL   UNL d   1      21.101 -19.325  -0.507  0.00  0.00    -0.084 Cl
ATOM     27  C   UNL d   1      24.841 -17.905  -0.135  0.00  0.00    -0.027 A 
ATOM     28  C   UNL d   1      26.131 -18.576   0.230  0.00  0.00     0.051 C 
ENDBRANCH  20  21
ENDBRANCH  19  20
ENDBRANCH   1  19
TORSDOF 7
ENDMDL
MODEL 2
REMARK VINA RESULT:    -7.156      5.765      7.855
REMARK INTER + INTRA:         -11.645
REMARK INTER:                  -9.244
REMARK INTRA:                  -2.402
REMARK CONF_INDEPENDENT:        2.088
REMARK UNBOUND:                -2.402
REMARK  7 active torsions:
REMARK  status: ('A' for Active; 'I' for Inactive)
REMARK    1  A    between atoms: C_8  and  O_9 
REMARK    2  A    between atoms: O_9  and  C_10 
REMARK    3  A    between atoms: C_10  and  C_11 
REMARK       I    between atoms: C_11  and  N_13 
REMARK    4  A    between atoms: N_13  and  N_14 
REMARK    5  A    between atoms: N_14  and  S_15 
REMARK    6  A    between atoms: S_15  and  C_18 
REMARK    7  A    between atoms: C_23  and  N_24 
ROOT
ATOM      1  C   UNL d   1      28.154 -14.642   0.806  0.00  0.00     0.260 C 
ATOM      2  O   UNL d   1      27.686 -13.628   0.298  0.00  0.00    -0.269 OA
ATOM      3  N   UNL d   1      28.331 -14.812   2.184  0.00  0.00    -0.259 N 
ATOM      4  H   UNL d   1      28.858 -15.574   2.607  0.00  0.00     0.190 HD
ENDROOT
BRANCH   3   5
ATOM      5  N   UNL d   1      27.727 -13.829   3.071  0.00  0.00    -0.220 N 
ATOM      6  H   UNL d   1      27.700 -12.884   2.678  0.00  0.00     0.200 HD
BRANCH   5   7
ATOM      7  S   UNL d   1      27.692 -14.074   4.735  0.00  0.00     0.278 S 
ATOM      8  O   UNL d   1      26.280 -14.079   5.069  0.00  0.00    -0.199 OA
ATOM      9  O   UNL d   1      28.512 -15.223   5.058  0.00  0.00    -0.199 OA
BRANCH   7  10
ATOM     10  C   UNL d   1      28.388 -12.671   5.607  0.00  0.00     0.114 A 
ATOM     11  C   UNL d   1      29.193 -13.018   6.723  0.00  0.00     0.028 A 
ATOM     12  C   UNL d   1      29.649 -12.050   7.628  0.00  0.00     0.002 A 
ATOM     13  C   UNL d   1      29.373 -10.711   7.406  0.00  0.00     0.003 A 
ATOM     14  C   UNL d   1      28.632 -10.344   6.289  0.00  0.00     0.038 A 
ATOM     15  C   UNL d   1      28.150 -11.311   5.375  0.00  0.00     0.126 A 
BRANCH  15  16
ATOM     16  N   UNL d   1      27.516 -10.747   4.187  0.00  0.00    -0.114 N 
ATOM     17  O   UNL d   1      27.850 -11.184   3.084  0.00  0.00    -0.532 OA
ATOM     18  O   UNL d   1      26.655  -9.878   4.351  0.00  0.00    -0.532 OA
ENDBRANCH  15  16
ENDBRANCH   7  10
ENDBRANCH   5   7
ENDBRANCH   3   5
BRANCH   1  19
ATOM     19  C   UNL d   1      28.524 -15.896   0.029  0.00  0.00     0.280 C 
BRANCH  19  20
ATOM     20  O   UNL d   1      27.784 -16.197  -1.141  0.00  0.00    -0.342 OA
BRANCH  20  21
ATOM     21  C   UNL d   1      26.481 -16.624  -1.013  0.00  0.00     0.075 A 
ATOM     22  C   UNL d   1      26.324 -17.639  -0.047  0.00  0.00     0.039 A 
ATOM     23  C   UNL d   1      25.070 -18.201   0.232  0.00  0.00     0.026 A 
ATOM     24  C   UNL d   1      23.956 -17.761  -0.464  0.00  0.00     0.034 A 
ATOM     25  C   UNL d   1      24.088 -16.761  -1.421  0.00  0.00     0.033 A 
ATOM     26 CL   UNL d   1      22.402 -18.425  -0.144  0.00  0.00    -0.084 Cl
ATOM     27  C   UNL d   1      25.339 -16.169  -1.701  0.00  0.00    -0.027 A 
ATOM     28  C   UNL d   1      25.316 -15.055  -2.705  0.00  0.00     0.051 C 
ENDBRANCH  20  21
ENDBRANCH  19  20
ENDBRANCH   1  19
TORSDOF 7
ENDMDL
MODEL 3
REMARK VINA RESULT:    -7.134      1.165      2.466
REMARK INTER + INTRA:         -12.198
REMARK INTER:                  -9.223
REMARK INTRA:                  -2.975
REMARK CONF_INDEPENDENT:        2.088
REMARK UNBOUND:                -2.975
REMARK  7 active torsions:
REMARK  status: ('A' for Active; 'I' for Inactive)
REMARK    1  A    between atoms: C_8  and  O_9 
REMARK    2  A    between atoms: O_9  and  C_10 
REMARK    3  A    between atoms: C_10  and  C_11 
REMARK       I    between atoms: C_11  and  N_13 
REMARK    4  A    between atoms: N_13  and  N_14 
REMARK    5  A    between atoms: N_14  and  S_15 
REMARK    6  A    between atoms: S_15  and  C_18 
REMARK    7  A    between atoms: C_23  and  N_24 
ROOT
ATOM      1  C   UNL d   1      28.587 -15.962  -1.700  0.00  0.00     0.260 C 
ATOM      2  O   UNL d   1      29.626 -16.245  -2.286  0.00  0.00    -0.269 OA
ATOM      3  N   UNL d   1      27.430 -15.503  -2.341  0.00  0.00    -0.259 N 
ATOM      4  H   UNL d   1      26.620 -15.118  -1.859  0.00  0.00     0.190 HD
ENDROOT
BRANCH   3   5
ATOM      5  N   UNL d   1      27.388 -15.575  -3.794  0.00  0.00    -0.220 N 
ATOM      6  H   UNL d   1      28.302 -15.741  -4.223  0.00  0.00     0.200 HD
BRANCH   5   7
ATOM      7  S   UNL d   1      26.148 -14.836  -4.658  0.00  0.00     0.278 S 
ATOM      8  O   UNL d   1      25.898 -15.733  -5.770  0.00  0.00    -0.199 OA
ATOM      9  O   UNL d   1      25.073 -14.502  -3.747  0.00  0.00    -0.199 OA
BRANCH   7  10
ATOM     10  C   UNL d   1      26.705 -13.299  -5.395  0.00  0.00     0.114 A 
ATOM     11  C   UNL d   1      25.905 -12.173  -5.071  0.00  0.00     0.028 A 
ATOM     12  C   UNL d   1      26.079 -10.940  -5.716  0.00  0.00     0.002 A 
ATOM     13  C   UNL d   1      27.095 -10.782  -6.645  0.00  0.00     0.003 A 
ATOM     14  C   UNL d   1      27.925 -11.858  -6.936  0.00  0.00     0.038 A 
ATOM     15  C   UNL d   1      27.752 -13.113  -6.307  0.00  0.00     0.126 A 
BRANCH  15  16
ATOM     16  N   UNL d   1      28.793 -14.088  -6.619  0.00  0.00    -0.114 N 
ATOM     17  O   UNL d   1      29.834 -13.685  -7.138  0.00  0.00    -0.532 OA
ATOM     18  O   UNL d   1      28.585 -15.268  -6.318  0.00  0.00    -0.532 OA
ENDBRANCH  15  16
ENDBRANCH   7  10
ENDBRANCH   5   7
ENDBRANCH   3   5
BRANCH   1  19
ATOM     19  C   UNL d   1      28.367 -16.155  -0.206  0.00  0.00     0.280 C 
BRANCH  19  20
ATOM     20  O   UNL d   1      27.097 -15.830   0.327  0.00  0.00    -0.342 OA
BRANCH  20  21
ATOM     21  C   UNL d   1      26.026 -16.649   0.043  0.00  0.00     0.075 A 
ATOM     22  C   UNL d   1      24.919 -15.950  -0.481  0.00  0.00     0.039 A 
ATOM     23  C   UNL d   1      23.735 -16.611  -0.839  0.00  0.00     0.026 A 
ATOM     24  C   UNL d   1      23.639 -17.982  -0.662  0.00  0.00     0.034 A 
ATOM     25  C   UNL d   1      24.718 -18.690  -0.145  0.00  0.00     0.033 A 
ATOM     26 CL   UNL d   1      22.203 -18.824  -1.092  0.00  0.00    -0.084 Cl
ATOM     27  C   UNL d   1      25.926 -18.046   0.200  0.00  0.00    -0.027 A 
ATOM     28  C   UNL d   1      27.026 -18.947   0.677  0.00  0.00     0.051 C 
ENDBRANCH  20  21
ENDBRANCH  19  20
ENDBRANCH   1  19
TORSDOF 7
ENDMDL
MODEL 4
REMARK VINA RESULT:    -6.896      1.830      3.008
REMARK INTER + INTRA:         -11.940
REMARK INTER:                  -8.984
REMARK INTRA:                  -2.956
REMARK CONF_INDEPENDENT:        2.088
REMARK UNBOUND:                -2.956
REMARK  7 active torsions:
REMARK  status: ('A' for Active; 'I' for Inactive)
REMARK    1  A    between atoms: C_8  and  O_9 
REMARK    2  A    between atoms: O_9  and  C_10 
REMARK    3  A    between atoms: C_10  and  C_11 
REMARK       I    between atoms: C_11  and  N_13 
REMARK    4  A    between atoms: N_13  and  N_14 
REMARK    5  A    between atoms: N_14  and  S_15 
REMARK    6  A    between atoms: S_15  and  C_18 
REMARK    7  A    between atoms: C_23  and  N_24 
ROOT
ATOM      1  C   UNL d   1      25.994 -13.682  -2.261  0.00  0.00     0.260 C 
ATOM      2  O   UNL d   1      25.825 -12.516  -1.919  0.00  0.00    -0.269 OA
ATOM      3  N   UNL d   1      25.551 -14.208  -3.481  0.00  0.00    -0.259 N 
ATOM      4  H   UNL d   1      25.543 -15.200  -3.710  0.00  0.00     0.190 HD
ENDROOT
BRANCH   3   5
ATOM      5  N   UNL d   1      25.063 -13.274  -4.484  0.00  0.00    -0.220 N 
ATOM      6  H   UNL d   1      24.258 -13.623  -5.012  0.00  0.00     0.200 HD
BRANCH   5   7
ATOM      7  S   UNL d   1      26.073 -12.094  -5.129  0.00  0.00     0.278 S 
ATOM      8  O   UNL d   1      25.323 -11.545  -6.243  0.00  0.00    -0.199 OA
ATOM      9  O   UNL d   1      26.520 -11.222  -4.063  0.00  0.00    -0.199 OA
BRANCH   7  10
ATOM     10  C   UNL d   1      27.540 -12.829  -5.853  0.00  0.00     0.114 A 
ATOM     11  C   UNL d   1      28.451 -11.891  -6.405  0.00  0.00     0.028 A 
ATOM     12  C   UNL d   1      29.545 -12.300  -7.180  0.00  0.00     0.002 A 
ATOM     13  C   UNL d   1      29.795 -13.650  -7.367  0.00  0.00     0.003 A 
ATOM     14  C   UNL d   1      28.946 -14.587  -6.789  0.00  0.00     0.038 A 
ATOM     15  C   UNL d   1      27.828 -14.189  -6.018  0.00  0.00     0.126 A 
BRANCH  15  16
ATOM     16  N   UNL d   1      27.127 -15.293  -5.368  0.00  0.00    -0.114 N 
ATOM     17  O   UNL d   1      27.684 -15.871  -4.435  0.00  0.00    -0.532 OA
ATOM     18  O   UNL d   1      25.993 -15.572  -5.772  0.00  0.00    -0.532 OA
ENDBRANCH  15  16
ENDBRANCH   7  10
ENDBRANCH   5   7
ENDBRANCH   3   5
BRANCH   1  19
ATOM     19  C   UNL d   1      26.786 -14.703  -1.459  0.00  0.00     0.280 C 
BRANCH  19  20
ATOM     20  O   UNL d   1      26.643 -16.071  -1.796  0.00  0.00    -0.342 OA
BRANCH  20  21
ATOM     21  C   UNL d   1      25.607 -16.789  -1.242  0.00  0.00     0.075 A 
ATOM     22  C   UNL d   1      24.341 -16.387  -1.715  0.00  0.00     0.039 A 
ATOM     23  C   UNL d   1      23.161 -17.003  -1.272  0.00  0.00     0.026 A 
ATOM     24  C   UNL d   1      23.234 -18.022  -0.337  0.00  0.00     0.034 A 
ATOM     25  C   UNL d   1      24.472 -18.432   0.145  0.00  0.00     0.033 A 
ATOM     26 CL   UNL d   1      21.808 -18.801   0.226  0.00  0.00    -0.084 Cl
ATOM     27  C   UNL d   1      25.672 -17.840  -0.305  0.00  0.00    -0.027 A 
ATOM     28  C   UNL d   1      26.933 -18.434   0.248  0.00  0.00     0.051 C 
ENDBRANCH  20  21
ENDBRANCH  19  20
ENDBRANCH   1  19
TORSDOF 7
ENDMDL
MODEL 5
REMARK VINA RESULT:    -6.766      9.193     11.898
REMARK INTER + INTRA:         -11.741
REMARK INTER:                  -8.854
REMARK INTRA:                  -2.887
REMARK CONF_INDEPENDENT:        2.088
REMARK UNBOUND:                -2.887
REMARK  7 active torsions:
REMARK  status: ('A' for Active; 'I' for Inactive)
REMARK    1  A    between atoms: C_8  and  O_9 
REMARK    2  A    between atoms: O_9  and  C_10 
REMARK    3  A    between atoms: C_10  and  C_11 
REMARK       I    between atoms: C_11  and  N_13 
REMARK    4  A    between atoms: N_13  and  N_14 
REMARK    5  A    between atoms: N_14  and  S_15 
REMARK    6  A    between atoms: S_15  and  C_18 
REMARK    7  A    between atoms: C_23  and  N_24 
ROOT
ATOM      1  C   UNL d   1      30.309 -22.479   0.910  0.00  0.00     0.260 C 
ATOM      2  O   UNL d   1      29.220 -22.466   1.474  0.00  0.00    -0.269 OA
ATOM      3  N   UNL d   1      31.429 -21.774   1.365  0.00  0.00    -0.259 N 
ATOM      4  H   UNL d   1      32.286 -21.648   0.828  0.00  0.00     0.190 HD
ENDROOT
BRANCH   3   5
ATOM      5  N   UNL d   1      31.361 -21.173   2.688  0.00  0.00    -0.220 N 
ATOM      6  H   UNL d   1      30.409 -20.941   2.984  0.00  0.00     0.200 HD
BRANCH   5   7
ATOM      7  S   UNL d   1      32.688 -20.373   3.342  0.00  0.00     0.278 S 
ATOM      8  O   UNL d   1      33.776 -20.672   2.429  0.00  0.00    -0.199 OA
ATOM      9  O   UNL d   1      32.327 -18.995   3.601  0.00  0.00    -0.199 OA
BRANCH   7  10
ATOM     10  C   UNL d   1      33.165 -21.094   4.912  0.00  0.00     0.114 A 
ATOM     11  C   UNL d   1      34.564 -21.273   5.072  0.00  0.00     0.028 A 
ATOM     12  C   UNL d   1      35.092 -22.001   6.148  0.00  0.00     0.002 A 
ATOM     13  C   UNL d   1      34.247 -22.506   7.123  0.00  0.00     0.003 A 
ATOM     14  C   UNL d   1      32.878 -22.294   7.014  0.00  0.00     0.038 A 
ATOM     15  C   UNL d   1      32.328 -21.577   5.926  0.00  0.00     0.126 A 
BRANCH  15  16
ATOM     16  N   UNL d   1      30.894 -21.323   6.039  0.00  0.00    -0.114 N 
ATOM     17  O   UNL d   1      30.238 -21.205   5.004  0.00  0.00    -0.532 OA
ATOM     18  O   UNL d   1      30.407 -21.268   7.173  0.00  0.00    -0.532 OA
ENDBRANCH  15  16
ENDBRANCH   7  10
ENDBRANCH   5   7
ENDBRANCH   3   5
BRANCH   1  19
ATOM     19  C   UNL d   1      30.633 -23.333  -0.307  0.00  0.00     0.280 C 
BRANCH  19  20
ATOM     20  O   UNL d   1      31.752 -22.972  -1.095  0.00  0.00    -0.342 OA
BRANCH  20  21
ATOM     21  C   UNL d   1      31.576 -22.085  -2.134  0.00  0.00     0.075 A 
ATOM     22  C   UNL d   1      30.646 -22.535  -3.093  0.00  0.00     0.039 A 
ATOM     23  C   UNL d   1      30.326 -21.769  -4.223  0.00  0.00     0.026 A 
ATOM     24  C   UNL d   1      30.947 -20.545  -4.415  0.00  0.00     0.034 A 
ATOM     25  C   UNL d   1      31.869 -20.083  -3.483  0.00  0.00     0.033 A 
ATOM     26 CL   UNL d   1      30.577 -19.579  -5.789  0.00  0.00    -0.084 Cl
ATOM     27  C   UNL d   1      32.187 -20.830  -2.327  0.00  0.00    -0.027 A 
ATOM     28  C   UNL d   1      33.143 -20.173  -1.377  0.00  0.00     0.051 C 
ENDBRANCH  20  21
ENDBRANCH  19  20
ENDBRANCH   1  19
TORSDOF 7
ENDMDL
MODEL 6
REMARK VINA RESULT:    -6.556      4.305      6.934
REMARK INTER + INTRA:         -11.408
REMARK INTER:                  -8.644
REMARK INTRA:                  -2.764
REMARK CONF_INDEPENDENT:        2.088
REMARK UNBOUND:                -2.764
REMARK  7 active torsions:
REMARK  status: ('A' for Active; 'I' for Inactive)
REMARK    1  A    between atoms: C_8  and  O_9 
REMARK    2  A    between atoms: O_9  and  C_10 
REMARK    3  A    between atoms: C_10  and  C_11 
REMARK       I    between atoms: C_11  and  N_13 
REMARK    4  A    between atoms: N_13  and  N_14 
REMARK    5  A    between atoms: N_14  and  S_15 
REMARK    6  A    between atoms: S_15  and  C_18 
REMARK    7  A    between atoms: C_23  and  N_24 
ROOT
ATOM      1  C   UNL d   1      28.562 -15.173  -5.558  0.00  0.00     0.260 C 
ATOM      2  O   UNL d   1      27.805 -15.107  -6.521  0.00  0.00    -0.269 OA
ATOM      3  N   UNL d   1      28.301 -14.573  -4.320  0.00  0.00    -0.259 N 
ATOM      4  H   UNL d   1      28.982 -14.485  -3.568  0.00  0.00     0.190 HD
ENDROOT
BRANCH   3   5
ATOM      5  N   UNL d   1      26.968 -14.033  -4.097  0.00  0.00    -0.220 N 
ATOM      6  H   UNL d   1      26.970 -13.079  -3.723  0.00  0.00     0.200 HD
BRANCH   5   7
ATOM      7  S   UNL d   1      25.652 -15.052  -3.858  0.00  0.00     0.278 S 
ATOM      8  O   UNL d   1      24.554 -14.158  -3.544  0.00  0.00    -0.199 OA
ATOM      9  O   UNL d   1      25.545 -15.954  -4.986  0.00  0.00    -0.199 OA
BRANCH   7  10
ATOM     10  C   UNL d   1      25.881 -16.066  -2.397  0.00  0.00     0.114 A 
ATOM     11  C   UNL d   1      24.735 -16.813  -2.020  0.00  0.00     0.028 A 
ATOM     12  C   UNL d   1      24.675 -17.499  -0.799  0.00  0.00     0.002 A 
ATOM     13  C   UNL d   1      25.777 -17.514   0.041  0.00  0.00     0.003 A 
ATOM     14  C   UNL d   1      26.929 -16.834  -0.335  0.00  0.00     0.038 A 
ATOM     15  C   UNL d   1      26.999 -16.123  -1.556  0.00  0.00     0.126 A 
BRANCH  15  16
ATOM     16  N   UNL d   1      28.322 -15.587  -1.862  0.00  0.00    -0.114 N 
ATOM     17  O   UNL d   1      28.579 -14.432  -1.519  0.00  0.00    -0.532 OA
ATOM     18  O   UNL d   1      29.129 -16.332  -2.428  0.00  0.00    -0.532 OA
ENDBRANCH  15  16
ENDBRANCH   7  10
ENDBRANCH   5   7
ENDBRANCH   3   5
BRANCH   1  19
ATOM     19  C   UNL d   1      29.846 -15.989  -5.532  0.00  0.00     0.280 C 
BRANCH  19  20
ATOM     20  O   UNL d   1      30.026 -16.978  -6.529  0.00  0.00    -0.342 OA
BRANCH  20  21
ATOM     21  C   UNL d   1      30.417 -18.242  -6.150  0.00  0.00     0.075 A 
ATOM     22  C   UNL d   1      30.417 -18.425  -4.751  0.00  0.00     0.039 A 
ATOM     23  C   UNL d   1      30.780 -19.648  -4.170  0.00  0.00     0.026 A 
ATOM     24  C   UNL d   1      31.163 -20.703  -4.983  0.00  0.00     0.034 A 
ATOM     25  C   UNL d   1      31.173 -20.543  -6.364  0.00  0.00     0.033 A 
ATOM     26 CL   UNL d   1      31.613 -22.217  -4.303  0.00  0.00    -0.084 Cl
ATOM     27  C   UNL d   1      30.789 -19.327  -6.969  0.00  0.00    -0.027 A 
ATOM     28  C   UNL d   1      30.780 -19.326  -8.469  0.00  0.00     0.051 C 
ENDBRANCH  20  21
ENDBRANCH  19  20
ENDBRANCH   1  19
TORSDOF 7
ENDMDL
MODEL 7
REMARK VINA RESULT:    -6.550      5.941      8.124
REMARK INTER + INTRA:         -11.463
REMARK INTER:                  -8.639
REMARK INTRA:                  -2.824
REMARK CONF_INDEPENDENT:        2.088
REMARK UNBOUND:                -2.824
REMARK  7 active torsions:
REMARK  status: ('A' for Active; 'I' for Inactive)
REMARK    1  A    between atoms: C_8  and  O_9 
REMARK    2  A    between atoms: O_9  and  C_10 
REMARK    3  A    between atoms: C_10  and  C_11 
REMARK       I    between atoms: C_11  and  N_13 
REMARK    4  A    between atoms: N_13  and  N_14 
REMARK    5  A    between atoms: N_14  and  S_15 
REMARK    6  A    between atoms: S_15  and  C_18 
REMARK    7  A    between atoms: C_23  and  N_24 
ROOT
ATOM      1  C   UNL d   1      27.597 -13.690   0.976  0.00  0.00     0.260 C 
ATOM      2  O   UNL d   1      27.561 -12.464   1.010  0.00  0.00    -0.269 OA
ATOM      3  N   UNL d   1      27.851 -14.493   2.095  0.00  0.00    -0.259 N 
ATOM      4  H   UNL d   1      28.038 -15.493   2.054  0.00  0.00     0.190 HD
ENDROOT
BRANCH   3   5
ATOM      5  N   UNL d   1      27.855 -13.853   3.401  0.00  0.00    -0.220 N 
ATOM      6  H   UNL d   1      27.682 -12.844   3.364  0.00  0.00     0.200 HD
BRANCH   5   7
ATOM      7  S   UNL d   1      28.675 -14.542   4.697  0.00  0.00     0.278 S 
ATOM      8  O   UNL d   1      27.780 -15.575   5.184  0.00  0.00    -0.199 OA
ATOM      9  O   UNL d   1      30.014 -14.893   4.274  0.00  0.00    -0.199 OA
BRANCH   7  10
ATOM     10  C   UNL d   1      28.842 -13.375   6.048  0.00  0.00     0.114 A 
ATOM     11  C   UNL d   1      29.261 -13.956   7.273  0.00  0.00     0.028 A 
ATOM     12  C   UNL d   1      29.251 -13.228   8.471  0.00  0.00     0.002 A 
ATOM     13  C   UNL d   1      28.891 -11.890   8.465  0.00  0.00     0.003 A 
ATOM     14  C   UNL d   1      28.530 -11.287   7.266  0.00  0.00     0.038 A 
ATOM     15  C   UNL d   1      28.519 -12.012   6.051  0.00  0.00     0.126 A 
BRANCH  15  16
ATOM     16  N   UNL d   1      28.255 -11.197   4.869  0.00  0.00    -0.114 N 
ATOM     17  O   UNL d   1      27.274 -10.453   4.880  0.00  0.00    -0.532 OA
ATOM     18  O   UNL d   1      29.050 -11.275   3.927  0.00  0.00    -0.532 OA
ENDBRANCH  15  16
ENDBRANCH   7  10
ENDBRANCH   5   7
ENDBRANCH   3   5
BRANCH   1  19
ATOM     19  C   UNL d   1      27.279 -14.522  -0.258  0.00  0.00     0.280 C 
BRANCH  19  20
ATOM     20  O   UNL d   1      27.357 -15.932  -0.148  0.00  0.00    -0.342 OA
BRANCH  20  21
ATOM     21  C   UNL d   1      26.198 -16.671  -0.237  0.00  0.00     0.075 A 
ATOM     22  C   UNL d   1      25.123 -15.949  -0.795  0.00  0.00     0.039 A 
ATOM     23  C   UNL d   1      23.861 -16.532  -0.973  0.00  0.00     0.026 A 
ATOM     24  C   UNL d   1      23.654 -17.845  -0.580  0.00  0.00     0.034 A 
ATOM     25  C   UNL d   1      24.700 -18.574  -0.025  0.00  0.00     0.033 A 
ATOM     26 CL   UNL d   1      22.119 -18.592  -0.786  0.00  0.00    -0.084 Cl
ATOM     27  C   UNL d   1      25.984 -18.011   0.141  0.00  0.00    -0.027 A 
ATOM     28  C   UNL d   1      27.030 -18.938   0.685  0.00  0.00     0.051 C 
ENDBRANCH  20  21
ENDBRANCH  19  20
ENDBRANCH   1  19
TORSDOF 7
ENDMDL
MODEL 8
REMARK VINA RESULT:    -6.278      4.800      7.365
REMARK INTER + INTRA:         -11.348
REMARK INTER:                  -8.366
REMARK INTRA:                  -2.982
REMARK CONF_INDEPENDENT:        2.088
REMARK UNBOUND:                -2.982
REMARK  7 active torsions:
REMARK  status: ('A' for Active; 'I' for Inactive)
REMARK    1  A    between atoms: C_8  and  O_9 
REMARK    2  A    between atoms: O_9  and  C_10 
REMARK    3  A    between atoms: C_10  and  C_11 
REMARK       I    between atoms: C_11  and  N_13 
REMARK    4  A    between atoms: N_13  and  N_14 
REMARK    5  A    between atoms: N_14  and  S_15 
REMARK    6  A    between atoms: S_15  and  C_18 
REMARK    7  A    between atoms: C_23  and  N_24 
ROOT
ATOM      1  C   UNL d   1      28.538 -15.495  -5.374  0.00  0.00     0.260 C 
ATOM      2  O   UNL d   1      28.157 -15.194  -6.502  0.00  0.00    -0.269 OA
ATOM      3  N   UNL d   1      27.772 -15.307  -4.218  0.00  0.00    -0.259 N 
ATOM      4  H   UNL d   1      28.130 -15.403  -3.269  0.00  0.00     0.190 HD
ENDROOT
BRANCH   3   5
ATOM      5  N   UNL d   1      26.373 -14.944  -4.383  0.00  0.00    -0.220 N 
ATOM      6  H   UNL d   1      26.159 -14.544  -5.302  0.00  0.00     0.200 HD
BRANCH   5   7
ATOM      7  S   UNL d   1      25.405 -14.610  -3.049  0.00  0.00     0.278 S 
ATOM      8  O   UNL d   1      26.079 -13.514  -2.379  0.00  0.00    -0.199 OA
ATOM      9  O   UNL d   1      24.035 -14.450  -3.490  0.00  0.00    -0.199 OA
BRANCH   7  10
ATOM     10  C   UNL d   1      25.425 -15.972  -1.883  0.00  0.00     0.114 A 
ATOM     11  C   UNL d   1      24.145 -16.516  -1.600  0.00  0.00     0.028 A 
ATOM     12  C   UNL d   1      23.956 -17.447  -0.568  0.00  0.00     0.002 A 
ATOM     13  C   UNL d   1      25.043 -17.908   0.156  0.00  0.00     0.003 A 
ATOM     14  C   UNL d   1      26.313 -17.429  -0.143  0.00  0.00     0.038 A 
ATOM     15  C   UNL d   1      26.518 -16.477  -1.169  0.00  0.00     0.126 A 
BRANCH  15  16
ATOM     16  N   UNL d   1      27.923 -16.189  -1.446  0.00  0.00    -0.114 N 
ATOM     17  O   UNL d   1      28.606 -17.067  -1.973  0.00  0.00    -0.532 OA
ATOM     18  O   UNL d   1      28.347 -15.064  -1.163  0.00  0.00    -0.532 OA
ENDBRANCH  15  16
ENDBRANCH   7  10
ENDBRANCH   5   7
ENDBRANCH   3   5
BRANCH   1  19
ATOM     19  C   UNL d   1      29.853 -16.198  -5.075  0.00  0.00     0.280 C 
BRANCH  19  20
ATOM     20  O   UNL d   1      29.841 -17.609  -4.954  0.00  0.00    -0.342 OA
BRANCH  20  21
ATOM     21  C   UNL d   1      30.410 -18.368  -5.953  0.00  0.00     0.075 A 
ATOM     22  C   UNL d   1      30.775 -17.609  -7.084  0.00  0.00     0.039 A 
ATOM     23  C   UNL d   1      31.374 -18.201  -8.204  0.00  0.00     0.026 A 
ATOM     24  C   UNL d   1      31.604 -19.568  -8.212  0.00  0.00     0.034 A 
ATOM     25  C   UNL d   1      31.250 -20.335  -7.108  0.00  0.00     0.033 A 
ATOM     26 CL   UNL d   1      32.339 -20.327  -9.569  0.00  0.00    -0.084 Cl
ATOM     27  C   UNL d   1      30.665 -19.753  -5.962  0.00  0.00    -0.027 A 
ATOM     28  C   UNL d   1      30.404 -20.693  -4.823  0.00  0.00     0.051 C 
ENDBRANCH  20  21
ENDBRANCH  19  20
ENDBRANCH   1  19
TORSDOF 7
ENDMDL
MODEL 9
REMARK VINA RESULT:    -5.397      4.054      6.070
REMARK INTER + INTRA:         -11.290
REMARK INTER:                  -7.485
REMARK INTRA:                  -3.804
REMARK CONF_INDEPENDENT:        2.088
REMARK UNBOUND:                -3.804
REMARK  7 active torsions:
REMARK  status: ('A' for Active; 'I' for Inactive)
REMARK    1  A    between atoms: C_8  and  O_9 
REMARK    2  A    between atoms: O_9  and  C_10 
REMARK    3  A    between atoms: C_10  and  C_11 
REMARK       I    between atoms: C_11  and  N_13 
REMARK    4  A    between atoms: N_13  and  N_14 
REMARK    5  A    between atoms: N_14  and  S_15 
REMARK    6  A    between atoms: S_15  and  C_18 
REMARK    7  A    between atoms: C_23  and  N_24 
ROOT
ATOM      1  C   UNL d   1      28.521 -16.616  -2.413  0.00  0.00     0.260 C 
ATOM      2  O   UNL d   1      27.974 -17.043  -1.401  0.00  0.00    -0.269 OA
ATOM      3  N   UNL d   1      27.896 -15.773  -3.339  0.00  0.00    -0.259 N 
ATOM      4  H   UNL d   1      28.279 -15.540  -4.254  0.00  0.00     0.190 HD
ENDROOT
BRANCH   3   5
ATOM      5  N   UNL d   1      26.610 -15.199  -2.974  0.00  0.00    -0.220 N 
ATOM      6  H   UNL d   1      26.245 -15.546  -2.082  0.00  0.00     0.200 HD
BRANCH   5   7
ATOM      7  S   UNL d   1      25.579 -14.577  -4.147  0.00  0.00     0.278 S 
ATOM      8  O   UNL d   1      25.483 -15.630  -5.140  0.00  0.00    -0.199 OA
ATOM      9  O   UNL d   1      24.379 -14.083  -3.505  0.00  0.00    -0.199 OA
BRANCH   7  10
ATOM     10  C   UNL d   1      26.330 -13.185  -4.992  0.00  0.00     0.114 A 
ATOM     11  C   UNL d   1      25.568 -11.989  -4.938  0.00  0.00     0.028 A 
ATOM     12  C   UNL d   1      25.908 -10.868  -5.708  0.00  0.00     0.002 A 
ATOM     13  C   UNL d   1      27.050 -10.888  -6.493  0.00  0.00     0.003 A 
ATOM     14  C   UNL d   1      27.840 -12.031  -6.518  0.00  0.00     0.038 A 
ATOM     15  C   UNL d   1      27.501 -13.177  -5.760  0.00  0.00     0.126 A 
BRANCH  15  16
ATOM     16  N   UNL d   1      28.509 -14.232  -5.787  0.00  0.00    -0.114 N 
ATOM     17  O   UNL d   1      29.563 -14.051  -5.176  0.00  0.00    -0.532 OA
ATOM     18  O   UNL d   1      28.240 -15.269  -6.403  0.00  0.00    -0.532 OA
ENDBRANCH  15  16
ENDBRANCH   7  10
ENDBRANCH   5   7
ENDBRANCH   3   5
BRANCH   1  19
ATOM     19  C   UNL d   1      29.982 -16.859  -2.763  0.00  0.00     0.280 C 
BRANCH  19  20
ATOM     20  O   UNL d   1      30.471 -16.328  -3.981  0.00  0.00    -0.342 OA
BRANCH  20  21
ATOM     21  C   UNL d   1      30.671 -17.179  -5.046  0.00  0.00     0.075 A 
ATOM     22  C   UNL d   1      30.404 -18.528  -4.732  0.00  0.00     0.039 A 
ATOM     23  C   UNL d   1      30.544 -19.546  -5.687  0.00  0.00     0.026 A 
ATOM     24  C   UNL d   1      30.968 -19.226  -6.967  0.00  0.00     0.034 A 
ATOM     25  C   UNL d   1      31.239 -17.903  -7.296  0.00  0.00     0.033 A 
ATOM     26 CL   UNL d   1      31.149 -20.449  -8.162  0.00  0.00    -0.084 Cl
ATOM     27  C   UNL d   1      31.083 -16.862  -6.355  0.00  0.00    -0.027 A 
ATOM     28  C   UNL d   1      31.342 -15.479  -6.873  0.00  0.00     0.051 C 
ENDBRANCH  20  21
ENDBRANCH  19  20
ENDBRANCH   1  19
TORSDOF 7
ENDMDL
