MODEL 1
REMARK VINA RESULT:    -8.721      0.000      0.000
REMARK INTER + INTRA:         -11.061
REMARK INTER:                 -10.212
REMARK INTRA:                  -0.849
REMARK CONF_INDEPENDENT:        1.492
REMARK UNBOUND:                -0.849
REMARK  5 active torsions:
REMARK  status: ('A' for Active; 'I' for Inactive)
REMARK       I    between atoms: C_2  and  N_3 
REMARK    1  A    between atoms: C_2  and  C_15 
REMARK    2  A    between atoms: N_3  and  N_4 
REMARK    3  A    between atoms: C_5  and  C_6 
REMARK    4  A    between atoms: C_15  and  O_16 
REMARK    5  A    between atoms: C_15  and  C_17 
ROOT
ATOM      1  O   UNL d   1      21.829 -16.848  -0.844  0.00  0.00    -0.268 OA
ATOM      2  C   UNL d   1      21.787 -18.085  -0.904  0.00  0.00     0.271 C 
ATOM      3  N   UNL d   1      22.928 -18.872  -0.782  0.00  0.00    -0.245 N 
ATOM      4  H   UNL d   1      22.920 -19.847  -1.067  0.00  0.00     0.192 HD
ENDROOT
BRANCH   3   5
ATOM      5  N   UNL d   1      24.124 -18.330  -0.373  0.00  0.00    -0.182 NA
ATOM      6  C   UNL d   1      24.728 -17.584  -1.243  0.00  0.00     0.168 C 
BRANCH   6   7
ATOM      7  C   UNL d   1      25.861 -16.785  -0.860  0.00  0.00     0.052 A 
ATOM      8  C   UNL d   1      25.820 -15.516  -0.316  0.00  0.00     0.044 A 
ATOM      9  C   UNL d   1      27.125 -15.176   0.120  0.00  0.00    -0.007 A 
ATOM     10  C   UNL d   1      27.652 -14.082   0.831  0.00  0.00     0.014 A 
ATOM     11  C   UNL d   1      27.971 -16.220  -0.253  0.00  0.00     0.043 A 
ATOM     12  C   UNL d   1      29.009 -14.068   1.159  0.00  0.00     0.001 A 
ATOM     13  C   UNL d   1      29.841 -15.114   0.765  0.00  0.00     0.002 A 
ATOM     14  C   UNL d   1      29.343 -16.204   0.039  0.00  0.00     0.030 A 
ATOM     15  N   UNL d   1      27.183 -17.171  -0.875  0.00  0.00    -0.354 N 
ATOM     16  H   UNL d   1      27.522 -18.053  -1.239  0.00  0.00     0.166 HD
ENDBRANCH   6   7
ENDBRANCH   3   5
BRANCH   2  17
ATOM     17  C   UNL d   1      20.411 -18.815  -1.136  0.00  0.00     0.244 C 
BRANCH  17  18
ATOM     18  O   UNL d   1      20.471 -19.699  -2.258  0.00  0.00    -0.381 OA
ATOM     19  H   UNL d   1      19.905 -19.326  -2.953  0.00  0.00     0.211 HD
ENDBRANCH  17  18
BRANCH  17  20
ATOM     20  C   UNL d   1      19.769 -19.528   0.051  0.00  0.00    -0.021 C 
ATOM     21  C   UNL d   1      20.263 -19.384   1.359  0.00  0.00     0.010 C 
ATOM     22  C   UNL d   1      19.676 -20.084   2.418  0.00  0.00     0.001 C 
ATOM     23  C   UNL d   1      18.516 -20.827   2.209  0.00  0.00     0.000 C 
ATOM     24  C   UNL d   1      18.031 -20.997   0.922  0.00  0.00     0.001 C 
ATOM     25  C   UNL d   1      18.729 -20.450  -0.145  0.00  0.00     0.010 C 
ENDBRANCH  17  20
ENDBRANCH   2  17
TORSDOF 5
ENDMDL
MODEL 2
REMARK VINA RESULT:    -8.083      2.775      8.730
REMARK INTER + INTRA:         -10.680
REMARK INTER:                  -9.575
REMARK INTRA:                  -1.106
REMARK CONF_INDEPENDENT:        1.492
REMARK UNBOUND:                -1.106
REMARK  5 active torsions:
REMARK  status: ('A' for Active; 'I' for Inactive)
REMARK       I    between atoms: C_2  and  N_3 
REMARK    1  A    between atoms: C_2  and  C_15 
REMARK    2  A    between atoms: N_3  and  N_4 
REMARK    3  A    between atoms: C_5  and  C_6 
REMARK    4  A    between atoms: C_15  and  O_16 
REMARK    5  A    between atoms: C_15  and  C_17 
ROOT
ATOM      1  O   UNL d   1      25.590 -15.431   0.156  0.00  0.00    -0.268 OA
ATOM      2  C   UNL d   1      26.126 -16.352  -0.476  0.00  0.00     0.271 C 
ATOM      3  N   UNL d   1      25.636 -17.655  -0.446  0.00  0.00    -0.245 N 
ATOM      4  H   UNL d   1      26.206 -18.432  -0.764  0.00  0.00     0.192 HD
ENDROOT
BRANCH   3   5
ATOM      5  N   UNL d   1      24.411 -17.939   0.111  0.00  0.00    -0.182 NA
ATOM      6  C   UNL d   1      23.415 -17.979  -0.717  0.00  0.00     0.168 C 
BRANCH   6   7
ATOM      7  C   UNL d   1      22.135 -18.483  -0.297  0.00  0.00     0.052 A 
ATOM      8  C   UNL d   1      21.064 -18.778  -1.118  0.00  0.00     0.044 A 
ATOM      9  C   UNL d   1      20.085 -19.453  -0.346  0.00  0.00    -0.007 A 
ATOM     10  C   UNL d   1      18.864 -20.075  -0.666  0.00  0.00     0.014 A 
ATOM     11  C   UNL d   1      20.541 -19.478   0.971  0.00  0.00     0.043 A 
ATOM     12  C   UNL d   1      18.137 -20.714   0.341  0.00  0.00     0.001 A 
ATOM     13  C   UNL d   1      18.602 -20.716   1.654  0.00  0.00     0.002 A 
ATOM     14  C   UNL d   1      19.806 -20.087   1.999  0.00  0.00     0.030 A 
ATOM     15  N   UNL d   1      21.775 -18.854   0.980  0.00  0.00    -0.354 N 
ATOM     16  H   UNL d   1      22.358 -18.738   1.800  0.00  0.00     0.166 HD
ENDBRANCH   6   7
ENDBRANCH   3   5
BRANCH   2  17
ATOM     17  C   UNL d   1      27.411 -16.069  -1.342  0.00  0.00     0.244 C 
BRANCH  17  18
ATOM     18  O   UNL d   1      28.306 -17.184  -1.329  0.00  0.00    -0.381 OA
ATOM     19  H   UNL d   1      28.829 -17.127  -0.513  0.00  0.00     0.211 HD
ENDBRANCH  17  18
BRANCH  17  20
ATOM     20  C   UNL d   1      27.216 -15.581  -2.775  0.00  0.00    -0.021 C 
ATOM     21  C   UNL d   1      25.948 -15.234  -3.276  0.00  0.00     0.010 C 
ATOM     22  C   UNL d   1      25.799 -14.829  -4.606  0.00  0.00     0.001 C 
ATOM     23  C   UNL d   1      26.921 -14.639  -5.410  0.00  0.00     0.000 C 
ATOM     24  C   UNL d   1      28.173 -14.998  -4.939  0.00  0.00     0.001 C 
ATOM     25  C   UNL d   1      28.287 -15.574  -3.681  0.00  0.00     0.010 C 
ENDBRANCH  17  20
ENDBRANCH   2  17
TORSDOF 5
ENDMDL
MODEL 3
REMARK VINA RESULT:    -7.884      5.032      7.299
REMARK INTER + INTRA:         -10.381
REMARK INTER:                  -9.375
REMARK INTRA:                  -1.006
REMARK CONF_INDEPENDENT:        1.492
REMARK UNBOUND:                -1.006
REMARK  5 active torsions:
REMARK  status: ('A' for Active; 'I' for Inactive)
REMARK       I    between atoms: C_2  and  N_3 
REMARK    1  A    between atoms: C_2  and  C_15 
REMARK    2  A    between atoms: N_3  and  N_4 
REMARK    3  A    between atoms: C_5  and  C_6 
REMARK    4  A    between atoms: C_15  and  O_16 
REMARK    5  A    between atoms: C_15  and  C_17 
ROOT
ATOM      1  O   UNL d   1      26.701 -14.055   0.920  0.00  0.00    -0.268 OA
ATOM      2  C   UNL d   1      27.443 -15.046   0.898  0.00  0.00     0.271 C 
ATOM      3  N   UNL d   1      28.508 -15.194   1.783  0.00  0.00    -0.245 N 
ATOM      4  H   UNL d   1      29.239 -15.876   1.606  0.00  0.00     0.192 HD
ENDROOT
BRANCH   3   5
ATOM      5  N   UNL d   1      28.656 -14.354   2.862  0.00  0.00    -0.182 NA
ATOM      6  C   UNL d   1      28.196 -14.801   3.987  0.00  0.00     0.168 C 
BRANCH   6   7
ATOM      7  C   UNL d   1      28.490 -14.120   5.219  0.00  0.00     0.052 A 
ATOM      8  C   UNL d   1      28.463 -12.754   5.425  0.00  0.00     0.044 A 
ATOM      9  C   UNL d   1      28.595 -12.511   6.815  0.00  0.00    -0.007 A 
ATOM     10  C   UNL d   1      28.526 -11.347   7.603  0.00  0.00     0.014 A 
ATOM     11  C   UNL d   1      28.794 -13.744   7.434  0.00  0.00     0.043 A 
ATOM     12  C   UNL d   1      28.648 -11.451   8.990  0.00  0.00     0.001 A 
ATOM     13  C   UNL d   1      28.861 -12.690   9.589  0.00  0.00     0.002 A 
ATOM     14  C   UNL d   1      28.953 -13.861   8.823  0.00  0.00     0.030 A 
ATOM     15  N   UNL d   1      28.758 -14.703   6.438  0.00  0.00    -0.354 N 
ATOM     16  H   UNL d   1      28.858 -15.699   6.592  0.00  0.00     0.166 HD
ENDBRANCH   6   7
ENDBRANCH   3   5
BRANCH   2  17
ATOM     17  C   UNL d   1      27.203 -16.187  -0.161  0.00  0.00     0.244 C 
BRANCH  17  18
ATOM     18  O   UNL d   1      28.134 -17.259   0.005  0.00  0.00    -0.381 OA
ATOM     19  H   UNL d   1      28.560 -17.143   0.870  0.00  0.00     0.211 HD
ENDBRANCH  17  18
BRANCH  17  20
ATOM     20  C   UNL d   1      25.790 -16.748  -0.302  0.00  0.00    -0.021 C 
ATOM     21  C   UNL d   1      25.479 -18.075   0.042  0.00  0.00     0.010 C 
ATOM     22  C   UNL d   1      24.184 -18.569  -0.138  0.00  0.00     0.001 C 
ATOM     23  C   UNL d   1      23.158 -17.714  -0.536  0.00  0.00     0.000 C 
ATOM     24  C   UNL d   1      23.452 -16.410  -0.900  0.00  0.00     0.001 C 
ATOM     25  C   UNL d   1      24.773 -15.984  -0.895  0.00  0.00     0.010 C 
ENDBRANCH  17  20
ENDBRANCH   2  17
TORSDOF 5
ENDMDL
MODEL 4
REMARK VINA RESULT:    -7.378      2.010      8.680
REMARK INTER + INTRA:         -10.161
REMARK INTER:                  -8.869
REMARK INTRA:                  -1.291
REMARK CONF_INDEPENDENT:        1.492
REMARK UNBOUND:                -1.291
REMARK  5 active torsions:
REMARK  status: ('A' for Active; 'I' for Inactive)
REMARK       I    between atoms: C_2  and  N_3 
REMARK    1  A    between atoms: C_2  and  C_15 
REMARK    2  A    between atoms: N_3  and  N_4 
REMARK    3  A    between atoms: C_5  and  C_6 
REMARK    4  A    between atoms: C_15  and  O_16 
REMARK    5  A    between atoms: C_15  and  C_17 
ROOT
ATOM      1  O   UNL d   1      24.214 -14.888  -2.624  0.00  0.00    -0.268 OA
ATOM      2  C   UNL d   1      25.086 -15.694  -2.270  0.00  0.00     0.271 C 
ATOM      3  N   UNL d   1      24.834 -16.695  -1.336  0.00  0.00    -0.245 N 
ATOM      4  H   UNL d   1      25.598 -17.186  -0.882  0.00  0.00     0.192 HD
ENDROOT
BRANCH   3   5
ATOM      5  N   UNL d   1      23.552 -16.975  -0.925  0.00  0.00    -0.182 NA
ATOM      6  C   UNL d   1      23.139 -18.180  -1.161  0.00  0.00     0.168 C 
BRANCH   6   7
ATOM      7  C   UNL d   1      21.912 -18.659  -0.582  0.00  0.00     0.052 A 
ATOM      8  C   UNL d   1      20.775 -19.032  -1.271  0.00  0.00     0.044 A 
ATOM      9  C   UNL d   1      19.883 -19.647  -0.357  0.00  0.00    -0.007 A 
ATOM     10  C   UNL d   1      18.648 -20.305  -0.507  0.00  0.00     0.014 A 
ATOM     11  C   UNL d   1      20.459 -19.555   0.909  0.00  0.00     0.043 A 
ATOM     12  C   UNL d   1      18.029 -20.862   0.613  0.00  0.00     0.001 A 
ATOM     13  C   UNL d   1      18.613 -20.748   1.872  0.00  0.00     0.002 A 
ATOM     14  C   UNL d   1      19.833 -20.080   2.049  0.00  0.00     0.030 A 
ATOM     15  N   UNL d   1      21.678 -18.922   0.750  0.00  0.00    -0.354 N 
ATOM     16  H   UNL d   1      22.332 -18.731   1.499  0.00  0.00     0.166 HD
ENDBRANCH   6   7
ENDBRANCH   3   5
BRANCH   2  17
ATOM     17  C   UNL d   1      26.538 -15.598  -2.872  0.00  0.00     0.244 C 
BRANCH  17  18
ATOM     18  O   UNL d   1      26.772 -14.322  -3.472  0.00  0.00    -0.381 OA
ATOM     19  H   UNL d   1      25.907 -13.911  -3.630  0.00  0.00     0.211 HD
ENDBRANCH  17  18
BRANCH  17  20
ATOM     20  C   UNL d   1      27.714 -15.969  -1.972  0.00  0.00    -0.021 C 
ATOM     21  C   UNL d   1      27.760 -15.593  -0.618  0.00  0.00     0.010 C 
ATOM     22  C   UNL d   1      28.870 -15.914   0.169  0.00  0.00     0.001 C 
ATOM     23  C   UNL d   1      29.882 -16.723  -0.345  0.00  0.00     0.000 C 
ATOM     24  C   UNL d   1      29.862 -17.083  -1.683  0.00  0.00     0.001 C 
ATOM     25  C   UNL d   1      28.849 -16.602  -2.501  0.00  0.00     0.010 C 
ENDBRANCH  17  20
ENDBRANCH   2  17
TORSDOF 5
ENDMDL
MODEL 5
REMARK VINA RESULT:    -7.096      6.313      8.345
REMARK INTER + INTRA:          -9.880
REMARK INTER:                  -8.587
REMARK INTRA:                  -1.292
REMARK CONF_INDEPENDENT:        1.492
REMARK UNBOUND:                -1.292
REMARK  5 active torsions:
REMARK  status: ('A' for Active; 'I' for Inactive)
REMARK       I    between atoms: C_2  and  N_3 
REMARK    1  A    between atoms: C_2  and  C_15 
REMARK    2  A    between atoms: N_3  and  N_4 
REMARK    3  A    between atoms: C_5  and  C_6 
REMARK    4  A    between atoms: C_15  and  O_16 
REMARK    5  A    between atoms: C_15  and  C_17 
ROOT
ATOM      1  O   UNL d   1      26.043 -15.575  -5.771  0.00  0.00    -0.268 OA
ATOM      2  C   UNL d   1      26.534 -15.358  -4.654  0.00  0.00     0.271 C 
ATOM      3  N   UNL d   1      27.875 -15.608  -4.373  0.00  0.00    -0.245 N 
ATOM      4  H   UNL d   1      28.204 -15.655  -3.414  0.00  0.00     0.192 HD
ENDROOT
BRANCH   3   5
ATOM      5  N   UNL d   1      28.767 -15.901  -5.377  0.00  0.00    -0.182 NA
ATOM      6  C   UNL d   1      29.685 -16.765  -5.076  0.00  0.00     0.168 C 
BRANCH   6   7
ATOM      7  C   UNL d   1      30.531 -17.319  -6.098  0.00  0.00     0.052 A 
ATOM      8  C   UNL d   1      30.507 -18.619  -6.563  0.00  0.00     0.044 A 
ATOM      9  C   UNL d   1      31.335 -18.697  -7.711  0.00  0.00    -0.007 A 
ATOM     10  C   UNL d   1      31.600 -19.717  -8.644  0.00  0.00     0.014 A 
ATOM     11  C   UNL d   1      31.930 -17.448  -7.877  0.00  0.00     0.043 A 
ATOM     12  C   UNL d   1      32.447 -19.455  -9.723  0.00  0.00     0.001 A 
ATOM     13  C   UNL d   1      33.044 -18.205  -9.863  0.00  0.00     0.002 A 
ATOM     14  C   UNL d   1      32.810 -17.180  -8.936  0.00  0.00     0.030 A 
ATOM     15  N   UNL d   1      31.450 -16.637  -6.865  0.00  0.00    -0.354 N 
ATOM     16  H   UNL d   1      31.696 -15.662  -6.740  0.00  0.00     0.166 HD
ENDBRANCH   6   7
ENDBRANCH   3   5
BRANCH   2  17
ATOM     17  C   UNL d   1      25.632 -14.791  -3.494  0.00  0.00     0.244 C 
BRANCH  17  18
ATOM     18  O   UNL d   1      24.414 -14.242  -4.001  0.00  0.00    -0.381 OA
ATOM     19  H   UNL d   1      24.466 -14.262  -4.970  0.00  0.00     0.211 HD
ENDBRANCH  17  18
BRANCH  17  20
ATOM     20  C   UNL d   1      25.334 -15.703  -2.307  0.00  0.00    -0.021 C 
ATOM     21  C   UNL d   1      24.030 -15.872  -1.810  0.00  0.00     0.010 C 
ATOM     22  C   UNL d   1      23.797 -16.683  -0.695  0.00  0.00     0.001 C 
ATOM     23  C   UNL d   1      24.835 -17.434  -0.146  0.00  0.00     0.000 C 
ATOM     24  C   UNL d   1      26.129 -17.261  -0.611  0.00  0.00     0.001 C 
ATOM     25  C   UNL d   1      26.377 -16.314  -1.594  0.00  0.00     0.010 C 
ENDBRANCH  17  20
ENDBRANCH   2  17
TORSDOF 5
ENDMDL
MODEL 6
REMARK VINA RESULT:    -7.076      6.350      8.364
REMARK INTER + INTRA:          -9.794
REMARK INTER:                  -8.568
REMARK INTRA:                  -1.227
REMARK CONF_INDEPENDENT:        1.492
REMARK UNBOUND:                -1.227
REMARK  5 active torsions:
REMARK  status: ('A' for Active; 'I' for Inactive)
REMARK       I    between atoms: C_2  and  N_3 
REMARK    1  A    between atoms: C_2  and  C_15 
REMARK    2  A    between atoms: N_3  and  N_4 
REMARK    3  A    between atoms: C_5  and  C_6 
REMARK    4  A    between atoms: C_15  and  O_16 
REMARK    5  A    between atoms: C_15  and  C_17 
ROOT
ATOM      1  O   UNL d   1      25.905 -15.575  -5.770  0.00  0.00    -0.268 OA
ATOM      2  C   UNL d   1      26.461 -15.240  -4.715  0.00  0.00     0.271 C 
ATOM      3  N   UNL d   1      27.841 -15.323  -4.546  0.00  0.00    -0.245 N 
ATOM      4  H   UNL d   1      28.254 -15.277  -3.619  0.00  0.00     0.192 HD
ENDROOT
BRANCH   3   5
ATOM      5  N   UNL d   1      28.672 -15.575  -5.612  0.00  0.00    -0.182 NA
ATOM      6  C   UNL d   1      29.618 -16.433  -5.394  0.00  0.00     0.168 C 
BRANCH   6   7
ATOM      7  C   UNL d   1      30.405 -16.945  -6.483  0.00  0.00     0.052 A 
ATOM      8  C   UNL d   1      31.368 -16.254  -7.192  0.00  0.00     0.044 A 
ATOM      9  C   UNL d   1      32.056 -17.173  -8.022  0.00  0.00    -0.007 A 
ATOM     10  C   UNL d   1      33.180 -17.062  -8.862  0.00  0.00     0.014 A 
ATOM     11  C   UNL d   1      31.434 -18.411  -7.873  0.00  0.00     0.043 A 
ATOM     12  C   UNL d   1      33.656 -18.197  -9.522  0.00  0.00     0.001 A 
ATOM     13  C   UNL d   1      33.012 -19.423  -9.371  0.00  0.00     0.002 A 
ATOM     14  C   UNL d   1      31.879 -19.553  -8.556  0.00  0.00     0.030 A 
ATOM     15  N   UNL d   1      30.413 -18.239  -6.956  0.00  0.00    -0.354 N 
ATOM     16  H   UNL d   1      29.795 -18.975  -6.635  0.00  0.00     0.166 HD
ENDBRANCH   6   7
ENDBRANCH   3   5
BRANCH   2  17
ATOM     17  C   UNL d   1      25.602 -14.709  -3.506  0.00  0.00     0.244 C 
BRANCH  17  18
ATOM     18  O   UNL d   1      24.372 -14.133  -3.953  0.00  0.00    -0.381 OA
ATOM     19  H   UNL d   1      24.316 -14.273  -4.912  0.00  0.00     0.211 HD
ENDBRANCH  17  18
BRANCH  17  20
ATOM     20  C   UNL d   1      25.336 -15.661  -2.343  0.00  0.00    -0.021 C 
ATOM     21  C   UNL d   1      24.044 -15.851  -1.821  0.00  0.00     0.010 C 
ATOM     22  C   UNL d   1      23.841 -16.700  -0.728  0.00  0.00     0.001 C 
ATOM     23  C   UNL d   1      24.894 -17.465  -0.231  0.00  0.00     0.000 C 
ATOM     24  C   UNL d   1      26.176 -17.272  -0.720  0.00  0.00     0.001 C 
ATOM     25  C   UNL d   1      26.397 -16.291  -1.677  0.00  0.00     0.010 C 
ENDBRANCH  17  20
ENDBRANCH   2  17
TORSDOF 5
ENDMDL
MODEL 7
REMARK VINA RESULT:    -6.935      6.287      9.235
REMARK INTER + INTRA:          -9.370
REMARK INTER:                  -8.426
REMARK INTRA:                  -0.943
REMARK CONF_INDEPENDENT:        1.492
REMARK UNBOUND:                -0.943
REMARK  5 active torsions:
REMARK  status: ('A' for Active; 'I' for Inactive)
REMARK       I    between atoms: C_2  and  N_3 
REMARK    1  A    between atoms: C_2  and  C_15 
REMARK    2  A    between atoms: N_3  and  N_4 
REMARK    3  A    between atoms: C_5  and  C_6 
REMARK    4  A    between atoms: C_15  and  O_16 
REMARK    5  A    between atoms: C_15  and  C_17 
ROOT
ATOM      1  O   UNL d   1      26.734 -13.820   4.255  0.00  0.00    -0.268 OA
ATOM      2  C   UNL d   1      27.808 -14.436   4.227  0.00  0.00     0.271 C 
ATOM      3  N   UNL d   1      28.408 -14.826   3.033  0.00  0.00    -0.245 N 
ATOM      4  H   UNL d   1      29.146 -15.524   3.026  0.00  0.00     0.192 HD
ENDROOT
BRANCH   3   5
ATOM      5  N   UNL d   1      27.950 -14.359   1.823  0.00  0.00    -0.182 NA
ATOM      6  C   UNL d   1      27.757 -15.259   0.912  0.00  0.00     0.168 C 
BRANCH   6   7
ATOM      7  C   UNL d   1      27.072 -14.928  -0.308  0.00  0.00     0.052 A 
ATOM      8  C   UNL d   1      26.701 -13.663  -0.720  0.00  0.00     0.044 A 
ATOM      9  C   UNL d   1      26.256 -13.745  -2.064  0.00  0.00    -0.007 A 
ATOM     10  C   UNL d   1      25.870 -12.781  -3.014  0.00  0.00     0.014 A 
ATOM     11  C   UNL d   1      26.277 -15.091  -2.425  0.00  0.00     0.043 A 
ATOM     12  C   UNL d   1      25.526 -13.191  -4.303  0.00  0.00     0.001 A 
ATOM     13  C   UNL d   1      25.539 -14.542  -4.641  0.00  0.00     0.002 A 
ATOM     14  C   UNL d   1      25.901 -15.522  -3.706  0.00  0.00     0.030 A 
ATOM     15  N   UNL d   1      26.747 -15.793  -1.330  0.00  0.00    -0.354 N 
ATOM     16  H   UNL d   1      26.886 -16.796  -1.303  0.00  0.00     0.166 HD
ENDBRANCH   6   7
ENDBRANCH   3   5
BRANCH   2  17
ATOM     17  C   UNL d   1      28.535 -14.811   5.573  0.00  0.00     0.244 C 
BRANCH  17  18
ATOM     18  O   UNL d   1      29.814 -15.402   5.329  0.00  0.00    -0.381 OA
ATOM     19  H   UNL d   1      29.733 -15.954   4.535  0.00  0.00     0.211 HD
ENDBRANCH  17  18
BRANCH  17  20
ATOM     20  C   UNL d   1      28.659 -13.732   6.646  0.00  0.00    -0.021 C 
ATOM     21  C   UNL d   1      28.372 -12.382   6.378  0.00  0.00     0.010 C 
ATOM     22  C   UNL d   1      28.536 -11.413   7.372  0.00  0.00     0.001 C 
ATOM     23  C   UNL d   1      28.858 -11.793   8.674  0.00  0.00     0.000 C 
ATOM     24  C   UNL d   1      29.165 -13.116   8.948  0.00  0.00     0.001 C 
ATOM     25  C   UNL d   1      29.181 -14.039   7.912  0.00  0.00     0.010 C 
ENDBRANCH  17  20
ENDBRANCH   2  17
TORSDOF 5
ENDMDL
MODEL 8
REMARK VINA RESULT:    -6.895      3.100      9.148
REMARK INTER + INTRA:          -9.514
REMARK INTER:                  -8.387
REMARK INTRA:                  -1.127
REMARK CONF_INDEPENDENT:        1.492
REMARK UNBOUND:                -1.127
REMARK  5 active torsions:
REMARK  status: ('A' for Active; 'I' for Inactive)
REMARK       I    between atoms: C_2  and  N_3 
REMARK    1  A    between atoms: C_2  and  C_15 
REMARK    2  A    between atoms: N_3  and  N_4 
REMARK    3  A    between atoms: C_5  and  C_6 
REMARK    4  A    between atoms: C_15  and  O_16 
REMARK    5  A    between atoms: C_15  and  C_17 
ROOT
ATOM      1  O   UNL d   1      27.200 -15.281  -0.635  0.00  0.00    -0.268 OA
ATOM      2  C   UNL d   1      27.726 -16.400  -0.558  0.00  0.00     0.271 C 
ATOM      3  N   UNL d   1      27.035 -17.511  -0.082  0.00  0.00    -0.245 N 
ATOM      4  H   UNL d   1      27.532 -18.351   0.199  0.00  0.00     0.192 HD
ENDROOT
BRANCH   3   5
ATOM      5  N   UNL d   1      25.675 -17.468   0.120  0.00  0.00    -0.182 NA
ATOM      6  C   UNL d   1      24.963 -18.156  -0.715  0.00  0.00     0.168 C 
BRANCH   6   7
ATOM      7  C   UNL d   1      23.561 -18.373  -0.476  0.00  0.00     0.052 A 
ATOM      8  C   UNL d   1      22.580 -18.514  -1.437  0.00  0.00     0.044 A 
ATOM      9  C   UNL d   1      21.386 -18.929  -0.797  0.00  0.00    -0.007 A 
ATOM     10  C   UNL d   1      20.122 -19.325  -1.273  0.00  0.00     0.014 A 
ATOM     11  C   UNL d   1      21.636 -18.946   0.574  0.00  0.00     0.043 A 
ATOM     12  C   UNL d   1      19.146 -19.737  -0.364  0.00  0.00     0.001 A 
ATOM     13  C   UNL d   1      19.410 -19.734   1.004  0.00  0.00     0.002 A 
ATOM     14  C   UNL d   1      20.655 -19.325   1.503  0.00  0.00     0.030 A 
ATOM     15  N   UNL d   1      22.956 -18.574   0.746  0.00  0.00    -0.354 N 
ATOM     16  H   UNL d   1      23.428 -18.513   1.640  0.00  0.00     0.166 HD
ENDBRANCH   6   7
ENDBRANCH   3   5
BRANCH   2  17
ATOM     17  C   UNL d   1      29.225 -16.598  -0.995  0.00  0.00     0.244 C 
BRANCH  17  18
ATOM     18  O   UNL d   1      29.720 -17.880  -0.601  0.00  0.00    -0.381 OA
ATOM     19  H   UNL d   1      29.284 -18.116   0.234  0.00  0.00     0.211 HD
ENDBRANCH  17  18
BRANCH  17  20
ATOM     20  C   UNL d   1      29.588 -16.330  -2.454  0.00  0.00    -0.021 C 
ATOM     21  C   UNL d   1      28.606 -16.091  -3.431  0.00  0.00     0.010 C 
ATOM     22  C   UNL d   1      28.970 -15.889  -4.766  0.00  0.00     0.001 C 
ATOM     23  C   UNL d   1      30.315 -15.793  -5.118  0.00  0.00     0.000 C 
ATOM     24  C   UNL d   1      31.293 -16.049  -4.171  0.00  0.00     0.001 C 
ATOM     25  C   UNL d   1      30.917 -16.432  -2.891  0.00  0.00     0.010 C 
ENDBRANCH  17  20
ENDBRANCH   2  17
TORSDOF 5
ENDMDL
MODEL 9
REMARK VINA RESULT:    -6.870      5.655      6.871
REMARK INTER + INTRA:          -9.593
REMARK INTER:                  -8.362
REMARK INTRA:                  -1.232
REMARK CONF_INDEPENDENT:        1.492
REMARK UNBOUND:                -1.232
REMARK  5 active torsions:
REMARK  status: ('A' for Active; 'I' for Inactive)
REMARK       I    between atoms: C_2  and  N_3 
REMARK    1  A    between atoms: C_2  and  C_15 
REMARK    2  A    between atoms: N_3  and  N_4 
REMARK    3  A    between atoms: C_5  and  C_6 
REMARK    4  A    between atoms: C_15  and  O_16 
REMARK    5  A    between atoms: C_15  and  C_17 
ROOT
ATOM      1  O   UNL d   1      27.216 -15.202  -2.048  0.00  0.00    -0.268 OA
ATOM      2  C   UNL d   1      26.218 -15.928  -2.158  0.00  0.00     0.271 C 
ATOM      3  N   UNL d   1      25.295 -15.767  -3.188  0.00  0.00    -0.245 N 
ATOM      4  H   UNL d   1      24.377 -16.198  -3.135  0.00  0.00     0.192 HD
ENDROOT
BRANCH   3   5
ATOM      5  N   UNL d   1      25.558 -14.938  -4.254  0.00  0.00    -0.182 NA
ATOM      6  C   UNL d   1      25.876 -13.720  -3.951  0.00  0.00     0.168 C 
BRANCH   6   7
ATOM      7  C   UNL d   1      26.389 -12.826  -4.955  0.00  0.00     0.052 A 
ATOM      8  C   UNL d   1      27.486 -13.050  -5.764  0.00  0.00     0.044 A 
ATOM      9  C   UNL d   1      27.520 -12.038  -6.756  0.00  0.00    -0.007 A 
ATOM     10  C   UNL d   1      28.327 -11.823  -7.889  0.00  0.00     0.014 A 
ATOM     11  C   UNL d   1      26.483 -11.149  -6.477  0.00  0.00     0.043 A 
ATOM     12  C   UNL d   1      28.067 -10.730  -8.717  0.00  0.00     0.001 A 
ATOM     13  C   UNL d   1      27.035  -9.845  -8.414  0.00  0.00     0.002 A 
ATOM     14  C   UNL d   1      26.231 -10.027  -7.280  0.00  0.00     0.030 A 
ATOM     15  N   UNL d   1      25.830 -11.633  -5.358  0.00  0.00    -0.354 N 
ATOM     16  H   UNL d   1      25.019 -11.202  -4.931  0.00  0.00     0.166 HD
ENDBRANCH   6   7
ENDBRANCH   3   5
BRANCH   2  17
ATOM     17  C   UNL d   1      25.956 -17.071  -1.108  0.00  0.00     0.244 C 
BRANCH  17  18
ATOM     18  O   UNL d   1      26.610 -16.800   0.134  0.00  0.00    -0.381 OA
ATOM     19  H   UNL d   1      27.072 -15.951   0.041  0.00  0.00     0.211 HD
ENDBRANCH  17  18
BRANCH  17  20
ATOM     20  C   UNL d   1      24.511 -17.490  -0.850  0.00  0.00    -0.021 C 
ATOM     21  C   UNL d   1      23.461 -16.555  -0.813  0.00  0.00     0.010 C 
ATOM     22  C   UNL d   1      22.155 -16.967  -0.533  0.00  0.00     0.001 C 
ATOM     23  C   UNL d   1      21.858 -18.324  -0.419  0.00  0.00     0.000 C 
ATOM     24  C   UNL d   1      22.884 -19.255  -0.431  0.00  0.00     0.001 C 
ATOM     25  C   UNL d   1      24.198 -18.818  -0.522  0.00  0.00     0.010 C 
ENDBRANCH  17  20
ENDBRANCH   2  17
TORSDOF 5
ENDMDL
