MODEL 1
REMARK VINA RESULT:    -7.051      0.000      0.000
REMARK INTER + INTRA:          -9.953
REMARK INTER:                  -9.139
REMARK INTRA:                  -0.814
REMARK CONF_INDEPENDENT:        2.088
REMARK UNBOUND:                -0.814
REMARK  7 active torsions:
REMARK  status: ('A' for Active; 'I' for Inactive)
REMARK    1  A    between atoms: C_2  and  C_3 
REMARK    2  A    between atoms: C_3  and  C_4 
REMARK    3  A    between atoms: C_4  and  C_5 
REMARK    4  A    between atoms: C_5  and  N_6 
REMARK       I    between atoms: N_6  and  C_7 
REMARK       I    between atoms: C_7  and  N_9 
REMARK    5  A    between atoms: N_9  and  N_10 
REMARK       I    between atoms: N_10  and  C_11 
REMARK    6  A    between atoms: C_11  and  C_13 
REMARK    7  A    between atoms: C_16  and  N_17 
ROOT
ATOM      1  N   UNL d   1      28.029 -13.872   1.491  0.00  0.00    -0.262 N 
ATOM      2  C   UNL d   1      27.414 -13.369   2.634  0.00  0.00     0.271 C 
ATOM      3  O   UNL d   1      27.102 -14.077   3.595  0.00  0.00    -0.266 OA
ATOM      4  H   UNL d   1      28.270 -13.296   0.685  0.00  0.00     0.190 HD
ENDROOT
BRANCH   1   5
ATOM      5  N   UNL d   1      28.268 -15.278   1.323  0.00  0.00    -0.249 N 
ATOM      6  C   UNL d   1      27.314 -16.047   0.666  0.00  0.00     0.334 C 
ATOM      7  N   UNL d   1      27.625 -17.389   0.538  0.00  0.00    -0.342 N 
ATOM      8  O   UNL d   1      26.274 -15.559   0.225  0.00  0.00    -0.246 OA
ATOM      9  H   UNL d   1      28.491 -17.743   0.918  0.00  0.00     0.164 HD
ATOM     10  H   UNL d   1      29.127 -15.646   1.719  0.00  0.00     0.192 HD
BRANCH   7  11
ATOM     11  C   UNL d   1      26.722 -18.322  -0.146  0.00  0.00     0.124 C 
BRANCH  11  12
ATOM     12  C   UNL d   1      25.255 -18.228   0.305  0.00  0.00     0.020 C 
BRANCH  12  13
ATOM     13  C   UNL d   1      24.339 -17.699  -0.812  0.00  0.00     0.001 C 
BRANCH  13  14
ATOM     14  C   UNL d   1      22.875 -17.634  -0.366  0.00  0.00    -0.004 C 
ATOM     15  C   UNL d   1      22.133 -18.920  -0.702  0.00  0.00     0.005 C 
ENDBRANCH  13  14
ENDBRANCH  12  13
ENDBRANCH  11  12
ENDBRANCH   7  11
ENDBRANCH   1   5
BRANCH   2  16
ATOM     16  C   UNL d   1      27.162 -11.879   2.710  0.00  0.00     0.055 A 
ATOM     17  C   UNL d   1      26.677 -11.207   1.562  0.00  0.00     0.021 A 
ATOM     18  C   UNL d   1      26.416  -9.820   1.574  0.00  0.00     0.037 A 
ATOM     19  C   UNL d   1      26.657  -9.080   2.737  0.00  0.00     0.104 A 
ATOM     20  C   UNL d   1      27.176  -9.720   3.868  0.00  0.00     0.060 A 
ATOM     21  C   UNL d   1      27.433 -11.106   3.849  0.00  0.00     0.052 A 
ATOM     22 CL   UNL d   1      28.154 -11.771   5.271  0.00  0.00    -0.083 Cl
BRANCH  19  23
ATOM     23  N   UNL d   1      26.368  -7.634   2.778  0.00  0.00    -0.116 N 
ATOM     24  O   UNL d   1      25.532  -7.188   1.981  0.00  0.00    -0.532 OA
ATOM     25  O   UNL d   1      26.975  -6.951   3.617  0.00  0.00    -0.532 OA
ENDBRANCH  19  23
ENDBRANCH   2  16
TORSDOF 7
ENDMDL
MODEL 2
REMARK VINA RESULT:    -6.793      6.069      7.729
REMARK INTER + INTRA:         -10.195
REMARK INTER:                  -8.881
REMARK INTRA:                  -1.313
REMARK CONF_INDEPENDENT:        2.088
REMARK UNBOUND:                -1.313
REMARK  7 active torsions:
REMARK  status: ('A' for Active; 'I' for Inactive)
REMARK    1  A    between atoms: C_2  and  C_3 
REMARK    2  A    between atoms: C_3  and  C_4 
REMARK    3  A    between atoms: C_4  and  C_5 
REMARK    4  A    between atoms: C_5  and  N_6 
REMARK       I    between atoms: N_6  and  C_7 
REMARK       I    between atoms: C_7  and  N_9 
REMARK    5  A    between atoms: N_9  and  N_10 
REMARK       I    between atoms: N_10  and  C_11 
REMARK    6  A    between atoms: C_11  and  C_13 
REMARK    7  A    between atoms: C_16  and  N_17 
ROOT
ATOM      1  N   UNL d   1      24.335 -16.959  -1.616  0.00  0.00    -0.262 N 
ATOM      2  C   UNL d   1      25.285 -15.948  -1.497  0.00  0.00     0.271 C 
ATOM      3  O   UNL d   1      25.474 -15.325  -0.449  0.00  0.00    -0.266 OA
ATOM      4  H   UNL d   1      24.159 -17.464  -2.484  0.00  0.00     0.190 HD
ENDROOT
BRANCH   1   5
ATOM      5  N   UNL d   1      23.448 -17.289  -0.535  0.00  0.00    -0.249 N 
ATOM      6  C   UNL d   1      22.561 -18.347  -0.694  0.00  0.00     0.334 C 
ATOM      7  N   UNL d   1      21.749 -18.604   0.396  0.00  0.00    -0.342 N 
ATOM      8  O   UNL d   1      22.514 -19.008  -1.731  0.00  0.00    -0.246 OA
ATOM      9  H   UNL d   1      21.824 -18.033   1.225  0.00  0.00     0.164 HD
ATOM     10  H   UNL d   1      23.503 -16.707   0.295  0.00  0.00     0.192 HD
BRANCH   7  11
ATOM     11  C   UNL d   1      20.772 -19.700   0.382  0.00  0.00     0.124 C 
BRANCH  11  12
ATOM     12  C   UNL d   1      19.388 -19.307  -0.157  0.00  0.00     0.020 C 
BRANCH  12  13
ATOM     13  C   UNL d   1      18.405 -20.490  -0.150  0.00  0.00     0.001 C 
BRANCH  13  14
ATOM     14  C   UNL d   1      18.401 -21.220   1.197  0.00  0.00    -0.004 C 
ATOM     15  C   UNL d   1      18.429 -20.240   2.361  0.00  0.00     0.005 C 
ENDBRANCH  13  14
ENDBRANCH  12  13
ENDBRANCH  11  12
ENDBRANCH   7  11
ENDBRANCH   1   5
BRANCH   2  16
ATOM     16  C   UNL d   1      26.148 -15.638  -2.699  0.00  0.00     0.055 A 
ATOM     17  C   UNL d   1      25.532 -15.165  -3.882  0.00  0.00     0.021 A 
ATOM     18  C   UNL d   1      26.286 -14.852  -5.034  0.00  0.00     0.037 A 
ATOM     19  C   UNL d   1      27.673 -15.028  -5.022  0.00  0.00     0.104 A 
ATOM     20  C   UNL d   1      28.296 -15.536  -3.876  0.00  0.00     0.060 A 
ATOM     21  C   UNL d   1      27.536 -15.846  -2.729  0.00  0.00     0.052 A 
ATOM     22 CL   UNL d   1      28.397 -16.547  -1.406  0.00  0.00    -0.083 Cl
BRANCH  19  23
ATOM     23  N   UNL d   1      28.483 -14.685  -6.206  0.00  0.00    -0.116 N 
ATOM     24  O   UNL d   1      29.185 -15.575  -6.705  0.00  0.00    -0.532 OA
ATOM     25  O   UNL d   1      28.406 -13.525  -6.638  0.00  0.00    -0.532 OA
ENDBRANCH  19  23
ENDBRANCH   2  16
TORSDOF 7
ENDMDL
MODEL 3
REMARK VINA RESULT:    -6.410      4.000      8.263
REMARK INTER + INTRA:         -10.106
REMARK INTER:                  -8.498
REMARK INTRA:                  -1.608
REMARK CONF_INDEPENDENT:        2.088
REMARK UNBOUND:                -1.608
REMARK  7 active torsions:
REMARK  status: ('A' for Active; 'I' for Inactive)
REMARK    1  A    between atoms: C_2  and  C_3 
REMARK    2  A    between atoms: C_3  and  C_4 
REMARK    3  A    between atoms: C_4  and  C_5 
REMARK    4  A    between atoms: C_5  and  N_6 
REMARK       I    between atoms: N_6  and  C_7 
REMARK       I    between atoms: C_7  and  N_9 
REMARK    5  A    between atoms: N_9  and  N_10 
REMARK       I    between atoms: N_10  and  C_11 
REMARK    6  A    between atoms: C_11  and  C_13 
REMARK    7  A    between atoms: C_16  and  N_17 
ROOT
ATOM      1  N   UNL d   1      27.059 -16.028   0.896  0.00  0.00    -0.262 N 
ATOM      2  C   UNL d   1      26.790 -17.174   0.154  0.00  0.00     0.271 C 
ATOM      3  O   UNL d   1      27.660 -17.991  -0.159  0.00  0.00    -0.266 OA
ATOM      4  H   UNL d   1      26.349 -15.338   1.141  0.00  0.00     0.190 HD
ENDROOT
BRANCH   1   5
ATOM      5  N   UNL d   1      28.399 -15.677   1.279  0.00  0.00    -0.249 N 
ATOM      6  C   UNL d   1      28.610 -14.490   1.970  0.00  0.00     0.334 C 
ATOM      7  N   UNL d   1      29.926 -14.231   2.309  0.00  0.00    -0.342 N 
ATOM      8  O   UNL d   1      27.685 -13.732   2.264  0.00  0.00    -0.246 OA
ATOM      9  H   UNL d   1      30.650 -14.883   2.045  0.00  0.00     0.164 HD
ATOM     10  H   UNL d   1      29.136 -16.316   1.001  0.00  0.00     0.192 HD
BRANCH   7  11
ATOM     11  C   UNL d   1      30.302 -13.023   3.054  0.00  0.00     0.124 C 
BRANCH  11  12
ATOM     12  C   UNL d   1      29.682 -12.926   4.457  0.00  0.00     0.020 C 
BRANCH  12  13
ATOM     13  C   UNL d   1      29.880 -14.218   5.268  0.00  0.00     0.001 C 
BRANCH  13  14
ATOM     14  C   UNL d   1      28.545 -14.818   5.720  0.00  0.00    -0.004 C 
ATOM     15  C   UNL d   1      27.366 -14.077   5.107  0.00  0.00     0.005 C 
ENDBRANCH  13  14
ENDBRANCH  12  13
ENDBRANCH  11  12
ENDBRANCH   7  11
ENDBRANCH   1   5
BRANCH   2  16
ATOM     16  C   UNL d   1      25.355 -17.444  -0.243  0.00  0.00     0.055 A 
ATOM     17  C   UNL d   1      24.729 -18.629   0.213  0.00  0.00     0.021 A 
ATOM     18  C   UNL d   1      23.391 -18.931  -0.118  0.00  0.00     0.037 A 
ATOM     19  C   UNL d   1      22.664 -18.056  -0.931  0.00  0.00     0.104 A 
ATOM     20  C   UNL d   1      23.280 -16.901  -1.427  0.00  0.00     0.060 A 
ATOM     21  C   UNL d   1      24.617 -16.605  -1.091  0.00  0.00     0.052 A 
ATOM     22 CL   UNL d   1      25.299 -15.201  -1.830  0.00  0.00    -0.083 Cl
BRANCH  19  23
ATOM     23  N   UNL d   1      21.257 -18.341  -1.269  0.00  0.00    -0.116 N 
ATOM     24  O   UNL d   1      20.949 -19.513  -1.525  0.00  0.00    -0.532 OA
ATOM     25  O   UNL d   1      20.462 -17.389  -1.269  0.00  0.00    -0.532 OA
ENDBRANCH  19  23
ENDBRANCH   2  16
TORSDOF 7
ENDMDL
MODEL 4
REMARK VINA RESULT:    -6.340      4.236      8.256
REMARK INTER + INTRA:          -9.378
REMARK INTER:                  -8.428
REMARK INTRA:                  -0.951
REMARK CONF_INDEPENDENT:        2.088
REMARK UNBOUND:                -0.951
REMARK  7 active torsions:
REMARK  status: ('A' for Active; 'I' for Inactive)
REMARK    1  A    between atoms: C_2  and  C_3 
REMARK    2  A    between atoms: C_3  and  C_4 
REMARK    3  A    between atoms: C_4  and  C_5 
REMARK    4  A    between atoms: C_5  and  N_6 
REMARK       I    between atoms: N_6  and  C_7 
REMARK       I    between atoms: C_7  and  N_9 
REMARK    5  A    between atoms: N_9  and  N_10 
REMARK       I    between atoms: N_10  and  C_11 
REMARK    6  A    between atoms: C_11  and  C_13 
REMARK    7  A    between atoms: C_16  and  N_17 
ROOT
ATOM      1  N   UNL d   1      27.735 -14.734   1.576  0.00  0.00    -0.262 N 
ATOM      2  C   UNL d   1      27.401 -15.876   0.853  0.00  0.00     0.271 C 
ATOM      3  O   UNL d   1      27.405 -17.007   1.345  0.00  0.00    -0.266 OA
ATOM      4  H   UNL d   1      27.755 -13.799   1.170  0.00  0.00     0.190 HD
ENDROOT
BRANCH   1   5
ATOM      5  N   UNL d   1      28.190 -14.812   2.937  0.00  0.00    -0.249 N 
ATOM      6  C   UNL d   1      27.776 -13.839   3.840  0.00  0.00     0.334 C 
ATOM      7  N   UNL d   1      28.251 -13.992   5.130  0.00  0.00    -0.342 N 
ATOM      8  O   UNL d   1      27.032 -12.917   3.508  0.00  0.00    -0.246 OA
ATOM      9  H   UNL d   1      28.860 -14.766   5.353  0.00  0.00     0.164 HD
ATOM     10  H   UNL d   1      28.819 -15.575   3.166  0.00  0.00     0.192 HD
BRANCH   7  11
ATOM     11  C   UNL d   1      27.887 -13.051   6.196  0.00  0.00     0.124 C 
BRANCH  11  12
ATOM     12  C   UNL d   1      28.930 -12.933   7.319  0.00  0.00     0.020 C 
BRANCH  12  13
ATOM     13  C   UNL d   1      28.328 -12.358   8.612  0.00  0.00     0.001 C 
BRANCH  13  14
ATOM     14  C   UNL d   1      28.883 -13.054   9.859  0.00  0.00    -0.004 C 
ATOM     15  C   UNL d   1      27.784 -13.339  10.873  0.00  0.00     0.005 C 
ENDBRANCH  13  14
ENDBRANCH  12  13
ENDBRANCH  11  12
ENDBRANCH   7  11
ENDBRANCH   1   5
BRANCH   2  16
ATOM     16  C   UNL d   1      26.973 -15.705  -0.588  0.00  0.00     0.055 A 
ATOM     17  C   UNL d   1      27.659 -14.772  -1.401  0.00  0.00     0.021 A 
ATOM     18  C   UNL d   1      27.310 -14.574  -2.755  0.00  0.00     0.037 A 
ATOM     19  C   UNL d   1      26.250 -15.299  -3.308  0.00  0.00     0.104 A 
ATOM     20  C   UNL d   1      25.532 -16.195  -2.508  0.00  0.00     0.060 A 
ATOM     21  C   UNL d   1      25.887 -16.388  -1.158  0.00  0.00     0.052 A 
ATOM     22 CL   UNL d   1      24.878 -17.451  -0.244  0.00  0.00    -0.083 Cl
BRANCH  19  23
ATOM     23  N   UNL d   1      25.884 -15.125  -4.727  0.00  0.00    -0.116 N 
ATOM     24  O   UNL d   1      24.826 -14.534  -4.983  0.00  0.00    -0.532 OA
ATOM     25  O   UNL d   1      26.662 -15.575  -5.580  0.00  0.00    -0.532 OA
ENDBRANCH  19  23
ENDBRANCH   2  16
TORSDOF 7
ENDMDL
MODEL 5
REMARK VINA RESULT:    -6.241      5.100      6.335
REMARK INTER + INTRA:          -9.686
REMARK INTER:                  -8.329
REMARK INTRA:                  -1.357
REMARK CONF_INDEPENDENT:        2.088
REMARK UNBOUND:                -1.357
REMARK  7 active torsions:
REMARK  status: ('A' for Active; 'I' for Inactive)
REMARK    1  A    between atoms: C_2  and  C_3 
REMARK    2  A    between atoms: C_3  and  C_4 
REMARK    3  A    between atoms: C_4  and  C_5 
REMARK    4  A    between atoms: C_5  and  N_6 
REMARK       I    between atoms: N_6  and  C_7 
REMARK       I    between atoms: C_7  and  N_9 
REMARK    5  A    between atoms: N_9  and  N_10 
REMARK       I    between atoms: N_10  and  C_11 
REMARK    6  A    between atoms: C_11  and  C_13 
REMARK    7  A    between atoms: C_16  and  N_17 
ROOT
ATOM      1  N   UNL d   1      24.259 -16.224  -1.542  0.00  0.00    -0.262 N 
ATOM      2  C   UNL d   1      25.562 -15.906  -1.916  0.00  0.00     0.271 C 
ATOM      3  O   UNL d   1      26.514 -16.672  -1.748  0.00  0.00    -0.266 OA
ATOM      4  H   UNL d   1      23.471 -15.588  -1.658  0.00  0.00     0.190 HD
ENDROOT
BRANCH   1   5
ATOM      5  N   UNL d   1      23.951 -17.447  -0.854  0.00  0.00    -0.249 N 
ATOM      6  C   UNL d   1      22.622 -17.743  -0.572  0.00  0.00     0.334 C 
ATOM      7  N   UNL d   1      22.411 -18.942   0.084  0.00  0.00    -0.342 N 
ATOM      8  O   UNL d   1      21.704 -16.989  -0.896  0.00  0.00    -0.246 OA
ATOM      9  H   UNL d   1      23.198 -19.526   0.329  0.00  0.00     0.164 HD
ATOM     10  H   UNL d   1      24.737 -18.031  -0.585  0.00  0.00     0.192 HD
BRANCH   7  11
ATOM     11  C   UNL d   1      21.060 -19.396   0.434  0.00  0.00     0.124 C 
BRANCH  11  12
ATOM     12  C   UNL d   1      20.051 -19.333  -0.724  0.00  0.00     0.020 C 
BRANCH  12  13
ATOM     13  C   UNL d   1      18.745 -20.075  -0.397  0.00  0.00     0.001 C 
BRANCH  13  14
ATOM     14  C   UNL d   1      18.700 -20.532   1.065  0.00  0.00    -0.004 C 
ATOM     15  C   UNL d   1      17.656 -21.620   1.276  0.00  0.00     0.005 C 
ENDBRANCH  13  14
ENDBRANCH  12  13
ENDBRANCH  11  12
ENDBRANCH   7  11
ENDBRANCH   1   5
BRANCH   2  16
ATOM     16  C   UNL d   1      25.802 -14.578  -2.598  0.00  0.00     0.055 A 
ATOM     17  C   UNL d   1      25.431 -14.428  -3.956  0.00  0.00     0.021 A 
ATOM     18  C   UNL d   1      25.624 -13.210  -4.644  0.00  0.00     0.037 A 
ATOM     19  C   UNL d   1      26.211 -12.127  -3.983  0.00  0.00     0.104 A 
ATOM     20  C   UNL d   1      26.623 -12.269  -2.653  0.00  0.00     0.060 A 
ATOM     21  C   UNL d   1      26.427 -13.488  -1.971  0.00  0.00     0.052 A 
ATOM     22 CL   UNL d   1      27.053 -13.578  -0.364  0.00  0.00    -0.083 Cl
BRANCH  19  23
ATOM     23  N   UNL d   1      26.399 -10.839  -4.675  0.00  0.00    -0.116 N 
ATOM     24  O   UNL d   1      26.534 -10.858  -5.906  0.00  0.00    -0.532 OA
ATOM     25  O   UNL d   1      26.403  -9.810  -3.984  0.00  0.00    -0.532 OA
ENDBRANCH  19  23
ENDBRANCH   2  16
TORSDOF 7
ENDMDL
MODEL 6
REMARK VINA RESULT:    -6.090      5.837      8.767
REMARK INTER + INTRA:          -9.613
REMARK INTER:                  -8.178
REMARK INTRA:                  -1.435
REMARK CONF_INDEPENDENT:        2.088
REMARK UNBOUND:                -1.435
REMARK  7 active torsions:
REMARK  status: ('A' for Active; 'I' for Inactive)
REMARK    1  A    between atoms: C_2  and  C_3 
REMARK    2  A    between atoms: C_3  and  C_4 
REMARK    3  A    between atoms: C_4  and  C_5 
REMARK    4  A    between atoms: C_5  and  N_6 
REMARK       I    between atoms: N_6  and  C_7 
REMARK       I    between atoms: C_7  and  N_9 
REMARK    5  A    between atoms: N_9  and  N_10 
REMARK       I    between atoms: N_10  and  C_11 
REMARK    6  A    between atoms: C_11  and  C_13 
REMARK    7  A    between atoms: C_16  and  N_17 
ROOT
ATOM      1  N   UNL d   1      25.881 -15.741  -2.747  0.00  0.00    -0.262 N 
ATOM      2  C   UNL d   1      25.624 -15.895  -1.388  0.00  0.00     0.271 C 
ATOM      3  O   UNL d   1      26.280 -15.325  -0.512  0.00  0.00    -0.266 OA
ATOM      4  H   UNL d   1      25.356 -16.225  -3.475  0.00  0.00     0.190 HD
ENDROOT
BRANCH   1   5
ATOM      5  N   UNL d   1      26.992 -14.962  -3.219  0.00  0.00    -0.249 N 
ATOM      6  C   UNL d   1      27.260 -14.934  -4.583  0.00  0.00     0.334 C 
ATOM      7  N   UNL d   1      28.341 -14.154  -4.955  0.00  0.00    -0.342 N 
ATOM      8  O   UNL d   1      26.575 -15.554  -5.395  0.00  0.00    -0.246 OA
ATOM      9  H   UNL d   1      28.873 -13.664  -4.251  0.00  0.00     0.164 HD
ATOM     10  H   UNL d   1      27.545 -14.482  -2.517  0.00  0.00     0.192 HD
BRANCH   7  11
ATOM     11  C   UNL d   1      28.736 -14.015  -6.362  0.00  0.00     0.124 C 
BRANCH  11  12
ATOM     12  C   UNL d   1      29.684 -15.115  -6.865  0.00  0.00     0.020 C 
BRANCH  12  13
ATOM     13  C   UNL d   1      29.833 -16.260  -5.848  0.00  0.00     0.001 C 
BRANCH  13  14
ATOM     14  C   UNL d   1      30.970 -17.215  -6.227  0.00  0.00    -0.004 C 
ATOM     15  C   UNL d   1      30.619 -18.658  -5.895  0.00  0.00     0.005 C 
ENDBRANCH  13  14
ENDBRANCH  12  13
ENDBRANCH  11  12
ENDBRANCH   7  11
ENDBRANCH   1   5
BRANCH   2  16
ATOM     16  C   UNL d   1      24.458 -16.768  -0.978  0.00  0.00     0.055 A 
ATOM     17  C   UNL d   1      23.141 -16.323  -1.248  0.00  0.00     0.021 A 
ATOM     18  C   UNL d   1      22.014 -17.097  -0.896  0.00  0.00     0.037 A 
ATOM     19  C   UNL d   1      22.192 -18.324  -0.249  0.00  0.00     0.104 A 
ATOM     20  C   UNL d   1      23.484 -18.760   0.064  0.00  0.00     0.060 A 
ATOM     21  C   UNL d   1      24.606 -17.983  -0.291  0.00  0.00     0.052 A 
ATOM     22 CL   UNL d   1      26.144 -18.576   0.222  0.00  0.00    -0.083 Cl
BRANCH  19  23
ATOM     23  N   UNL d   1      21.029 -19.160   0.106  0.00  0.00    -0.116 N 
ATOM     24  O   UNL d   1      20.407 -19.706  -0.815  0.00  0.00    -0.532 OA
ATOM     25  O   UNL d   1      20.748 -19.272   1.308  0.00  0.00    -0.532 OA
ENDBRANCH  19  23
ENDBRANCH   2  16
TORSDOF 7
ENDMDL
MODEL 7
REMARK VINA RESULT:    -6.067      5.223      6.486
REMARK INTER + INTRA:          -9.570
REMARK INTER:                  -8.155
REMARK INTRA:                  -1.414
REMARK CONF_INDEPENDENT:        2.088
REMARK UNBOUND:                -1.414
REMARK  7 active torsions:
REMARK  status: ('A' for Active; 'I' for Inactive)
REMARK    1  A    between atoms: C_2  and  C_3 
REMARK    2  A    between atoms: C_3  and  C_4 
REMARK    3  A    between atoms: C_4  and  C_5 
REMARK    4  A    between atoms: C_5  and  N_6 
REMARK       I    between atoms: N_6  and  C_7 
REMARK       I    between atoms: C_7  and  N_9 
REMARK    5  A    between atoms: N_9  and  N_10 
REMARK       I    between atoms: N_10  and  C_11 
REMARK    6  A    between atoms: C_11  and  C_13 
REMARK    7  A    between atoms: C_16  and  N_17 
ROOT
ATOM      1  N   UNL d   1      24.506 -16.275  -1.606  0.00  0.00    -0.262 N 
ATOM      2  C   UNL d   1      25.839 -15.963  -1.861  0.00  0.00     0.271 C 
ATOM      3  O   UNL d   1      26.763 -16.755  -1.661  0.00  0.00    -0.266 OA
ATOM      4  H   UNL d   1      23.739 -15.618  -1.749  0.00  0.00     0.190 HD
ENDROOT
BRANCH   1   5
ATOM      5  N   UNL d   1      24.127 -17.525  -1.009  0.00  0.00    -0.249 N 
ATOM      6  C   UNL d   1      22.792 -17.737  -0.686  0.00  0.00     0.334 C 
ATOM      7  N   UNL d   1      22.510 -18.969  -0.123  0.00  0.00    -0.342 N 
ATOM      8  O   UNL d   1      21.927 -16.887  -0.897  0.00  0.00    -0.246 OA
ATOM      9  H   UNL d   1      23.254 -19.633   0.031  0.00  0.00     0.164 HD
ATOM     10  H   UNL d   1      24.872 -18.191  -0.831  0.00  0.00     0.192 HD
BRANCH   7  11
ATOM     11  C   UNL d   1      21.142 -19.343   0.255  0.00  0.00     0.124 C 
BRANCH  11  12
ATOM     12  C   UNL d   1      20.136 -19.325  -0.907  0.00  0.00     0.020 C 
BRANCH  12  13
ATOM     13  C   UNL d   1      18.785 -19.947  -0.515  0.00  0.00     0.001 C 
BRANCH  13  14
ATOM     14  C   UNL d   1      18.859 -20.664   0.837  0.00  0.00    -0.004 C 
ATOM     15  C   UNL d   1      17.670 -21.593   1.040  0.00  0.00     0.005 C 
ENDBRANCH  13  14
ENDBRANCH  12  13
ENDBRANCH  11  12
ENDBRANCH   7  11
ENDBRANCH   1   5
BRANCH   2  16
ATOM     16  C   UNL d   1      26.151 -14.606  -2.452  0.00  0.00     0.055 A 
ATOM     17  C   UNL d   1      26.324 -13.502  -1.582  0.00  0.00     0.021 A 
ATOM     18  C   UNL d   1      26.624 -12.214  -2.074  0.00  0.00     0.037 A 
ATOM     19  C   UNL d   1      26.737 -12.009  -3.452  0.00  0.00     0.104 A 
ATOM     20  C   UNL d   1      26.528 -13.078  -4.331  0.00  0.00     0.060 A 
ATOM     21  C   UNL d   1      26.229 -14.363  -3.832  0.00  0.00     0.052 A 
ATOM     22 CL   UNL d   1      25.905 -15.585  -5.008  0.00  0.00    -0.083 Cl
BRANCH  19  23
ATOM     23  N   UNL d   1      27.074 -10.676  -3.986  0.00  0.00    -0.116 N 
ATOM     24  O   UNL d   1      27.810  -9.949  -3.305  0.00  0.00    -0.532 OA
ATOM     25  O   UNL d   1      26.607 -10.365  -5.091  0.00  0.00    -0.532 OA
ENDBRANCH  19  23
ENDBRANCH   2  16
TORSDOF 7
ENDMDL
MODEL 8
REMARK VINA RESULT:    -5.888      6.578      7.841
REMARK INTER + INTRA:          -9.262
REMARK INTER:                  -7.976
REMARK INTRA:                  -1.287
REMARK CONF_INDEPENDENT:        2.088
REMARK UNBOUND:                -1.287
REMARK  7 active torsions:
REMARK  status: ('A' for Active; 'I' for Inactive)
REMARK    1  A    between atoms: C_2  and  C_3 
REMARK    2  A    between atoms: C_3  and  C_4 
REMARK    3  A    between atoms: C_4  and  C_5 
REMARK    4  A    between atoms: C_5  and  N_6 
REMARK       I    between atoms: N_6  and  C_7 
REMARK       I    between atoms: C_7  and  N_9 
REMARK    5  A    between atoms: N_9  and  N_10 
REMARK       I    between atoms: N_10  and  C_11 
REMARK    6  A    between atoms: C_11  and  C_13 
REMARK    7  A    between atoms: C_16  and  N_17 
ROOT
ATOM      1  N   UNL d   1      25.267 -15.193  -2.794  0.00  0.00    -0.262 N 
ATOM      2  C   UNL d   1      25.155 -14.384  -3.921  0.00  0.00     0.271 C 
ATOM      3  O   UNL d   1      24.093 -13.862  -4.270  0.00  0.00    -0.266 OA
ATOM      4  H   UNL d   1      26.137 -15.644  -2.512  0.00  0.00     0.190 HD
ENDROOT
BRANCH   1   5
ATOM      5  N   UNL d   1      24.121 -15.541  -2.001  0.00  0.00    -0.249 N 
ATOM      6  C   UNL d   1      24.133 -16.737  -1.294  0.00  0.00     0.334 C 
ATOM      7  N   UNL d   1      22.995 -16.993  -0.549  0.00  0.00    -0.342 N 
ATOM      8  O   UNL d   1      25.095 -17.505  -1.326  0.00  0.00    -0.246 OA
ATOM      9  H   UNL d   1      22.232 -16.333  -0.555  0.00  0.00     0.164 HD
ATOM     10  H   UNL d   1      23.340 -14.893  -2.017  0.00  0.00     0.192 HD
BRANCH   7  11
ATOM     11  C   UNL d   1      22.869 -18.210   0.262  0.00  0.00     0.124 C 
BRANCH  11  12
ATOM     12  C   UNL d   1      22.037 -19.324  -0.394  0.00  0.00     0.020 C 
BRANCH  12  13
ATOM     13  C   UNL d   1      20.685 -18.807  -0.916  0.00  0.00     0.001 C 
BRANCH  13  14
ATOM     14  C   UNL d   1      19.510 -19.365  -0.106  0.00  0.00    -0.004 C 
ATOM     15  C   UNL d   1      19.887 -20.658   0.603  0.00  0.00     0.005 C 
ENDBRANCH  13  14
ENDBRANCH  12  13
ENDBRANCH  11  12
ENDBRANCH   7  11
ENDBRANCH   1   5
BRANCH   2  16
ATOM     16  C   UNL d   1      26.407 -14.103  -4.723  0.00  0.00     0.055 A 
ATOM     17  C   UNL d   1      27.155 -15.192  -5.230  0.00  0.00     0.021 A 
ATOM     18  C   UNL d   1      28.328 -14.993  -5.991  0.00  0.00     0.037 A 
ATOM     19  C   UNL d   1      28.779 -13.692  -6.238  0.00  0.00     0.104 A 
ATOM     20  C   UNL d   1      28.076 -12.604  -5.709  0.00  0.00     0.060 A 
ATOM     21  C   UNL d   1      26.906 -12.811  -4.951  0.00  0.00     0.052 A 
ATOM     22 CL   UNL d   1      26.171 -11.401  -4.276  0.00  0.00    -0.083 Cl
BRANCH  19  23
ATOM     23  N   UNL d   1      29.988 -13.461  -7.051  0.00  0.00    -0.116 N 
ATOM     24  O   UNL d   1      30.876 -14.324  -7.026  0.00  0.00    -0.532 OA
ATOM     25  O   UNL d   1      30.039 -12.418  -7.720  0.00  0.00    -0.532 OA
ENDBRANCH  19  23
ENDBRANCH   2  16
TORSDOF 7
ENDMDL
MODEL 9
REMARK VINA RESULT:    -5.755      5.642      8.703
REMARK INTER + INTRA:          -9.486
REMARK INTER:                  -7.843
REMARK INTRA:                  -1.643
REMARK CONF_INDEPENDENT:        2.088
REMARK UNBOUND:                -1.643
REMARK  7 active torsions:
REMARK  status: ('A' for Active; 'I' for Inactive)
REMARK    1  A    between atoms: C_2  and  C_3 
REMARK    2  A    between atoms: C_3  and  C_4 
REMARK    3  A    between atoms: C_4  and  C_5 
REMARK    4  A    between atoms: C_5  and  N_6 
REMARK       I    between atoms: N_6  and  C_7 
REMARK       I    between atoms: C_7  and  N_9 
REMARK    5  A    between atoms: N_9  and  N_10 
REMARK       I    between atoms: N_10  and  C_11 
REMARK    6  A    between atoms: C_11  and  C_13 
REMARK    7  A    between atoms: C_16  and  N_17 
ROOT
ATOM      1  N   UNL d   1      25.938 -15.800  -2.555  0.00  0.00    -0.262 N 
ATOM      2  C   UNL d   1      25.477 -15.819  -1.241  0.00  0.00     0.271 C 
ATOM      3  O   UNL d   1      25.945 -15.099  -0.355  0.00  0.00    -0.266 OA
ATOM      4  H   UNL d   1      25.569 -16.407  -3.286  0.00  0.00     0.190 HD
ENDROOT
BRANCH   1   5
ATOM      5  N   UNL d   1      27.057 -14.990  -2.948  0.00  0.00    -0.249 N 
ATOM      6  C   UNL d   1      27.375 -14.894  -4.297  0.00  0.00     0.334 C 
ATOM      7  N   UNL d   1      28.459 -14.088  -4.592  0.00  0.00    -0.342 N 
ATOM      8  O   UNL d   1      26.726 -15.481  -5.163  0.00  0.00    -0.246 OA
ATOM      9  H   UNL d   1      28.961 -13.628  -3.846  0.00  0.00     0.164 HD
ATOM     10  H   UNL d   1      27.579 -14.540  -2.203  0.00  0.00     0.192 HD
BRANCH   7  11
ATOM     11  C   UNL d   1      28.904 -13.878  -5.975  0.00  0.00     0.124 C 
BRANCH  11  12
ATOM     12  C   UNL d   1      28.046 -12.881  -6.771  0.00  0.00     0.020 C 
BRANCH  12  13
ATOM     13  C   UNL d   1      27.546 -11.719  -5.896  0.00  0.00     0.001 C 
BRANCH  13  14
ATOM     14  C   UNL d   1      26.097 -11.929  -5.442  0.00  0.00    -0.004 C 
ATOM     15  C   UNL d   1      25.972 -11.854  -3.927  0.00  0.00     0.005 C 
ENDBRANCH  13  14
ENDBRANCH  12  13
ENDBRANCH  11  12
ENDBRANCH   7  11
ENDBRANCH   1   5
BRANCH   2  16
ATOM     16  C   UNL d   1      24.319 -16.734  -0.906  0.00  0.00     0.055 A 
ATOM     17  C   UNL d   1      23.000 -16.299  -1.179  0.00  0.00     0.021 A 
ATOM     18  C   UNL d   1      21.881 -17.112  -0.895  0.00  0.00     0.037 A 
ATOM     19  C   UNL d   1      22.069 -18.369  -0.313  0.00  0.00     0.104 A 
ATOM     20  C   UNL d   1      23.363 -18.799   0.004  0.00  0.00     0.060 A 
ATOM     21  C   UNL d   1      24.476 -17.982  -0.283  0.00  0.00     0.052 A 
ATOM     22 CL   UNL d   1      26.015 -18.575   0.230  0.00  0.00    -0.083 Cl
BRANCH  19  23
ATOM     23  N   UNL d   1      20.916 -19.244  -0.030  0.00  0.00    -0.116 N 
ATOM     24  O   UNL d   1      20.637 -19.469   1.155  0.00  0.00    -0.532 OA
ATOM     25  O   UNL d   1      20.286 -19.696  -0.998  0.00  0.00    -0.532 OA
ENDBRANCH  19  23
ENDBRANCH   2  16
TORSDOF 7
ENDMDL
