MODEL 1
REMARK VINA RESULT:    -8.236      0.000      0.000
REMARK INTER + INTRA:         -12.824
REMARK INTER:                 -11.815
REMARK INTRA:                  -1.009
REMARK CONF_INDEPENDENT:        3.580
REMARK UNBOUND:                -1.009
REMARK  12 active torsions:
REMARK  status: ('A' for Active; 'I' for Inactive)
REMARK    1  A    between atoms: C_2  and  C_3 
REMARK    2  A    between atoms: C_3  and  C_4 
REMARK    3  A    between atoms: C_6  and  C_7 
REMARK    4  A    between atoms: N_8  and  N_9 
REMARK       I    between atoms: N_9  and  C_10 
REMARK    5  A    between atoms: C_10  and  C_12 
REMARK    6  A    between atoms: C_12  and  C_13 
REMARK    7  A    between atoms: C_13  and  C_14 
REMARK    8  A    between atoms: C_14  and  O_15 
REMARK    9  A    between atoms: C_14  and  C_16 
REMARK   10  A    between atoms: C_19  and  O_20 
REMARK   11  A    between atoms: O_20  and  C_21 
REMARK   12  A    between atoms: C_27  and  O_28 
ROOT
ATOM      1  N   UNL d   1      27.305 -14.585  -4.056  0.00  0.00    -0.247 N 
ATOM      2  C   UNL d   1      26.144 -14.833  -3.384  0.00  0.00     0.237 C 
ATOM      3  O   UNL d   1      25.015 -14.824  -3.874  0.00  0.00    -0.272 OA
ATOM      4  H   UNL d   1      28.097 -14.736  -3.498  0.00  0.00     0.192 HD
ENDROOT
BRANCH   2   5
ATOM      5  C   UNL d   1      26.436 -15.129  -1.900  0.00  0.00     0.107 C 
BRANCH   5   6
ATOM      6  C   UNL d   1      26.688 -16.609  -1.783  0.00  0.00     0.046 C 
BRANCH   6   7
ATOM      7  C   UNL d   1      26.163 -17.295  -0.528  0.00  0.00     0.151 C 
BRANCH   7   8
ATOM      8  O   UNL d   1      26.476 -16.486   0.603  0.00  0.00    -0.391 OA
ATOM      9  H   UNL d   1      27.432 -16.303   0.561  0.00  0.00     0.210 HD
ENDBRANCH   7   8
BRANCH   7  10
ATOM     10  C   UNL d   1      24.662 -17.509  -0.610  0.00  0.00    -0.029 A 
ATOM     11  C   UNL d   1      23.813 -16.418  -0.817  0.00  0.00     0.012 A 
ATOM     12  C   UNL d   1      22.429 -16.604  -0.895  0.00  0.00     0.037 A 
ATOM     13  C   UNL d   1      21.875 -17.880  -0.767  0.00  0.00     0.068 A 
ATOM     14  C   UNL d   1      22.708 -18.966  -0.543  0.00  0.00     0.037 A 
ATOM     15  C   UNL d   1      24.082 -18.783  -0.466  0.00  0.00     0.012 A 
BRANCH  13  16
ATOM     16  O   UNL d   1      20.551 -18.200  -0.843  0.00  0.00    -0.352 OA
BRANCH  16  17
ATOM     17  C   UNL d   1      20.251 -19.580  -1.007  0.00  0.00     0.171 C 
ATOM     18  C   UNL d   1      18.893 -19.830  -0.387  0.00  0.00     0.034 C 
ENDBRANCH  16  17
ENDBRANCH  13  16
ENDBRANCH   7  10
ENDBRANCH   6   7
ENDBRANCH   5   6
ENDBRANCH   2   5
BRANCH   1  19
ATOM     19  N   UNL d   1      27.442 -14.290  -5.364  0.00  0.00    -0.184 NA
ATOM     20  C   UNL d   1      27.146 -13.089  -5.794  0.00  0.00     0.150 C 
BRANCH  20  21
ATOM     21  C   UNL d   1      26.635 -11.866  -5.082  0.00  0.00    -0.016 A 
ATOM     22  C   UNL d   1      26.112 -10.816  -5.843  0.00  0.00     0.023 A 
ATOM     23  C   UNL d   1      25.571  -9.662  -5.212  0.00  0.00    -0.021 A 
ATOM     24  C   UNL d   1      25.650  -9.534  -3.821  0.00  0.00     0.072 A 
ATOM     25  C   UNL d   1      26.168 -10.548  -3.067  0.00  0.00     0.038 A 
ATOM     26  C   UNL d   1      26.620 -11.691  -3.696  0.00  0.00     0.015 A 
BRANCH  23  27
ATOM     27  C   UNL d   1      24.938  -8.539  -5.991  0.00  0.00     0.067 C 
BRANCH  27  28
ATOM     28  C   UNL d   1      23.487  -8.324  -5.683  0.00  0.00    -0.032 C 
ATOM     29  C   UNL d   1      22.953  -7.108  -5.544  0.00  0.00     0.007 C 
ENDBRANCH  27  28
ENDBRANCH  23  27
BRANCH  24  30
ATOM     30  O   UNL d   1      25.209  -8.413  -3.187  0.00  0.00    -0.360 OA
ATOM     31  H   UNL d   1      24.311  -8.213  -3.501  0.00  0.00     0.217 HD
ENDBRANCH  24  30
ENDBRANCH  20  21
ENDBRANCH   1  19
TORSDOF 12
ENDMDL
MODEL 2
REMARK VINA RESULT:    -7.707      3.465      4.400
REMARK INTER + INTRA:         -13.431
REMARK INTER:                 -11.286
REMARK INTRA:                  -2.145
REMARK CONF_INDEPENDENT:        3.580
REMARK UNBOUND:                -2.145
REMARK  12 active torsions:
REMARK  status: ('A' for Active; 'I' for Inactive)
REMARK    1  A    between atoms: C_2  and  C_3 
REMARK    2  A    between atoms: C_3  and  C_4 
REMARK    3  A    between atoms: C_6  and  C_7 
REMARK    4  A    between atoms: N_8  and  N_9 
REMARK       I    between atoms: N_9  and  C_10 
REMARK    5  A    between atoms: C_10  and  C_12 
REMARK    6  A    between atoms: C_12  and  C_13 
REMARK    7  A    between atoms: C_13  and  C_14 
REMARK    8  A    between atoms: C_14  and  O_15 
REMARK    9  A    between atoms: C_14  and  C_16 
REMARK   10  A    between atoms: C_19  and  O_20 
REMARK   11  A    between atoms: O_20  and  C_21 
REMARK   12  A    between atoms: C_27  and  O_28 
ROOT
ATOM      1  N   UNL d   1      29.016 -15.996   0.016  0.00  0.00    -0.247 N 
ATOM      2  C   UNL d   1      28.693 -16.987  -0.863  0.00  0.00     0.237 C 
ATOM      3  O   UNL d   1      28.951 -16.991  -2.066  0.00  0.00    -0.272 OA
ATOM      4  H   UNL d   1      28.801 -16.236   0.943  0.00  0.00     0.192 HD
ENDROOT
BRANCH   2   5
ATOM      5  C   UNL d   1      27.945 -18.124  -0.139  0.00  0.00     0.107 C 
BRANCH   5   6
ATOM      6  C   UNL d   1      26.630 -17.561   0.333  0.00  0.00     0.046 C 
BRANCH   6   7
ATOM      7  C   UNL d   1      25.765 -16.874  -0.716  0.00  0.00     0.151 C 
BRANCH   7   8
ATOM      8  O   UNL d   1      26.356 -17.067  -1.998  0.00  0.00    -0.391 OA
ATOM      9  H   UNL d   1      26.974 -17.815  -1.912  0.00  0.00     0.210 HD
ENDBRANCH   7   8
BRANCH   7  10
ATOM     10  C   UNL d   1      24.352 -17.430  -0.709  0.00  0.00    -0.029 A 
ATOM     11  C   UNL d   1      24.143 -18.800  -0.522  0.00  0.00     0.012 A 
ATOM     12  C   UNL d   1      22.846 -19.323  -0.514  0.00  0.00     0.037 A 
ATOM     13  C   UNL d   1      21.742 -18.487  -0.692  0.00  0.00     0.068 A 
ATOM     14  C   UNL d   1      21.940 -17.130  -0.897  0.00  0.00     0.037 A 
ATOM     15  C   UNL d   1      23.227 -16.608  -0.905  0.00  0.00     0.012 A 
BRANCH  13  16
ATOM     16  O   UNL d   1      20.431 -18.864  -0.686  0.00  0.00    -0.352 OA
BRANCH  16  17
ATOM     17  C   UNL d   1      20.119 -20.024   0.073  0.00  0.00     0.171 C 
ATOM     18  C   UNL d   1      18.788 -19.783   0.754  0.00  0.00     0.034 C 
ENDBRANCH  16  17
ENDBRANCH  13  16
ENDBRANCH   7  10
ENDBRANCH   6   7
ENDBRANCH   5   6
ENDBRANCH   2   5
BRANCH   1  19
ATOM     19  N   UNL d   1      29.670 -14.849  -0.253  0.00  0.00    -0.184 NA
ATOM     20  C   UNL d   1      29.173 -14.004  -1.122  0.00  0.00     0.150 C 
BRANCH  20  21
ATOM     21  C   UNL d   1      27.925 -14.048  -1.961  0.00  0.00    -0.016 A 
ATOM     22  C   UNL d   1      28.019 -14.500  -3.281  0.00  0.00     0.023 A 
ATOM     23  C   UNL d   1      26.858 -14.606  -4.095  0.00  0.00    -0.021 A 
ATOM     24  C   UNL d   1      25.626 -14.163  -3.604  0.00  0.00     0.072 A 
ATOM     25  C   UNL d   1      25.522 -13.710  -2.320  0.00  0.00     0.038 A 
ATOM     26  C   UNL d   1      26.649 -13.685  -1.522  0.00  0.00     0.015 A 
BRANCH  23  27
ATOM     27  C   UNL d   1      26.906 -15.150  -5.500  0.00  0.00     0.067 C 
BRANCH  27  28
ATOM     28  C   UNL d   1      28.169 -14.822  -6.238  0.00  0.00    -0.032 C 
ATOM     29  C   UNL d   1      29.290 -15.534  -6.097  0.00  0.00     0.007 C 
ENDBRANCH  27  28
ENDBRANCH  23  27
BRANCH  24  30
ATOM     30  O   UNL d   1      24.506 -14.180  -4.378  0.00  0.00    -0.360 OA
ATOM     31  H   UNL d   1      24.574 -13.466  -5.036  0.00  0.00     0.217 HD
ENDBRANCH  24  30
ENDBRANCH  20  21
ENDBRANCH   1  19
TORSDOF 12
ENDMDL
MODEL 3
REMARK VINA RESULT:    -7.630      2.847      4.639
REMARK INTER + INTRA:         -12.919
REMARK INTER:                 -11.209
REMARK INTRA:                  -1.709
REMARK CONF_INDEPENDENT:        3.580
REMARK UNBOUND:                -1.709
REMARK  12 active torsions:
REMARK  status: ('A' for Active; 'I' for Inactive)
REMARK    1  A    between atoms: C_2  and  C_3 
REMARK    2  A    between atoms: C_3  and  C_4 
REMARK    3  A    between atoms: C_6  and  C_7 
REMARK    4  A    between atoms: N_8  and  N_9 
REMARK       I    between atoms: N_9  and  C_10 
REMARK    5  A    between atoms: C_10  and  C_12 
REMARK    6  A    between atoms: C_12  and  C_13 
REMARK    7  A    between atoms: C_13  and  C_14 
REMARK    8  A    between atoms: C_14  and  O_15 
REMARK    9  A    between atoms: C_14  and  C_16 
REMARK   10  A    between atoms: C_19  and  O_20 
REMARK   11  A    between atoms: O_20  and  C_21 
REMARK   12  A    between atoms: C_27  and  O_28 
ROOT
ATOM      1  N   UNL d   1      26.097 -15.376  -2.930  0.00  0.00    -0.247 N 
ATOM      2  C   UNL d   1      26.888 -15.082  -1.859  0.00  0.00     0.237 C 
ATOM      3  O   UNL d   1      26.868 -14.031  -1.220  0.00  0.00    -0.272 OA
ATOM      4  H   UNL d   1      26.210 -16.303  -3.232  0.00  0.00     0.192 HD
ENDROOT
BRANCH   2   5
ATOM      5  C   UNL d   1      27.832 -16.260  -1.548  0.00  0.00     0.107 C 
BRANCH   5   6
ATOM      6  C   UNL d   1      26.968 -17.442  -1.195  0.00  0.00     0.046 C 
BRANCH   6   7
ATOM      7  C   UNL d   1      26.104 -17.308   0.052  0.00  0.00     0.151 C 
BRANCH   7   8
ATOM      8  O   UNL d   1      26.310 -16.016   0.618  0.00  0.00    -0.391 OA
ATOM      9  H   UNL d   1      27.121 -15.659   0.213  0.00  0.00     0.210 HD
ENDBRANCH   7   8
BRANCH   7  10
ATOM     10  C   UNL d   1      24.634 -17.499  -0.278  0.00  0.00    -0.029 A 
ATOM     11  C   UNL d   1      23.836 -16.389  -0.573  0.00  0.00     0.012 A 
ATOM     12  C   UNL d   1      22.481 -16.553  -0.879  0.00  0.00     0.037 A 
ATOM     13  C   UNL d   1      21.906 -17.826  -0.895  0.00  0.00     0.068 A 
ATOM     14  C   UNL d   1      22.685 -18.931  -0.586  0.00  0.00     0.037 A 
ATOM     15  C   UNL d   1      24.030 -18.770  -0.282  0.00  0.00     0.012 A 
BRANCH  13  16
ATOM     16  O   UNL d   1      20.609 -18.125  -1.195  0.00  0.00    -0.352 OA
BRANCH  16  17
ATOM     17  C   UNL d   1      20.183 -19.444  -0.878  0.00  0.00     0.171 C 
ATOM     18  C   UNL d   1      19.645 -19.424   0.536  0.00  0.00     0.034 C 
ENDBRANCH  16  17
ENDBRANCH  13  16
ENDBRANCH   7  10
ENDBRANCH   6   7
ENDBRANCH   5   6
ENDBRANCH   2   5
BRANCH   1  19
ATOM     19  N   UNL d   1      25.155 -14.592  -3.488  0.00  0.00    -0.184 NA
ATOM     20  C   UNL d   1      25.436 -13.903  -4.566  0.00  0.00     0.150 C 
BRANCH  20  21
ATOM     21  C   UNL d   1      26.695 -13.785  -5.381  0.00  0.00    -0.016 A 
ATOM     22  C   UNL d   1      27.580 -14.868  -5.410  0.00  0.00     0.023 A 
ATOM     23  C   UNL d   1      28.757 -14.821  -6.206  0.00  0.00    -0.021 A 
ATOM     24  C   UNL d   1      29.083 -13.646  -6.890  0.00  0.00     0.072 A 
ATOM     25  C   UNL d   1      28.232 -12.577  -6.862  0.00  0.00     0.038 A 
ATOM     26  C   UNL d   1      27.058 -12.671  -6.142  0.00  0.00     0.015 A 
BRANCH  23  27
ATOM     27  C   UNL d   1      29.701 -15.990  -6.318  0.00  0.00     0.067 C 
BRANCH  27  28
ATOM     28  C   UNL d   1      29.852 -16.775  -5.049  0.00  0.00    -0.032 C 
ATOM     29  C   UNL d   1      30.398 -17.993  -5.018  0.00  0.00     0.007 C 
ENDBRANCH  27  28
ENDBRANCH  23  27
BRANCH  24  30
ATOM     30  O   UNL d   1      30.237 -13.537  -7.603  0.00  0.00    -0.360 OA
ATOM     31  H   UNL d   1      30.037 -13.694  -8.542  0.00  0.00     0.217 HD
ENDBRANCH  24  30
ENDBRANCH  20  21
ENDBRANCH   1  19
TORSDOF 12
ENDMDL
MODEL 4
REMARK VINA RESULT:    -7.564      1.873      8.552
REMARK INTER + INTRA:         -12.785
REMARK INTER:                 -11.144
REMARK INTRA:                  -1.641
REMARK CONF_INDEPENDENT:        3.580
REMARK UNBOUND:                -1.641
REMARK  12 active torsions:
REMARK  status: ('A' for Active; 'I' for Inactive)
REMARK    1  A    between atoms: C_2  and  C_3 
REMARK    2  A    between atoms: C_3  and  C_4 
REMARK    3  A    between atoms: C_6  and  C_7 
REMARK    4  A    between atoms: N_8  and  N_9 
REMARK       I    between atoms: N_9  and  C_10 
REMARK    5  A    between atoms: C_10  and  C_12 
REMARK    6  A    between atoms: C_12  and  C_13 
REMARK    7  A    between atoms: C_13  and  C_14 
REMARK    8  A    between atoms: C_14  and  O_15 
REMARK    9  A    between atoms: C_14  and  C_16 
REMARK   10  A    between atoms: C_19  and  O_20 
REMARK   11  A    between atoms: O_20  and  C_21 
REMARK   12  A    between atoms: C_27  and  O_28 
ROOT
ATOM      1  N   UNL d   1      26.230 -14.278  -4.136  0.00  0.00    -0.247 N 
ATOM      2  C   UNL d   1      26.643 -15.198  -5.054  0.00  0.00     0.237 C 
ATOM      3  O   UNL d   1      25.907 -15.913  -5.733  0.00  0.00    -0.272 OA
ATOM      4  H   UNL d   1      26.976 -13.751  -3.776  0.00  0.00     0.192 HD
ENDROOT
BRANCH   2   5
ATOM      5  C   UNL d   1      28.182 -15.228  -5.130  0.00  0.00     0.107 C 
BRANCH   5   6
ATOM      6  C   UNL d   1      28.571 -14.696  -6.484  0.00  0.00     0.046 C 
BRANCH   6   7
ATOM      7  C   UNL d   1      29.051 -13.251  -6.538  0.00  0.00     0.151 C 
BRANCH   7   8
ATOM      8  O   UNL d   1      29.235 -12.878  -7.901  0.00  0.00    -0.391 OA
ATOM      9  H   UNL d   1      29.396 -13.700  -8.397  0.00  0.00     0.210 HD
ENDBRANCH   7   8
BRANCH   7  10
ATOM     10  C   UNL d   1      28.051 -12.318  -5.877  0.00  0.00    -0.029 A 
ATOM     11  C   UNL d   1      26.968 -11.825  -6.611  0.00  0.00     0.012 A 
ATOM     12  C   UNL d   1      26.041 -10.966  -6.013  0.00  0.00     0.037 A 
ATOM     13  C   UNL d   1      26.182 -10.588  -4.676  0.00  0.00     0.068 A 
ATOM     14  C   UNL d   1      27.264 -11.057  -3.945  0.00  0.00     0.037 A 
ATOM     15  C   UNL d   1      28.185 -11.910  -4.537  0.00  0.00     0.012 A 
BRANCH  13  16
ATOM     16  O   UNL d   1      25.343  -9.776  -3.970  0.00  0.00    -0.352 OA
BRANCH  16  17
ATOM     17  C   UNL d   1      25.315  -8.411  -4.366  0.00  0.00     0.171 C 
ATOM     18  C   UNL d   1      24.024  -8.180  -5.120  0.00  0.00     0.034 C 
ENDBRANCH  16  17
ENDBRANCH  13  16
ENDBRANCH   7  10
ENDBRANCH   6   7
ENDBRANCH   5   6
ENDBRANCH   2   5
BRANCH   1  19
ATOM     19  N   UNL d   1      24.961 -13.974  -3.799  0.00  0.00    -0.184 NA
ATOM     20  C   UNL d   1      24.397 -14.574  -2.781  0.00  0.00     0.150 C 
BRANCH  20  21
ATOM     21  C   UNL d   1      24.902 -15.624  -1.829  0.00  0.00    -0.016 A 
ATOM     22  C   UNL d   1      24.027 -16.633  -1.417  0.00  0.00     0.023 A 
ATOM     23  C   UNL d   1      24.475 -17.675  -0.559  0.00  0.00    -0.021 A 
ATOM     24  C   UNL d   1      25.775 -17.637  -0.044  0.00  0.00     0.072 A 
ATOM     25  C   UNL d   1      26.637 -16.650  -0.431  0.00  0.00     0.038 A 
ATOM     26  C   UNL d   1      26.203 -15.690  -1.324  0.00  0.00     0.015 A 
BRANCH  23  27
ATOM     27  C   UNL d   1      23.584 -18.817  -0.145  0.00  0.00     0.067 C 
BRANCH  27  28
ATOM     28  C   UNL d   1      22.144 -18.635  -0.523  0.00  0.00    -0.032 C 
ATOM     29  C   UNL d   1      21.157 -19.333   0.045  0.00  0.00     0.007 C 
ENDBRANCH  27  28
ENDBRANCH  23  27
BRANCH  24  30
ATOM     30  O   UNL d   1      26.217 -18.575   0.837  0.00  0.00    -0.360 OA
ATOM     31  H   UNL d   1      27.182 -18.490   0.922  0.00  0.00     0.217 HD
ENDBRANCH  24  30
ENDBRANCH  20  21
ENDBRANCH   1  19
TORSDOF 12
ENDMDL
MODEL 5
REMARK VINA RESULT:    -7.520      2.276      3.299
REMARK INTER + INTRA:         -13.565
REMARK INTER:                 -11.099
REMARK INTRA:                  -2.466
REMARK CONF_INDEPENDENT:        3.580
REMARK UNBOUND:                -2.466
REMARK  12 active torsions:
REMARK  status: ('A' for Active; 'I' for Inactive)
REMARK    1  A    between atoms: C_2  and  C_3 
REMARK    2  A    between atoms: C_3  and  C_4 
REMARK    3  A    between atoms: C_6  and  C_7 
REMARK    4  A    between atoms: N_8  and  N_9 
REMARK       I    between atoms: N_9  and  C_10 
REMARK    5  A    between atoms: C_10  and  C_12 
REMARK    6  A    between atoms: C_12  and  C_13 
REMARK    7  A    between atoms: C_13  and  C_14 
REMARK    8  A    between atoms: C_14  and  O_15 
REMARK    9  A    between atoms: C_14  and  C_16 
REMARK   10  A    between atoms: C_19  and  O_20 
REMARK   11  A    between atoms: O_20  and  C_21 
REMARK   12  A    between atoms: C_27  and  O_28 
ROOT
ATOM      1  N   UNL d   1      29.377 -16.207  -1.667  0.00  0.00    -0.247 N 
ATOM      2  C   UNL d   1      28.573 -15.618  -0.736  0.00  0.00     0.237 C 
ATOM      3  O   UNL d   1      28.337 -14.413  -0.652  0.00  0.00    -0.272 OA
ATOM      4  H   UNL d   1      29.353 -17.187  -1.612  0.00  0.00     0.192 HD
ENDROOT
BRANCH   2   5
ATOM      5  C   UNL d   1      27.989 -16.678   0.218  0.00  0.00     0.107 C 
BRANCH   5   6
ATOM      6  C   UNL d   1      26.716 -17.186  -0.407  0.00  0.00     0.046 C 
BRANCH   6   7
ATOM      7  C   UNL d   1      25.455 -16.374  -0.145  0.00  0.00     0.151 C 
BRANCH   7   8
ATOM      8  O   UNL d   1      25.485 -15.202  -0.956  0.00  0.00    -0.391 OA
ATOM      9  H   UNL d   1      26.357 -14.789  -0.818  0.00  0.00     0.210 HD
ENDBRANCH   7   8
BRANCH   7  10
ATOM     10  C   UNL d   1      24.209 -17.184  -0.456  0.00  0.00    -0.029 A 
ATOM     11  C   UNL d   1      24.300 -18.570  -0.615  0.00  0.00     0.012 A 
ATOM     12  C   UNL d   1      23.159 -19.326  -0.901  0.00  0.00     0.037 A 
ATOM     13  C   UNL d   1      21.913 -18.710  -1.032  0.00  0.00     0.068 A 
ATOM     14  C   UNL d   1      21.814 -17.333  -0.894  0.00  0.00     0.037 A 
ATOM     15  C   UNL d   1      22.946 -16.581  -0.610  0.00  0.00     0.012 A 
BRANCH  13  16
ATOM     16  O   UNL d   1      20.724 -19.330  -1.289  0.00  0.00    -0.352 OA
BRANCH  16  17
ATOM     17  C   UNL d   1      19.635 -18.960  -0.454  0.00  0.00     0.171 C 
ATOM     18  C   UNL d   1      19.689 -19.832   0.783  0.00  0.00     0.034 C 
ENDBRANCH  16  17
ENDBRANCH  13  16
ENDBRANCH   7  10
ENDBRANCH   6   7
ENDBRANCH   5   6
ENDBRANCH   2   5
BRANCH   1  19
ATOM     19  N   UNL d   1      30.057 -15.600  -2.659  0.00  0.00    -0.184 NA
ATOM     20  C   UNL d   1      29.410 -14.901  -3.558  0.00  0.00     0.150 C 
BRANCH  20  21
ATOM     21  C   UNL d   1      27.944 -14.611  -3.739  0.00  0.00    -0.016 A 
ATOM     22  C   UNL d   1      27.539 -13.285  -3.915  0.00  0.00     0.023 A 
ATOM     23  C   UNL d   1      26.171 -12.968  -4.141  0.00  0.00    -0.021 A 
ATOM     24  C   UNL d   1      25.209 -13.982  -4.089  0.00  0.00     0.072 A 
ATOM     25  C   UNL d   1      25.591 -15.281  -3.907  0.00  0.00     0.038 A 
ATOM     26  C   UNL d   1      26.932 -15.574  -3.765  0.00  0.00     0.015 A 
BRANCH  23  27
ATOM     27  C   UNL d   1      25.702 -11.560  -4.402  0.00  0.00     0.067 C 
BRANCH  27  28
ATOM     28  C   UNL d   1      26.521 -10.823  -5.418  0.00  0.00    -0.032 C 
ATOM     29  C   UNL d   1      26.397 -11.032  -6.731  0.00  0.00     0.007 C 
ENDBRANCH  27  28
ENDBRANCH  23  27
BRANCH  24  30
ATOM     30  O   UNL d   1      23.883 -13.709  -4.227  0.00  0.00    -0.360 OA
ATOM     31  H   UNL d   1      23.761 -13.158  -5.020  0.00  0.00     0.217 HD
ENDBRANCH  24  30
ENDBRANCH  20  21
ENDBRANCH   1  19
TORSDOF 12
ENDMDL
MODEL 6
REMARK VINA RESULT:    -7.137      3.262      4.666
REMARK INTER + INTRA:         -12.946
REMARK INTER:                 -10.716
REMARK INTRA:                  -2.230
REMARK CONF_INDEPENDENT:        3.580
REMARK UNBOUND:                -2.230
REMARK  12 active torsions:
REMARK  status: ('A' for Active; 'I' for Inactive)
REMARK    1  A    between atoms: C_2  and  C_3 
REMARK    2  A    between atoms: C_3  and  C_4 
REMARK    3  A    between atoms: C_6  and  C_7 
REMARK    4  A    between atoms: N_8  and  N_9 
REMARK       I    between atoms: N_9  and  C_10 
REMARK    5  A    between atoms: C_10  and  C_12 
REMARK    6  A    between atoms: C_12  and  C_13 
REMARK    7  A    between atoms: C_13  and  C_14 
REMARK    8  A    between atoms: C_14  and  O_15 
REMARK    9  A    between atoms: C_14  and  C_16 
REMARK   10  A    between atoms: C_19  and  O_20 
REMARK   11  A    between atoms: O_20  and  C_21 
REMARK   12  A    between atoms: C_27  and  O_28 
ROOT
ATOM      1  N   UNL d   1      28.371 -12.900  -0.161  0.00  0.00    -0.247 N 
ATOM      2  C   UNL d   1      27.549 -13.859   0.352  0.00  0.00     0.237 C 
ATOM      3  O   UNL d   1      26.321 -13.796   0.409  0.00  0.00    -0.272 OA
ATOM      4  H   UNL d   1      29.307 -13.192  -0.195  0.00  0.00     0.192 HD
ENDROOT
BRANCH   2   5
ATOM      5  C   UNL d   1      28.373 -15.056   0.865  0.00  0.00     0.107 C 
BRANCH   5   6
ATOM      6  C   UNL d   1      27.434 -16.227   0.980  0.00  0.00     0.046 C 
BRANCH   6   7
ATOM      7  C   UNL d   1      27.107 -16.971  -0.308  0.00  0.00     0.151 C 
BRANCH   7   8
ATOM      8  O   UNL d   1      27.780 -18.227  -0.299  0.00  0.00    -0.391 OA
ATOM      9  H   UNL d   1      28.451 -18.179   0.406  0.00  0.00     0.210 HD
ENDBRANCH   7   8
BRANCH   7  10
ATOM     10  C   UNL d   1      25.611 -17.188  -0.449  0.00  0.00    -0.029 A 
ATOM     11  C   UNL d   1      25.019 -18.334   0.090  0.00  0.00     0.012 A 
ATOM     12  C   UNL d   1      23.642 -18.545  -0.033  0.00  0.00     0.037 A 
ATOM     13  C   UNL d   1      22.838 -17.614  -0.695  0.00  0.00     0.068 A 
ATOM     14  C   UNL d   1      23.418 -16.483  -1.249  0.00  0.00     0.037 A 
ATOM     15  C   UNL d   1      24.784 -16.273  -1.128  0.00  0.00     0.012 A 
BRANCH  13  16
ATOM     16  O   UNL d   1      21.486 -17.688  -0.867  0.00  0.00    -0.352 OA
BRANCH  16  17
ATOM     17  C   UNL d   1      20.976 -18.954  -1.266  0.00  0.00     0.171 C 
ATOM     18  C   UNL d   1      19.864 -19.323  -0.308  0.00  0.00     0.034 C 
ENDBRANCH  16  17
ENDBRANCH  13  16
ENDBRANCH   7  10
ENDBRANCH   6   7
ENDBRANCH   5   6
ENDBRANCH   2   5
BRANCH   1  19
ATOM     19  N   UNL d   1      28.009 -11.718  -0.698  0.00  0.00    -0.184 NA
ATOM     20  C   UNL d   1      27.354 -11.692  -1.832  0.00  0.00     0.150 C 
BRANCH  20  21
ATOM     21  C   UNL d   1      26.885 -12.792  -2.745  0.00  0.00    -0.016 A 
ATOM     22  C   UNL d   1      27.825 -13.438  -3.554  0.00  0.00     0.023 A 
ATOM     23  C   UNL d   1      27.437 -14.518  -4.395  0.00  0.00    -0.021 A 
ATOM     24  C   UNL d   1      26.088 -14.873  -4.487  0.00  0.00     0.072 A 
ATOM     25  C   UNL d   1      25.158 -14.242  -3.709  0.00  0.00     0.038 A 
ATOM     26  C   UNL d   1      25.568 -13.247  -2.844  0.00  0.00     0.015 A 
BRANCH  23  27
ATOM     27  C   UNL d   1      28.429 -15.284  -5.232  0.00  0.00     0.067 C 
BRANCH  27  28
ATOM     28  C   UNL d   1      29.566 -15.868  -4.449  0.00  0.00    -0.032 C 
ATOM     29  C   UNL d   1      29.379 -16.627  -3.367  0.00  0.00     0.007 C 
ENDBRANCH  27  28
ENDBRANCH  23  27
BRANCH  24  30
ATOM     30  O   UNL d   1      25.668 -15.851  -5.335  0.00  0.00    -0.360 OA
ATOM     31  H   UNL d   1      24.848 -15.555  -5.768  0.00  0.00     0.217 HD
ENDBRANCH  24  30
ENDBRANCH  20  21
ENDBRANCH   1  19
TORSDOF 12
ENDMDL
MODEL 7
REMARK VINA RESULT:    -6.628      3.566      7.487
REMARK INTER + INTRA:         -12.960
REMARK INTER:                 -10.207
REMARK INTRA:                  -2.753
REMARK CONF_INDEPENDENT:        3.580
REMARK UNBOUND:                -2.753
REMARK  12 active torsions:
REMARK  status: ('A' for Active; 'I' for Inactive)
REMARK    1  A    between atoms: C_2  and  C_3 
REMARK    2  A    between atoms: C_3  and  C_4 
REMARK    3  A    between atoms: C_6  and  C_7 
REMARK    4  A    between atoms: N_8  and  N_9 
REMARK       I    between atoms: N_9  and  C_10 
REMARK    5  A    between atoms: C_10  and  C_12 
REMARK    6  A    between atoms: C_12  and  C_13 
REMARK    7  A    between atoms: C_13  and  C_14 
REMARK    8  A    between atoms: C_14  and  O_15 
REMARK    9  A    between atoms: C_14  and  C_16 
REMARK   10  A    between atoms: C_19  and  O_20 
REMARK   11  A    between atoms: O_20  and  C_21 
REMARK   12  A    between atoms: C_27  and  O_28 
ROOT
ATOM      1  N   UNL d   1      26.341 -13.990  -4.076  0.00  0.00    -0.247 N 
ATOM      2  C   UNL d   1      26.902 -14.848  -4.975  0.00  0.00     0.237 C 
ATOM      3  O   UNL d   1      26.287 -15.575  -5.754  0.00  0.00    -0.272 OA
ATOM      4  H   UNL d   1      27.012 -13.438  -3.620  0.00  0.00     0.192 HD
ENDROOT
BRANCH   2   5
ATOM      5  C   UNL d   1      28.440 -14.791  -4.884  0.00  0.00     0.107 C 
BRANCH   5   6
ATOM      6  C   UNL d   1      28.808 -15.002  -3.438  0.00  0.00     0.046 C 
BRANCH   6   7
ATOM      7  C   UNL d   1      29.173 -13.758  -2.638  0.00  0.00     0.151 C 
BRANCH   7   8
ATOM      8  O   UNL d   1      28.594 -12.619  -3.270  0.00  0.00    -0.391 OA
ATOM      9  H   UNL d   1      28.994 -12.557  -4.156  0.00  0.00     0.210 HD
ENDBRANCH   7   8
BRANCH   7  10
ATOM     10  C   UNL d   1      28.675 -13.863  -1.208  0.00  0.00    -0.029 A 
ATOM     11  C   UNL d   1      29.228 -14.816  -0.346  0.00  0.00     0.012 A 
ATOM     12  C   UNL d   1      28.777 -14.922   0.974  0.00  0.00     0.037 A 
ATOM     13  C   UNL d   1      27.772 -14.078   1.451  0.00  0.00     0.068 A 
ATOM     14  C   UNL d   1      27.204 -13.143   0.599  0.00  0.00     0.037 A 
ATOM     15  C   UNL d   1      27.650 -13.036  -0.712  0.00  0.00     0.012 A 
BRANCH  13  16
ATOM     16  O   UNL d   1      27.258 -14.064   2.715  0.00  0.00    -0.352 OA
BRANCH  16  17
ATOM     17  C   UNL d   1      28.147 -14.451   3.754  0.00  0.00     0.171 C 
ATOM     18  C   UNL d   1      27.414 -14.289   5.069  0.00  0.00     0.034 C 
ENDBRANCH  16  17
ENDBRANCH  13  16
ENDBRANCH   7  10
ENDBRANCH   6   7
ENDBRANCH   5   6
ENDBRANCH   2   5
BRANCH   1  19
ATOM     19  N   UNL d   1      25.027 -13.770  -3.869  0.00  0.00    -0.184 NA
ATOM     20  C   UNL d   1      24.387 -14.461  -2.960  0.00  0.00     0.150 C 
BRANCH  20  21
ATOM     21  C   UNL d   1      24.841 -15.546  -2.021  0.00  0.00    -0.016 A 
ATOM     22  C   UNL d   1      23.876 -16.356  -1.415  0.00  0.00     0.023 A 
ATOM     23  C   UNL d   1      24.260 -17.426  -0.561  0.00  0.00    -0.021 A 
ATOM     24  C   UNL d   1      25.610 -17.609  -0.246  0.00  0.00     0.072 A 
ATOM     25  C   UNL d   1      26.563 -16.817  -0.823  0.00  0.00     0.038 A 
ATOM     26  C   UNL d   1      26.172 -15.832  -1.708  0.00  0.00     0.015 A 
BRANCH  23  27
ATOM     27  C   UNL d   1      23.256 -18.364   0.058  0.00  0.00     0.067 C 
BRANCH  27  28
ATOM     28  C   UNL d   1      21.878 -18.250  -0.521  0.00  0.00    -0.032 C 
ATOM     29  C   UNL d   1      21.073 -19.305  -0.675  0.00  0.00     0.007 C 
ENDBRANCH  27  28
ENDBRANCH  23  27
BRANCH  24  30
ATOM     30  O   UNL d   1      26.011 -18.575   0.625  0.00  0.00    -0.360 OA
ATOM     31  H   UNL d   1      26.886 -18.898   0.349  0.00  0.00     0.217 HD
ENDBRANCH  24  30
ENDBRANCH  20  21
ENDBRANCH   1  19
TORSDOF 12
ENDMDL
MODEL 8
REMARK VINA RESULT:    -6.449      2.355      3.535
REMARK INTER + INTRA:         -12.917
REMARK INTER:                 -10.028
REMARK INTRA:                  -2.889
REMARK CONF_INDEPENDENT:        3.580
REMARK UNBOUND:                -2.889
REMARK  12 active torsions:
REMARK  status: ('A' for Active; 'I' for Inactive)
REMARK    1  A    between atoms: C_2  and  C_3 
REMARK    2  A    between atoms: C_3  and  C_4 
REMARK    3  A    between atoms: C_6  and  C_7 
REMARK    4  A    between atoms: N_8  and  N_9 
REMARK       I    between atoms: N_9  and  C_10 
REMARK    5  A    between atoms: C_10  and  C_12 
REMARK    6  A    between atoms: C_12  and  C_13 
REMARK    7  A    between atoms: C_13  and  C_14 
REMARK    8  A    between atoms: C_14  and  O_15 
REMARK    9  A    between atoms: C_14  and  C_16 
REMARK   10  A    between atoms: C_19  and  O_20 
REMARK   11  A    between atoms: O_20  and  C_21 
REMARK   12  A    between atoms: C_27  and  O_28 
ROOT
ATOM      1  N   UNL d   1      30.176 -15.169  -2.185  0.00  0.00    -0.247 N 
ATOM      2  C   UNL d   1      29.721 -14.362  -1.184  0.00  0.00     0.237 C 
ATOM      3  O   UNL d   1      29.640 -13.135  -1.233  0.00  0.00    -0.272 OA
ATOM      4  H   UNL d   1      30.068 -16.121  -1.973  0.00  0.00     0.192 HD
ENDROOT
BRANCH   2   5
ATOM      5  C   UNL d   1      29.315 -15.203   0.042  0.00  0.00     0.107 C 
BRANCH   5   6
ATOM      6  C   UNL d   1      27.821 -15.387  -0.020  0.00  0.00     0.046 C 
BRANCH   6   7
ATOM      7  C   UNL d   1      27.262 -16.014  -1.290  0.00  0.00     0.151 C 
BRANCH   7   8
ATOM      8  O   UNL d   1      28.124 -17.073  -1.699  0.00  0.00    -0.391 OA
ATOM      9  H   UNL d   1      28.165 -17.703  -0.957  0.00  0.00     0.210 HD
ENDBRANCH   7   8
BRANCH   7  10
ATOM     10  C   UNL d   1      25.859 -16.550  -1.063  0.00  0.00    -0.029 A 
ATOM     11  C   UNL d   1      25.678 -17.786  -0.435  0.00  0.00     0.012 A 
ATOM     12  C   UNL d   1      24.391 -18.289  -0.220  0.00  0.00     0.037 A 
ATOM     13  C   UNL d   1      23.269 -17.566  -0.630  0.00  0.00     0.068 A 
ATOM     14  C   UNL d   1      23.438 -16.348  -1.271  0.00  0.00     0.037 A 
ATOM     15  C   UNL d   1      24.715 -15.847  -1.484  0.00  0.00     0.012 A 
BRANCH  13  16
ATOM     16  O   UNL d   1      21.964 -17.931  -0.464  0.00  0.00    -0.352 OA
BRANCH  16  17
ATOM     17  C   UNL d   1      21.735 -19.298  -0.147  0.00  0.00     0.171 C 
ATOM     18  C   UNL d   1      20.248 -19.553  -0.268  0.00  0.00     0.034 C 
ENDBRANCH  16  17
ENDBRANCH  13  16
ENDBRANCH   7  10
ENDBRANCH   6   7
ENDBRANCH   5   6
ENDBRANCH   2   5
BRANCH   1  19
ATOM     19  N   UNL d   1      30.617 -14.791  -3.401  0.00  0.00    -0.184 NA
ATOM     20  C   UNL d   1      29.757 -14.438  -4.323  0.00  0.00     0.150 C 
BRANCH  20  21
ATOM     21  C   UNL d   1      28.255 -14.364  -4.319  0.00  0.00    -0.016 A 
ATOM     22  C   UNL d   1      27.642 -13.181  -3.892  0.00  0.00     0.023 A 
ATOM     23  C   UNL d   1      26.227 -13.047  -3.919  0.00  0.00    -0.021 A 
ATOM     24  C   UNL d   1      25.435 -14.141  -4.283  0.00  0.00     0.072 A 
ATOM     25  C   UNL d   1      26.021 -15.306  -4.692  0.00  0.00     0.038 A 
ATOM     26  C   UNL d   1      27.399 -15.389  -4.729  0.00  0.00     0.015 A 
BRANCH  23  27
ATOM     27  C   UNL d   1      25.531 -11.768  -3.532  0.00  0.00     0.067 C 
BRANCH  27  28
ATOM     28  C   UNL d   1      26.452 -10.706  -3.011  0.00  0.00    -0.032 C 
ATOM     29  C   UNL d   1      26.119  -9.413  -2.988  0.00  0.00     0.007 C 
ENDBRANCH  27  28
ENDBRANCH  23  27
BRANCH  24  30
ATOM     30  O   UNL d   1      24.076 -14.075  -4.251  0.00  0.00    -0.360 OA
ATOM     31  H   UNL d   1      23.773 -13.564  -5.021  0.00  0.00     0.217 HD
ENDBRANCH  24  30
ENDBRANCH  20  21
ENDBRANCH   1  19
TORSDOF 12
ENDMDL
MODEL 9
REMARK VINA RESULT:    -6.421      3.044      4.288
REMARK INTER + INTRA:         -12.884
REMARK INTER:                 -10.000
REMARK INTRA:                  -2.883
REMARK CONF_INDEPENDENT:        3.580
REMARK UNBOUND:                -2.883
REMARK  12 active torsions:
REMARK  status: ('A' for Active; 'I' for Inactive)
REMARK    1  A    between atoms: C_2  and  C_3 
REMARK    2  A    between atoms: C_3  and  C_4 
REMARK    3  A    between atoms: C_6  and  C_7 
REMARK    4  A    between atoms: N_8  and  N_9 
REMARK       I    between atoms: N_9  and  C_10 
REMARK    5  A    between atoms: C_10  and  C_12 
REMARK    6  A    between atoms: C_12  and  C_13 
REMARK    7  A    between atoms: C_13  and  C_14 
REMARK    8  A    between atoms: C_14  and  O_15 
REMARK    9  A    between atoms: C_14  and  C_16 
REMARK   10  A    between atoms: C_19  and  O_20 
REMARK   11  A    between atoms: O_20  and  C_21 
REMARK   12  A    between atoms: C_27  and  O_28 
ROOT
ATOM      1  N   UNL d   1      30.187 -13.856  -1.272  0.00  0.00    -0.247 N 
ATOM      2  C   UNL d   1      30.613 -14.771  -2.190  0.00  0.00     0.237 C 
ATOM      3  O   UNL d   1      31.041 -14.513  -3.314  0.00  0.00    -0.272 OA
ATOM      4  H   UNL d   1      29.975 -14.269  -0.407  0.00  0.00     0.192 HD
ENDROOT
BRANCH   2   5
ATOM      5  C   UNL d   1      30.484 -16.199  -1.625  0.00  0.00     0.107 C 
BRANCH   5   6
ATOM      6  C   UNL d   1      29.018 -16.545  -1.619  0.00  0.00     0.046 C 
BRANCH   6   7
ATOM      7  C   UNL d   1      28.377 -16.782  -0.258  0.00  0.00     0.151 C 
BRANCH   7   8
ATOM      8  O   UNL d   1      28.655 -15.664   0.582  0.00  0.00    -0.391 OA
ATOM      9  H   UNL d   1      28.911 -16.024   1.450  0.00  0.00     0.210 HD
ENDBRANCH   7   8
BRANCH   7  10
ATOM     10  C   UNL d   1      26.876 -16.971  -0.386  0.00  0.00    -0.029 A 
ATOM     11  C   UNL d   1      26.135 -16.122  -1.213  0.00  0.00     0.012 A 
ATOM     12  C   UNL d   1      24.752 -16.287  -1.339  0.00  0.00     0.037 A 
ATOM     13  C   UNL d   1      24.091 -17.302  -0.643  0.00  0.00     0.068 A 
ATOM     14  C   UNL d   1      24.815 -18.138   0.194  0.00  0.00     0.037 A 
ATOM     15  C   UNL d   1      26.188 -17.975   0.320  0.00  0.00     0.012 A 
BRANCH  13  16
ATOM     16  O   UNL d   1      22.757 -17.583  -0.692  0.00  0.00    -0.352 OA
BRANCH  16  17
ATOM     17  C   UNL d   1      22.413 -18.945  -0.908  0.00  0.00     0.171 C 
ATOM     18  C   UNL d   1      21.030 -19.165  -0.333  0.00  0.00     0.034 C 
ENDBRANCH  16  17
ENDBRANCH  13  16
ENDBRANCH   7  10
ENDBRANCH   6   7
ENDBRANCH   5   6
ENDBRANCH   2   5
BRANCH   1  19
ATOM     19  N   UNL d   1      30.152 -12.517  -1.412  0.00  0.00    -0.184 NA
ATOM     20  C   UNL d   1      29.146 -11.953  -2.031  0.00  0.00     0.150 C 
BRANCH  20  21
ATOM     21  C   UNL d   1      27.919 -12.530  -2.683  0.00  0.00    -0.016 A 
ATOM     22  C   UNL d   1      28.081 -13.497  -3.680  0.00  0.00     0.023 A 
ATOM     23  C   UNL d   1      26.950 -14.108  -4.289  0.00  0.00    -0.021 A 
ATOM     24  C   UNL d   1      25.664 -13.668  -3.957  0.00  0.00     0.072 A 
ATOM     25  C   UNL d   1      25.493 -12.716  -2.991  0.00  0.00     0.038 A 
ATOM     26  C   UNL d   1      26.603 -12.191  -2.361  0.00  0.00     0.015 A 
BRANCH  23  27
ATOM     27  C   UNL d   1      27.080 -15.200  -5.318  0.00  0.00     0.067 C 
BRANCH  27  28
ATOM     28  C   UNL d   1      28.385 -15.190  -6.057  0.00  0.00    -0.032 C 
ATOM     29  C   UNL d   1      28.740 -14.196  -6.875  0.00  0.00     0.007 C 
ENDBRANCH  27  28
ENDBRANCH  23  27
BRANCH  24  30
ATOM     30  O   UNL d   1      24.560 -14.176  -4.570  0.00  0.00    -0.360 OA
ATOM     31  H   UNL d   1      24.396 -13.667  -5.383  0.00  0.00     0.217 HD
ENDBRANCH  24  30
ENDBRANCH  20  21
ENDBRANCH   1  19
TORSDOF 12
ENDMDL
