MODEL 1
REMARK VINA RESULT:   -28.589      0.000      0.000
REMARK INTER + INTRA:         -32.112
REMARK INTER:                 -30.976
REMARK INTRA:                  -1.136
REMARK CONF_INDEPENDENT:        2.386
REMARK UNBOUND:                -1.136
REMARK  8 active torsions:
REMARK  status: ('A' for Active; 'I' for Inactive)
REMARK    1  A    between atoms: C_2  and  C_3 
REMARK    2  A    between atoms: C_3  and  C_4 
REMARK    3  A    between atoms: C_4  and  C_5 
REMARK    4  A    between atoms: C_8  and  N_9 
REMARK    5  A    between atoms: N_9  and  C_10 
REMARK    6  A    between atoms: C_10  and  C_11 
REMARK    7  A    between atoms: C_11  and  C_12 
REMARK       I    between atoms: C_12  and  N_14 
REMARK    8  A    between atoms: N_14  and  N_15 
ROOT
ATOM      1  N   UNL d   1      25.265 -17.765   0.132  0.00  0.00    -0.389 N 
ATOM      2  H   UNL d   1      26.027 -17.972   0.766  0.00  0.00     0.159 HD
ENDROOT
BRANCH   1   3
ATOM      3  C   UNL d   1      25.426 -16.616  -0.648  0.00  0.00     0.028 A 
ATOM      4  C   UNL d   1      26.623 -15.891  -0.572  0.00  0.00     0.029 A 
ATOM      5  C   UNL d   1      26.835 -14.749  -1.356  0.00  0.00     0.009 A 
ATOM      6  C   UNL d   1      25.898 -14.375  -2.323  0.00  0.00    -0.058 A 
ATOM      7  C   UNL d   1      24.708 -15.093  -2.422  0.00  0.00     0.009 A 
ATOM      8  C   UNL d   1      24.483 -16.200  -1.599  0.00  0.00     0.029 A 
BRANCH   6   9
ATOM      9  C   UNL d   1      26.248 -13.352  -3.372  0.00  0.00     0.038 C 
BRANCH   9  10
ATOM     10  C   UNL d   1      25.908 -13.929  -4.750  0.00  0.00     0.004 C 
BRANCH  10  11
ATOM     11  C   UNL d   1      26.701 -15.195  -5.036  0.00  0.00    -0.004 C 
ATOM     12  C   UNL d   1      28.029 -14.860  -5.693  0.00  0.00     0.005 C 
ENDBRANCH  10  11
ENDBRANCH   9  10
ENDBRANCH   6   9
ENDBRANCH   1   3
BRANCH   1  13
ATOM     13  C   UNL d   1      23.919 -18.208   0.500  0.00  0.00     0.129 C 
BRANCH  13  14
ATOM     14  C   UNL d   1      23.244 -19.016  -0.606  0.00  0.00     0.123 C 
BRANCH  14  15
ATOM     15  C   UNL d   1      21.840 -18.485  -0.839  0.00  0.00     0.233 C 
ATOM     16  O   UNL d   1      21.574 -17.283  -0.929  0.00  0.00    -0.272 OA
ATOM     17  N   UNL d   1      20.855 -19.463  -0.923  0.00  0.00    -0.294 N 
ATOM     18  H   UNL d   1      21.097 -20.451  -0.957  0.00  0.00     0.183 HD
BRANCH  17  19
ATOM     19  N   UNL d   1      19.530 -19.078  -1.253  0.00  0.00    -0.247 NA
ATOM     20  H   UNL d   1      19.356 -19.394  -2.220  0.00  0.00     0.143 HD
ATOM     21  H   UNL d   1      19.489 -18.057  -1.311  0.00  0.00     0.143 HD
ENDBRANCH  17  19
ENDBRANCH  14  15
ENDBRANCH  13  14
ENDBRANCH   1  13
TORSDOF 8
ENDMDL
MODEL 2
REMARK VINA RESULT:   -28.226      1.076      1.443
REMARK INTER + INTRA:         -32.105
REMARK INTER:                 -30.612
REMARK INTRA:                  -1.493
REMARK CONF_INDEPENDENT:        2.386
REMARK UNBOUND:                -1.493
REMARK  8 active torsions:
REMARK  status: ('A' for Active; 'I' for Inactive)
REMARK    1  A    between atoms: C_2  and  C_3 
REMARK    2  A    between atoms: C_3  and  C_4 
REMARK    3  A    between atoms: C_4  and  C_5 
REMARK    4  A    between atoms: C_8  and  N_9 
REMARK    5  A    between atoms: N_9  and  C_10 
REMARK    6  A    between atoms: C_10  and  C_11 
REMARK    7  A    between atoms: C_11  and  C_12 
REMARK       I    between atoms: C_12  and  N_14 
REMARK    8  A    between atoms: N_14  and  N_15 
ROOT
ATOM      1  N   UNL d   1      23.940 -16.816  -0.404  0.00  0.00    -0.389 N 
ATOM      2  H   UNL d   1      23.020 -16.474  -0.656  0.00  0.00     0.159 HD
ENDROOT
BRANCH   1   3
ATOM      3  C   UNL d   1      24.993 -16.344  -1.192  0.00  0.00     0.028 A 
ATOM      4  C   UNL d   1      26.306 -16.739  -0.902  0.00  0.00     0.029 A 
ATOM      5  C   UNL d   1      27.387 -16.310  -1.683  0.00  0.00     0.009 A 
ATOM      6  C   UNL d   1      27.164 -15.570  -2.848  0.00  0.00    -0.058 A 
ATOM      7  C   UNL d   1      25.863 -15.180  -3.159  0.00  0.00     0.009 A 
ATOM      8  C   UNL d   1      24.797 -15.569  -2.345  0.00  0.00     0.029 A 
BRANCH   6   9
ATOM      9  C   UNL d   1      28.270 -15.372  -3.851  0.00  0.00     0.038 C 
BRANCH   9  10
ATOM     10  C   UNL d   1      27.644 -15.171  -5.234  0.00  0.00     0.004 C 
BRANCH  10  11
ATOM     11  C   UNL d   1      28.315 -14.035  -5.992  0.00  0.00    -0.004 C 
ATOM     12  C   UNL d   1      29.685 -14.460  -6.493  0.00  0.00     0.005 C 
ENDBRANCH  10  11
ENDBRANCH   9  10
ENDBRANCH   6   9
ENDBRANCH   1   3
BRANCH   1  13
ATOM     13  C   UNL d   1      24.039 -18.133   0.226  0.00  0.00     0.129 C 
BRANCH  13  14
ATOM     14  C   UNL d   1      23.233 -19.200  -0.513  0.00  0.00     0.123 C 
BRANCH  14  15
ATOM     15  C   UNL d   1      21.835 -18.677  -0.796  0.00  0.00     0.233 C 
ATOM     16  O   UNL d   1      21.569 -17.477  -0.913  0.00  0.00    -0.272 OA
ATOM     17  N   UNL d   1      20.856 -19.659  -0.895  0.00  0.00    -0.294 N 
ATOM     18  H   UNL d   1      21.101 -20.647  -0.907  0.00  0.00     0.183 HD
BRANCH  17  19
ATOM     19  N   UNL d   1      19.541 -19.283  -1.270  0.00  0.00    -0.247 NA
ATOM     20  H   UNL d   1      19.419 -19.559  -2.257  0.00  0.00     0.143 HD
ATOM     21  H   UNL d   1      19.483 -18.261  -1.287  0.00  0.00     0.143 HD
ENDBRANCH  17  19
ENDBRANCH  14  15
ENDBRANCH  13  14
ENDBRANCH   1  13
TORSDOF 8
ENDMDL
MODEL 3
REMARK VINA RESULT:   -28.052      1.113      1.723
REMARK INTER + INTRA:         -32.012
REMARK INTER:                 -30.438
REMARK INTRA:                  -1.574
REMARK CONF_INDEPENDENT:        2.386
REMARK UNBOUND:                -1.574
REMARK  8 active torsions:
REMARK  status: ('A' for Active; 'I' for Inactive)
REMARK    1  A    between atoms: C_2  and  C_3 
REMARK    2  A    between atoms: C_3  and  C_4 
REMARK    3  A    between atoms: C_4  and  C_5 
REMARK    4  A    between atoms: C_8  and  N_9 
REMARK    5  A    between atoms: N_9  and  C_10 
REMARK    6  A    between atoms: C_10  and  C_11 
REMARK    7  A    between atoms: C_11  and  C_12 
REMARK       I    between atoms: C_12  and  N_14 
REMARK    8  A    between atoms: N_14  and  N_15 
ROOT
ATOM      1  N   UNL d   1      23.966 -16.922  -0.229  0.00  0.00    -0.389 N 
ATOM      2  H   UNL d   1      23.068 -16.475  -0.369  0.00  0.00     0.159 HD
ENDROOT
BRANCH   1   3
ATOM      3  C   UNL d   1      24.985 -16.509  -1.091  0.00  0.00     0.028 A 
ATOM      4  C   UNL d   1      24.679 -15.674  -2.174  0.00  0.00     0.029 A 
ATOM      5  C   UNL d   1      25.675 -15.216  -3.047  0.00  0.00     0.009 A 
ATOM      6  C   UNL d   1      27.021 -15.488  -2.784  0.00  0.00    -0.058 A 
ATOM      7  C   UNL d   1      27.344 -16.306  -1.703  0.00  0.00     0.009 A 
ATOM      8  C   UNL d   1      26.338 -16.801  -0.869  0.00  0.00     0.029 A 
BRANCH   6   9
ATOM      9  C   UNL d   1      28.108 -14.752  -3.523  0.00  0.00     0.038 C 
BRANCH   9  10
ATOM     10  C   UNL d   1      28.492 -15.567  -4.763  0.00  0.00     0.004 C 
BRANCH  10  11
ATOM     11  C   UNL d   1      28.153 -14.824  -6.047  0.00  0.00    -0.004 C 
ATOM     12  C   UNL d   1      27.704 -13.405  -5.743  0.00  0.00     0.005 C 
ENDBRANCH  10  11
ENDBRANCH   9  10
ENDBRANCH   6   9
ENDBRANCH   1   3
BRANCH   1  13
ATOM     13  C   UNL d   1      23.983 -18.280   0.317  0.00  0.00     0.129 C 
BRANCH  13  14
ATOM     14  C   UNL d   1      23.243 -19.280  -0.571  0.00  0.00     0.123 C 
BRANCH  14  15
ATOM     15  C   UNL d   1      21.859 -18.745  -0.895  0.00  0.00     0.233 C 
ATOM     16  O   UNL d   1      21.630 -17.557  -1.144  0.00  0.00    -0.272 OA
ATOM     17  N   UNL d   1      20.847 -19.698  -0.870  0.00  0.00    -0.294 N 
ATOM     18  H   UNL d   1      21.060 -20.688  -0.772  0.00  0.00     0.183 HD
BRANCH  17  19
ATOM     19  N   UNL d   1      19.539 -19.322  -1.270  0.00  0.00    -0.247 NA
ATOM     20  H   UNL d   1      19.449 -19.563  -2.269  0.00  0.00     0.143 HD
ATOM     21  H   UNL d   1      19.470 -18.301  -1.252  0.00  0.00     0.143 HD
ENDBRANCH  17  19
ENDBRANCH  14  15
ENDBRANCH  13  14
ENDBRANCH   1  13
TORSDOF 8
ENDMDL
MODEL 4
REMARK VINA RESULT:   -27.903      1.365      2.064
REMARK INTER + INTRA:         -31.948
REMARK INTER:                 -30.289
REMARK INTRA:                  -1.658
REMARK CONF_INDEPENDENT:        2.386
REMARK UNBOUND:                -1.658
REMARK  8 active torsions:
REMARK  status: ('A' for Active; 'I' for Inactive)
REMARK    1  A    between atoms: C_2  and  C_3 
REMARK    2  A    between atoms: C_3  and  C_4 
REMARK    3  A    between atoms: C_4  and  C_5 
REMARK    4  A    between atoms: C_8  and  N_9 
REMARK    5  A    between atoms: N_9  and  C_10 
REMARK    6  A    between atoms: C_10  and  C_11 
REMARK    7  A    between atoms: C_11  and  C_12 
REMARK       I    between atoms: C_12  and  N_14 
REMARK    8  A    between atoms: N_14  and  N_15 
ROOT
ATOM      1  N   UNL d   1      23.892 -16.370  -1.006  0.00  0.00    -0.389 N 
ATOM      2  H   UNL d   1      22.998 -15.949  -0.783  0.00  0.00     0.159 HD
ENDROOT
BRANCH   1   3
ATOM      3  C   UNL d   1      24.647 -15.701  -1.974  0.00  0.00     0.028 A 
ATOM      4  C   UNL d   1      25.948 -16.137  -2.260  0.00  0.00     0.029 A 
ATOM      5  C   UNL d   1      26.728 -15.511  -3.241  0.00  0.00     0.009 A 
ATOM      6  C   UNL d   1      26.178 -14.507  -4.043  0.00  0.00    -0.058 A 
ATOM      7  C   UNL d   1      24.881 -14.071  -3.782  0.00  0.00     0.009 A 
ATOM      8  C   UNL d   1      24.129 -14.667  -2.766  0.00  0.00     0.029 A 
BRANCH   6   9
ATOM      9  C   UNL d   1      26.890 -14.049  -5.289  0.00  0.00     0.038 C 
BRANCH   9  10
ATOM     10  C   UNL d   1      26.751 -12.527  -5.398  0.00  0.00     0.004 C 
BRANCH  10  11
ATOM     11  C   UNL d   1      27.235 -11.830  -4.135  0.00  0.00    -0.004 C 
ATOM     12  C   UNL d   1      26.113 -11.026  -3.502  0.00  0.00     0.005 C 
ENDBRANCH  10  11
ENDBRANCH   9  10
ENDBRANCH   6   9
ENDBRANCH   1   3
BRANCH   1  13
ATOM     13  C   UNL d   1      24.031 -17.819  -0.851  0.00  0.00     0.129 C 
BRANCH  13  14
ATOM     14  C   UNL d   1      22.974 -18.415   0.077  0.00  0.00     0.123 C 
BRANCH  14  15
ATOM     15  C   UNL d   1      21.596 -18.221  -0.531  0.00  0.00     0.233 C 
ATOM     16  O   UNL d   1      21.168 -17.127  -0.912  0.00  0.00    -0.272 OA
ATOM     17  N   UNL d   1      20.828 -19.378  -0.610  0.00  0.00    -0.294 N 
ATOM     18  H   UNL d   1      21.227 -20.289  -0.396  0.00  0.00     0.183 HD
BRANCH  17  19
ATOM     19  N   UNL d   1      19.572 -19.325  -1.266  0.00  0.00    -0.247 NA
ATOM     20  H   UNL d   1      19.433 -18.349  -1.573  0.00  0.00     0.143 HD
ATOM     21  H   UNL d   1      18.833 -19.478  -0.575  0.00  0.00     0.143 HD
ENDBRANCH  17  19
ENDBRANCH  14  15
ENDBRANCH  13  14
ENDBRANCH   1  13
TORSDOF 8
ENDMDL
MODEL 5
REMARK VINA RESULT:   -27.887      1.805      2.305
REMARK INTER + INTRA:         -31.785
REMARK INTER:                 -30.273
REMARK INTRA:                  -1.511
REMARK CONF_INDEPENDENT:        2.386
REMARK UNBOUND:                -1.511
REMARK  8 active torsions:
REMARK  status: ('A' for Active; 'I' for Inactive)
REMARK    1  A    between atoms: C_2  and  C_3 
REMARK    2  A    between atoms: C_3  and  C_4 
REMARK    3  A    between atoms: C_4  and  C_5 
REMARK    4  A    between atoms: C_8  and  N_9 
REMARK    5  A    between atoms: N_9  and  C_10 
REMARK    6  A    between atoms: C_10  and  C_11 
REMARK    7  A    between atoms: C_11  and  C_12 
REMARK       I    between atoms: C_12  and  N_14 
REMARK    8  A    between atoms: N_14  and  N_15 
ROOT
ATOM      1  N   UNL d   1      24.444 -16.907  -0.389  0.00  0.00    -0.389 N 
ATOM      2  H   UNL d   1      23.658 -16.447  -0.833  0.00  0.00     0.159 HD
ENDROOT
BRANCH   1   3
ATOM      3  C   UNL d   1      25.702 -16.574  -0.900  0.00  0.00     0.028 A 
ATOM      4  C   UNL d   1      26.855 -16.963  -0.206  0.00  0.00     0.029 A 
ATOM      5  C   UNL d   1      28.135 -16.673  -0.697  0.00  0.00     0.009 A 
ATOM      6  C   UNL d   1      28.290 -16.090  -1.958  0.00  0.00    -0.058 A 
ATOM      7  C   UNL d   1      27.153 -15.709  -2.668  0.00  0.00     0.009 A 
ATOM      8  C   UNL d   1      25.881 -15.956  -2.146  0.00  0.00     0.029 A 
BRANCH   6   9
ATOM      9  C   UNL d   1      29.640 -16.059  -2.625  0.00  0.00     0.038 C 
BRANCH   9  10
ATOM     10  C   UNL d   1      29.462 -15.564  -4.064  0.00  0.00     0.004 C 
BRANCH  10  11
ATOM     11  C   UNL d   1      29.770 -16.660  -5.074  0.00  0.00    -0.004 C 
ATOM     12  C   UNL d   1      30.389 -17.865  -4.386  0.00  0.00     0.005 C 
ENDBRANCH  10  11
ENDBRANCH   9  10
ENDBRANCH   6   9
ENDBRANCH   1   3
BRANCH   1  13
ATOM     13  C   UNL d   1      24.227 -18.228   0.202  0.00  0.00     0.129 C 
BRANCH  13  14
ATOM     14  C   UNL d   1      23.265 -19.087  -0.616  0.00  0.00     0.123 C 
BRANCH  14  15
ATOM     15  C   UNL d   1      21.931 -18.372  -0.748  0.00  0.00     0.233 C 
ATOM     16  O   UNL d   1      21.827 -17.151  -0.896  0.00  0.00    -0.272 OA
ATOM     17  N   UNL d   1      20.817 -19.200  -0.669  0.00  0.00    -0.294 N 
ATOM     18  H   UNL d   1      20.915 -20.213  -0.657  0.00  0.00     0.183 HD
BRANCH  17  19
ATOM     19  N   UNL d   1      19.532 -18.646  -0.895  0.00  0.00    -0.247 NA
ATOM     20  H   UNL d   1      19.040 -19.280  -1.545  0.00  0.00     0.143 HD
ATOM     21  H   UNL d   1      19.637 -17.776  -1.424  0.00  0.00     0.143 HD
ENDBRANCH  17  19
ENDBRANCH  14  15
ENDBRANCH  13  14
ENDBRANCH   1  13
TORSDOF 8
ENDMDL
MODEL 6
REMARK VINA RESULT:   -27.507      2.588      4.177
REMARK INTER + INTRA:         -31.007
REMARK INTER:                 -29.893
REMARK INTRA:                  -1.114
REMARK CONF_INDEPENDENT:        2.386
REMARK UNBOUND:                -1.114
REMARK  8 active torsions:
REMARK  status: ('A' for Active; 'I' for Inactive)
REMARK    1  A    between atoms: C_2  and  C_3 
REMARK    2  A    between atoms: C_3  and  C_4 
REMARK    3  A    between atoms: C_4  and  C_5 
REMARK    4  A    between atoms: C_8  and  N_9 
REMARK    5  A    between atoms: N_9  and  C_10 
REMARK    6  A    between atoms: C_10  and  C_11 
REMARK    7  A    between atoms: C_11  and  C_12 
REMARK       I    between atoms: C_12  and  N_14 
REMARK    8  A    between atoms: N_14  and  N_15 
ROOT
ATOM      1  N   UNL d   1      25.445 -18.020   0.302  0.00  0.00    -0.389 N 
ATOM      2  H   UNL d   1      25.392 -18.458   1.215  0.00  0.00     0.159 HD
ENDROOT
BRANCH   1   3
ATOM      3  C   UNL d   1      26.228 -16.864   0.235  0.00  0.00     0.028 A 
ATOM      4  C   UNL d   1      25.655 -15.666  -0.212  0.00  0.00     0.029 A 
ATOM      5  C   UNL d   1      26.397 -14.479  -0.269  0.00  0.00     0.009 A 
ATOM      6  C   UNL d   1      27.700 -14.439   0.234  0.00  0.00    -0.058 A 
ATOM      7  C   UNL d   1      28.281 -15.618   0.695  0.00  0.00     0.009 A 
ATOM      8  C   UNL d   1      27.550 -16.809   0.699  0.00  0.00     0.029 A 
BRANCH   6   9
ATOM      9  C   UNL d   1      28.390 -13.119   0.465  0.00  0.00     0.038 C 
BRANCH   9  10
ATOM     10  C   UNL d   1      28.760 -13.015   1.948  0.00  0.00     0.004 C 
BRANCH  10  11
ATOM     11  C   UNL d   1      27.539 -12.724   2.808  0.00  0.00    -0.004 C 
ATOM     12  C   UNL d   1      27.417 -13.743   3.928  0.00  0.00     0.005 C 
ENDBRANCH  10  11
ENDBRANCH   9  10
ENDBRANCH   6   9
ENDBRANCH   1   3
BRANCH   1  13
ATOM     13  C   UNL d   1      24.312 -18.183  -0.610  0.00  0.00     0.129 C 
BRANCH  13  14
ATOM     14  C   UNL d   1      23.005 -18.478   0.124  0.00  0.00     0.123 C 
BRANCH  14  15
ATOM     15  C   UNL d   1      21.935 -18.869  -0.880  0.00  0.00     0.233 C 
ATOM     16  O   UNL d   1      22.187 -19.326  -1.999  0.00  0.00    -0.272 OA
ATOM     17  N   UNL d   1      20.629 -18.653  -0.452  0.00  0.00    -0.294 N 
ATOM     18  H   UNL d   1      20.430 -18.381   0.508  0.00  0.00     0.183 HD
BRANCH  17  19
ATOM     19  N   UNL d   1      19.557 -19.091  -1.270  0.00  0.00    -0.247 NA
ATOM     20  H   UNL d   1      19.975 -19.538  -2.101  0.00  0.00     0.143 HD
ATOM     21  H   UNL d   1      19.072 -18.271  -1.644  0.00  0.00     0.143 HD
ENDBRANCH  17  19
ENDBRANCH  14  15
ENDBRANCH  13  14
ENDBRANCH   1  13
TORSDOF 8
ENDMDL
MODEL 7
REMARK VINA RESULT:   -27.296      1.612      2.884
REMARK INTER + INTRA:         -31.110
REMARK INTER:                 -29.683
REMARK INTRA:                  -1.428
REMARK CONF_INDEPENDENT:        2.386
REMARK UNBOUND:                -1.428
REMARK  8 active torsions:
REMARK  status: ('A' for Active; 'I' for Inactive)
REMARK    1  A    between atoms: C_2  and  C_3 
REMARK    2  A    between atoms: C_3  and  C_4 
REMARK    3  A    between atoms: C_4  and  C_5 
REMARK    4  A    between atoms: C_8  and  N_9 
REMARK    5  A    between atoms: N_9  and  C_10 
REMARK    6  A    between atoms: C_10  and  C_11 
REMARK    7  A    between atoms: C_11  and  C_12 
REMARK       I    between atoms: C_12  and  N_14 
REMARK    8  A    between atoms: N_14  and  N_15 
ROOT
ATOM      1  N   UNL d   1      24.004 -16.971  -1.207  0.00  0.00    -0.389 N 
ATOM      2  H   UNL d   1      23.326 -17.094  -1.950  0.00  0.00     0.159 HD
ENDROOT
BRANCH   1   3
ATOM      3  C   UNL d   1      25.065 -16.109  -1.498  0.00  0.00     0.028 A 
ATOM      4  C   UNL d   1      25.136 -15.499  -2.758  0.00  0.00     0.029 A 
ATOM      5  C   UNL d   1      26.169 -14.608  -3.080  0.00  0.00     0.009 A 
ATOM      6  C   UNL d   1      27.089 -14.215  -2.104  0.00  0.00    -0.058 A 
ATOM      7  C   UNL d   1      27.024 -14.800  -0.842  0.00  0.00     0.009 A 
ATOM      8  C   UNL d   1      26.022 -15.728  -0.546  0.00  0.00     0.029 A 
BRANCH   6   9
ATOM      9  C   UNL d   1      27.999 -13.039  -2.343  0.00  0.00     0.038 C 
BRANCH   9  10
ATOM     10  C   UNL d   1      27.472 -11.843  -1.543  0.00  0.00     0.004 C 
BRANCH  10  11
ATOM     11  C   UNL d   1      28.116 -11.765  -0.167  0.00  0.00    -0.004 C 
ATOM     12  C   UNL d   1      27.085 -11.998   0.923  0.00  0.00     0.005 C 
ENDBRANCH  10  11
ENDBRANCH   9  10
ENDBRANCH   6   9
ENDBRANCH   1   3
BRANCH   1  13
ATOM     13  C   UNL d   1      24.202 -18.072  -0.263  0.00  0.00     0.129 C 
BRANCH  13  14
ATOM     14  C   UNL d   1      23.236 -19.231  -0.503  0.00  0.00     0.123 C 
BRANCH  14  15
ATOM     15  C   UNL d   1      21.845 -18.687  -0.777  0.00  0.00     0.233 C 
ATOM     16  O   UNL d   1      21.594 -17.482  -0.878  0.00  0.00    -0.272 OA
ATOM     17  N   UNL d   1      20.853 -19.655  -0.887  0.00  0.00    -0.294 N 
ATOM     18  H   UNL d   1      21.085 -20.645  -0.911  0.00  0.00     0.183 HD
BRANCH  17  19
ATOM     19  N   UNL d   1      19.542 -19.257  -1.255  0.00  0.00    -0.247 NA
ATOM     20  H   UNL d   1      19.380 -19.606  -2.213  0.00  0.00     0.143 HD
ATOM     21  H   UNL d   1      19.523 -18.238  -1.353  0.00  0.00     0.143 HD
ENDBRANCH  17  19
ENDBRANCH  14  15
ENDBRANCH  13  14
ENDBRANCH   1  13
TORSDOF 8
ENDMDL
MODEL 8
REMARK VINA RESULT:   -27.179      2.592      3.857
REMARK INTER + INTRA:         -31.137
REMARK INTER:                 -29.565
REMARK INTRA:                  -1.571
REMARK CONF_INDEPENDENT:        2.386
REMARK UNBOUND:                -1.571
REMARK  8 active torsions:
REMARK  status: ('A' for Active; 'I' for Inactive)
REMARK    1  A    between atoms: C_2  and  C_3 
REMARK    2  A    between atoms: C_3  and  C_4 
REMARK    3  A    between atoms: C_4  and  C_5 
REMARK    4  A    between atoms: C_8  and  N_9 
REMARK    5  A    between atoms: N_9  and  C_10 
REMARK    6  A    between atoms: C_10  and  C_11 
REMARK    7  A    between atoms: C_11  and  C_12 
REMARK       I    between atoms: C_12  and  N_14 
REMARK    8  A    between atoms: N_14  and  N_15 
ROOT
ATOM      1  N   UNL d   1      24.535 -17.132  -0.049  0.00  0.00    -0.389 N 
ATOM      2  H   UNL d   1      23.912 -16.593  -0.639  0.00  0.00     0.159 HD
ENDROOT
BRANCH   1   3
ATOM      3  C   UNL d   1      25.882 -16.759  -0.100  0.00  0.00     0.028 A 
ATOM      4  C   UNL d   1      26.868 -17.745  -0.238  0.00  0.00     0.029 A 
ATOM      5  C   UNL d   1      28.226 -17.412  -0.320  0.00  0.00     0.009 A 
ATOM      6  C   UNL d   1      28.620 -16.073  -0.385  0.00  0.00    -0.058 A 
ATOM      7  C   UNL d   1      27.651 -15.079  -0.263  0.00  0.00     0.009 A 
ATOM      8  C   UNL d   1      26.303 -15.422  -0.129  0.00  0.00     0.029 A 
BRANCH   6   9
ATOM      9  C   UNL d   1      30.027 -15.708  -0.783  0.00  0.00     0.038 C 
BRANCH   9  10
ATOM     10  C   UNL d   1      30.956 -16.866  -0.403  0.00  0.00     0.004 C 
BRANCH  10  11
ATOM     11  C   UNL d   1      31.706 -16.579   0.889  0.00  0.00    -0.004 C 
ATOM     12  C   UNL d   1      31.345 -15.204   1.425  0.00  0.00     0.005 C 
ENDBRANCH  10  11
ENDBRANCH   9  10
ENDBRANCH   6   9
ENDBRANCH   1   3
BRANCH   1  13
ATOM     13  C   UNL d   1      24.178 -18.519   0.251  0.00  0.00     0.129 C 
BRANCH  13  14
ATOM     14  C   UNL d   1      23.264 -19.132  -0.809  0.00  0.00     0.123 C 
BRANCH  14  15
ATOM     15  C   UNL d   1      21.945 -18.378  -0.841  0.00  0.00     0.233 C 
ATOM     16  O   UNL d   1      21.866 -17.148  -0.914  0.00  0.00    -0.272 OA
ATOM     17  N   UNL d   1      20.814 -19.183  -0.759  0.00  0.00    -0.294 N 
ATOM     18  H   UNL d   1      20.885 -20.197  -0.810  0.00  0.00     0.183 HD
BRANCH  17  19
ATOM     19  N   UNL d   1      19.535 -18.586  -0.896  0.00  0.00    -0.247 NA
ATOM     20  H   UNL d   1      19.063 -19.060  -1.682  0.00  0.00     0.143 HD
ATOM     21  H   UNL d   1      19.654 -17.622  -1.221  0.00  0.00     0.143 HD
ENDBRANCH  17  19
ENDBRANCH  14  15
ENDBRANCH  13  14
ENDBRANCH   1  13
TORSDOF 8
ENDMDL
MODEL 9
REMARK VINA RESULT:   -27.119      2.423      3.186
REMARK INTER + INTRA:         -31.123
REMARK INTER:                 -29.505
REMARK INTRA:                  -1.618
REMARK CONF_INDEPENDENT:        2.386
REMARK UNBOUND:                -1.618
REMARK  8 active torsions:
REMARK  status: ('A' for Active; 'I' for Inactive)
REMARK    1  A    between atoms: C_2  and  C_3 
REMARK    2  A    between atoms: C_3  and  C_4 
REMARK    3  A    between atoms: C_4  and  C_5 
REMARK    4  A    between atoms: C_8  and  N_9 
REMARK    5  A    between atoms: N_9  and  C_10 
REMARK    6  A    between atoms: C_10  and  C_11 
REMARK    7  A    between atoms: C_11  and  C_12 
REMARK       I    between atoms: C_12  and  N_14 
REMARK    8  A    between atoms: N_14  and  N_15 
ROOT
ATOM      1  N   UNL d   1      24.013 -16.918  -1.730  0.00  0.00    -0.389 N 
ATOM      2  H   UNL d   1      23.634 -17.610  -2.366  0.00  0.00     0.159 HD
ENDROOT
BRANCH   1   3
ATOM      3  C   UNL d   1      25.340 -16.548  -1.965  0.00  0.00     0.028 A 
ATOM      4  C   UNL d   1      25.628 -15.597  -2.953  0.00  0.00     0.029 A 
ATOM      5  C   UNL d   1      26.942 -15.179  -3.202  0.00  0.00     0.009 A 
ATOM      6  C   UNL d   1      27.987 -15.616  -2.383  0.00  0.00    -0.058 A 
ATOM      7  C   UNL d   1      27.716 -16.552  -1.387  0.00  0.00     0.009 A 
ATOM      8  C   UNL d   1      26.409 -17.003  -1.181  0.00  0.00     0.029 A 
BRANCH   6   9
ATOM      9  C   UNL d   1      29.334 -14.944  -2.438  0.00  0.00     0.038 C 
BRANCH   9  10
ATOM     10  C   UNL d   1      30.221 -15.537  -1.338  0.00  0.00     0.004 C 
BRANCH  10  11
ATOM     11  C   UNL d   1      30.954 -16.780  -1.821  0.00  0.00    -0.004 C 
ATOM     12  C   UNL d   1      32.076 -17.146  -0.864  0.00  0.00     0.005 C 
ENDBRANCH  10  11
ENDBRANCH   9  10
ENDBRANCH   6   9
ENDBRANCH   1   3
BRANCH   1  13
ATOM     13  C   UNL d   1      23.473 -16.859  -0.371  0.00  0.00     0.129 C 
BRANCH  13  14
ATOM     14  C   UNL d   1      22.973 -18.216   0.121  0.00  0.00     0.123 C 
BRANCH  14  15
ATOM     15  C   UNL d   1      21.970 -18.780  -0.871  0.00  0.00     0.233 C 
ATOM     16  O   UNL d   1      22.289 -19.244  -1.970  0.00  0.00    -0.272 OA
ATOM     17  N   UNL d   1      20.644 -18.715  -0.458  0.00  0.00    -0.294 N 
ATOM     18  H   UNL d   1      20.402 -18.433   0.489  0.00  0.00     0.183 HD
BRANCH  17  19
ATOM     19  N   UNL d   1      19.644 -19.318  -1.263  0.00  0.00    -0.247 NA
ATOM     20  H   UNL d   1      20.114 -19.675  -2.110  0.00  0.00     0.143 HD
ATOM     21  H   UNL d   1      19.018 -18.588  -1.613  0.00  0.00     0.143 HD
ENDBRANCH  17  19
ENDBRANCH  14  15
ENDBRANCH  13  14
ENDBRANCH   1  13
TORSDOF 8
ENDMDL
