MODEL 1
REMARK VINA RESULT:   -29.198      0.000      0.000
REMARK INTER + INTRA:         -32.525
REMARK INTER:                 -31.585
REMARK INTRA:                  -0.940
REMARK CONF_INDEPENDENT:        2.386
REMARK UNBOUND:                -0.940
REMARK  8 active torsions:
REMARK  status: ('A' for Active; 'I' for Inactive)
REMARK       I    between atoms: C_2  and  N_3 
REMARK       I    between atoms: C_2  and  N_10 
REMARK    1  A    between atoms: N_3  and  C_4 
REMARK    2  A    between atoms: N_10  and  C_11 
REMARK    3  A    between atoms: C_14  and  N_15 
REMARK       I    between atoms: N_15  and  C_16 
REMARK    4  A    between atoms: C_16  and  C_18 
REMARK    5  A    between atoms: C_21  and  S_22 
REMARK    6  A    between atoms: S_22  and  N_25 
REMARK    7  A    between atoms: N_25  and  C_26 
REMARK    8  A    between atoms: C_26  and  C_27 
ROOT
ATOM      1  N   UNL d   1      26.197 -15.919  -3.119  0.00  0.00    -0.323 N 
ATOM      2  C   UNL d   1      26.099 -16.107  -1.739  0.00  0.00     0.256 C 
ATOM      3  O   UNL d   1      26.940 -15.806  -0.896  0.00  0.00    -0.267 OA
ATOM      4  H   UNL d   1      25.423 -16.206  -3.707  0.00  0.00     0.169 HD
ENDROOT
BRANCH   1   5
ATOM      5  C   UNL d   1      27.337 -15.363  -3.773  0.00  0.00     0.035 A 
ATOM      6  C   UNL d   1      27.198 -14.501  -4.873  0.00  0.00     0.032 A 
ATOM      7  C   UNL d   1      28.337 -14.056  -5.586  0.00  0.00     0.032 A 
ATOM      8  C   UNL d   1      29.619 -14.444  -5.181  0.00  0.00     0.036 A 
ATOM      9  C   UNL d   1      29.752 -15.216  -4.040  0.00  0.00     0.032 A 
ATOM     10  C   UNL d   1      28.632 -15.672  -3.361  0.00  0.00     0.032 A 
BRANCH   8  11
ATOM     11  N   UNL d   1      30.765 -14.020  -5.869  0.00  0.00    -0.309 N 
ATOM     12  C   UNL d   1      31.684 -14.773  -6.570  0.00  0.00     0.325 C 
ATOM     13  O   UNL d   1      32.726 -14.235  -6.939  0.00  0.00    -0.247 OA
ATOM     14  N   UNL d   1      31.290 -16.051  -6.913  0.00  0.00    -0.309 N 
ATOM     15  H   UNL d   1      30.307 -16.259  -6.816  0.00  0.00     0.170 HD
ATOM     16  H   UNL d   1      31.015 -13.040  -5.816  0.00  0.00     0.170 HD
BRANCH  14  17
ATOM     17  C   UNL d   1      32.032 -16.923  -7.730  0.00  0.00     0.036 A 
ATOM     18  C   UNL d   1      33.355 -16.591  -8.044  0.00  0.00     0.029 A 
ATOM     19  C   UNL d   1      34.110 -17.422  -8.875  0.00  0.00     0.002 A 
ATOM     20  C   UNL d   1      33.553 -18.596  -9.378  0.00  0.00     0.000 A 
ATOM     21  C   UNL d   1      32.227 -18.915  -9.088  0.00  0.00     0.002 A 
ATOM     22  C   UNL d   1      31.469 -18.081  -8.266  0.00  0.00     0.029 A 
ENDBRANCH  14  17
ENDBRANCH   8  11
ENDBRANCH   1   5
BRANCH   2  23
ATOM     23  C   UNL d   1      24.887 -16.751  -1.180  0.00  0.00     0.032 A 
ATOM     24  C   UNL d   1      24.880 -18.154  -1.087  0.00  0.00     0.018 A 
ATOM     25  C   UNL d   1      23.702 -18.841  -0.779  0.00  0.00     0.026 A 
ATOM     26  C   UNL d   1      22.536 -18.122  -0.493  0.00  0.00     0.074 A 
ATOM     27  C   UNL d   1      22.531 -16.726  -0.599  0.00  0.00     0.026 A 
ATOM     28  C   UNL d   1      23.706 -16.041  -0.955  0.00  0.00     0.018 A 
BRANCH  26  29
ATOM     29  S   UNL d   1      21.124 -19.043   0.081  0.00  0.00     0.241 S 
ATOM     30  O   UNL d   1      21.361 -20.433  -0.207  0.00  0.00    -0.206 OA
ATOM     31  O   UNL d   1      20.842 -18.576   1.428  0.00  0.00    -0.206 OA
BRANCH  29  32
ATOM     32  N   UNL d   1      19.815 -18.575  -0.895  0.00  0.00    -0.209 NA
ATOM     33  H   UNL d   1      20.154 -18.152  -1.758  0.00  0.00     0.140 HD
BRANCH  32  34
ATOM     34  C   UNL d   1      18.941 -19.736  -1.225  0.00  0.00     0.169 C 
BRANCH  34  35
ATOM     35  C   UNL d   1      18.508 -20.414   0.031  0.00  0.00     0.066 A 
ATOM     36  C   UNL d   1      17.793 -21.574   0.253  0.00  0.00     0.036 A 
ATOM     37  C   UNL d   1      17.651 -21.703   1.653  0.00  0.00     0.027 A 
ATOM     38  C   UNL d   1      18.327 -20.640   2.203  0.00  0.00     0.142 A 
ATOM     39  O   UNL d   1      18.858 -19.854   1.228  0.00  0.00    -0.326 OA
ENDBRANCH  34  35
ENDBRANCH  32  34
ENDBRANCH  29  32
ENDBRANCH  26  29
ENDBRANCH   2  23
TORSDOF 8
ENDMDL
MODEL 2
REMARK VINA RESULT:   -28.513      2.092      2.701
REMARK INTER + INTRA:         -32.277
REMARK INTER:                 -30.899
REMARK INTRA:                  -1.378
REMARK CONF_INDEPENDENT:        2.386
REMARK UNBOUND:                -1.378
REMARK  8 active torsions:
REMARK  status: ('A' for Active; 'I' for Inactive)
REMARK       I    between atoms: C_2  and  N_3 
REMARK       I    between atoms: C_2  and  N_10 
REMARK    1  A    between atoms: N_3  and  C_4 
REMARK    2  A    between atoms: N_10  and  C_11 
REMARK    3  A    between atoms: C_14  and  N_15 
REMARK       I    between atoms: N_15  and  C_16 
REMARK    4  A    between atoms: C_16  and  C_18 
REMARK    5  A    between atoms: C_21  and  S_22 
REMARK    6  A    between atoms: S_22  and  N_25 
REMARK    7  A    between atoms: N_25  and  C_26 
REMARK    8  A    between atoms: C_26  and  C_27 
ROOT
ATOM      1  N   UNL d   1      27.449 -16.792  -1.271  0.00  0.00    -0.323 N 
ATOM      2  C   UNL d   1      26.235 -16.148  -1.519  0.00  0.00     0.256 C 
ATOM      3  O   UNL d   1      26.078 -15.079  -2.103  0.00  0.00    -0.267 OA
ATOM      4  H   UNL d   1      27.439 -17.680  -0.782  0.00  0.00     0.169 HD
ENDROOT
BRANCH   1   5
ATOM      5  C   UNL d   1      28.724 -16.271  -1.644  0.00  0.00     0.035 A 
ATOM      6  C   UNL d   1      29.391 -15.332  -0.842  0.00  0.00     0.032 A 
ATOM      7  C   UNL d   1      30.595 -14.733  -1.287  0.00  0.00     0.032 A 
ATOM      8  C   UNL d   1      31.152 -15.098  -2.517  0.00  0.00     0.036 A 
ATOM      9  C   UNL d   1      30.539 -16.094  -3.257  0.00  0.00     0.032 A 
ATOM     10  C   UNL d   1      29.345 -16.657  -2.831  0.00  0.00     0.032 A 
BRANCH   8  11
ATOM     11  N   UNL d   1      32.342 -14.521  -2.984  0.00  0.00    -0.309 N 
ATOM     12  C   UNL d   1      32.698 -14.189  -4.274  0.00  0.00     0.325 C 
ATOM     13  O   UNL d   1      33.864 -13.871  -4.499  0.00  0.00    -0.247 OA
ATOM     14  N   UNL d   1      31.668 -14.118  -5.191  0.00  0.00    -0.309 N 
ATOM     15  H   UNL d   1      30.731 -14.103  -4.814  0.00  0.00     0.170 HD
ATOM     16  H   UNL d   1      33.087 -14.367  -2.315  0.00  0.00     0.170 HD
BRANCH  14  17
ATOM     17  C   UNL d   1      31.810 -13.677  -6.519  0.00  0.00     0.036 A 
ATOM     18  C   UNL d   1      31.399 -12.379  -6.846  0.00  0.00     0.029 A 
ATOM     19  C   UNL d   1      31.501 -11.920  -8.161  0.00  0.00     0.002 A 
ATOM     20  C   UNL d   1      32.032 -12.748  -9.149  0.00  0.00     0.000 A 
ATOM     21  C   UNL d   1      32.417 -14.050  -8.830  0.00  0.00     0.002 A 
ATOM     22  C   UNL d   1      32.307 -14.513  -7.519  0.00  0.00     0.029 A 
ENDBRANCH  14  17
ENDBRANCH   8  11
ENDBRANCH   1   5
BRANCH   2  23
ATOM     23  C   UNL d   1      24.977 -16.760  -1.029  0.00  0.00     0.032 A 
ATOM     24  C   UNL d   1      25.034 -18.091  -0.578  0.00  0.00     0.018 A 
ATOM     25  C   UNL d   1      23.860 -18.801  -0.310  0.00  0.00     0.026 A 
ATOM     26  C   UNL d   1      22.621 -18.160  -0.425  0.00  0.00     0.074 A 
ATOM     27  C   UNL d   1      22.556 -16.840  -0.889  0.00  0.00     0.026 A 
ATOM     28  C   UNL d   1      23.736 -16.143  -1.202  0.00  0.00     0.018 A 
BRANCH  26  29
ATOM     29  S   UNL d   1      21.180 -19.056   0.117  0.00  0.00     0.241 S 
ATOM     30  O   UNL d   1      21.404 -20.451  -0.156  0.00  0.00    -0.206 OA
ATOM     31  O   UNL d   1      20.869 -18.575   1.452  0.00  0.00    -0.206 OA
BRANCH  29  32
ATOM     32  N   UNL d   1      19.905 -18.575  -0.898  0.00  0.00    -0.209 NA
ATOM     33  H   UNL d   1      20.274 -18.195  -1.769  0.00  0.00     0.140 HD
BRANCH  32  34
ATOM     34  C   UNL d   1      18.994 -19.714  -1.202  0.00  0.00     0.169 C 
BRANCH  34  35
ATOM     35  C   UNL d   1      18.524 -20.338   0.069  0.00  0.00     0.066 A 
ATOM     36  C   UNL d   1      18.020 -21.593   0.349  0.00  0.00     0.036 A 
ATOM     37  C   UNL d   1      17.707 -21.607   1.727  0.00  0.00     0.027 A 
ATOM     38  C   UNL d   1      18.081 -20.378   2.215  0.00  0.00     0.142 A 
ATOM     39  O   UNL d   1      18.586 -19.600   1.218  0.00  0.00    -0.326 OA
ENDBRANCH  34  35
ENDBRANCH  32  34
ENDBRANCH  29  32
ENDBRANCH  26  29
ENDBRANCH   2  23
TORSDOF 8
ENDMDL
MODEL 3
REMARK VINA RESULT:   -28.346      1.701      2.054
REMARK INTER + INTRA:         -31.780
REMARK INTER:                 -30.732
REMARK INTRA:                  -1.048
REMARK CONF_INDEPENDENT:        2.386
REMARK UNBOUND:                -1.048
REMARK  8 active torsions:
REMARK  status: ('A' for Active; 'I' for Inactive)
REMARK       I    between atoms: C_2  and  N_3 
REMARK       I    between atoms: C_2  and  N_10 
REMARK    1  A    between atoms: N_3  and  C_4 
REMARK    2  A    between atoms: N_10  and  C_11 
REMARK    3  A    between atoms: C_14  and  N_15 
REMARK       I    between atoms: N_15  and  C_16 
REMARK    4  A    between atoms: C_16  and  C_18 
REMARK    5  A    between atoms: C_21  and  S_22 
REMARK    6  A    between atoms: S_22  and  N_25 
REMARK    7  A    between atoms: N_25  and  C_26 
REMARK    8  A    between atoms: C_26  and  C_27 
ROOT
ATOM      1  N   UNL d   1      26.003 -14.789  -2.371  0.00  0.00    -0.323 N 
ATOM      2  C   UNL d   1      26.119 -15.899  -1.531  0.00  0.00     0.256 C 
ATOM      3  O   UNL d   1      27.162 -16.424  -1.147  0.00  0.00    -0.267 OA
ATOM      4  H   UNL d   1      25.078 -14.450  -2.606  0.00  0.00     0.169 HD
ENDROOT
BRANCH   1   5
ATOM      5  C   UNL d   1      27.113 -14.102  -2.948  0.00  0.00     0.035 A 
ATOM      6  C   UNL d   1      28.082 -13.479  -2.145  0.00  0.00     0.032 A 
ATOM      7  C   UNL d   1      29.107 -12.697  -2.732  0.00  0.00     0.032 A 
ATOM      8  C   UNL d   1      29.185 -12.566  -4.123  0.00  0.00     0.036 A 
ATOM      9  C   UNL d   1      28.284 -13.261  -4.910  0.00  0.00     0.032 A 
ATOM     10  C   UNL d   1      27.265 -14.002  -4.330  0.00  0.00     0.032 A 
BRANCH   8  11
ATOM     11  N   UNL d   1      30.188 -11.798  -4.732  0.00  0.00    -0.309 N 
ATOM     12  C   UNL d   1      31.302 -12.219  -5.427  0.00  0.00     0.325 C 
ATOM     13  O   UNL d   1      32.163 -11.390  -5.717  0.00  0.00    -0.247 OA
ATOM     14  N   UNL d   1      31.292 -13.531  -5.857  0.00  0.00    -0.309 N 
ATOM     15  H   UNL d   1      30.404 -14.010  -5.818  0.00  0.00     0.170 HD
ATOM     16  H   UNL d   1      30.152 -10.793  -4.614  0.00  0.00     0.170 HD
BRANCH  14  17
ATOM     17  C   UNL d   1      32.273 -14.109  -6.683  0.00  0.00     0.036 A 
ATOM     18  C   UNL d   1      33.454 -14.581  -6.098  0.00  0.00     0.029 A 
ATOM     19  C   UNL d   1      34.460 -15.135  -6.894  0.00  0.00     0.002 A 
ATOM     20  C   UNL d   1      34.280 -15.237  -8.272  0.00  0.00     0.000 A 
ATOM     21  C   UNL d   1      33.117 -14.743  -8.859  0.00  0.00     0.002 A 
ATOM     22  C   UNL d   1      32.115 -14.181  -8.067  0.00  0.00     0.029 A 
ENDBRANCH  14  17
ENDBRANCH   8  11
ENDBRANCH   1   5
BRANCH   2  23
ATOM     23  C   UNL d   1      24.890 -16.567  -1.040  0.00  0.00     0.032 A 
ATOM     24  C   UNL d   1      25.001 -17.904  -0.619  0.00  0.00     0.018 A 
ATOM     25  C   UNL d   1      23.857 -18.662  -0.353  0.00  0.00     0.026 A 
ATOM     26  C   UNL d   1      22.594 -18.065  -0.440  0.00  0.00     0.074 A 
ATOM     27  C   UNL d   1      22.476 -16.739  -0.875  0.00  0.00     0.026 A 
ATOM     28  C   UNL d   1      23.626 -15.993  -1.186  0.00  0.00     0.018 A 
BRANCH  26  29
ATOM     29  S   UNL d   1      21.194 -19.024   0.099  0.00  0.00     0.241 S 
ATOM     30  O   UNL d   1      21.468 -20.405  -0.201  0.00  0.00    -0.206 OA
ATOM     31  O   UNL d   1      20.878 -18.580   1.446  0.00  0.00    -0.206 OA
BRANCH  29  32
ATOM     32  N   UNL d   1      19.892 -18.575  -0.895  0.00  0.00    -0.209 NA
ATOM     33  H   UNL d   1      20.237 -18.167  -1.763  0.00  0.00     0.140 HD
BRANCH  32  34
ATOM     34  C   UNL d   1      19.021 -19.742  -1.210  0.00  0.00     0.169 C 
BRANCH  34  35
ATOM     35  C   UNL d   1      18.545 -20.373   0.055  0.00  0.00     0.066 A 
ATOM     36  C   UNL d   1      17.761 -21.485   0.293  0.00  0.00     0.036 A 
ATOM     37  C   UNL d   1      17.608 -21.582   1.694  0.00  0.00     0.027 A 
ATOM     38  C   UNL d   1      18.344 -20.552   2.230  0.00  0.00     0.142 A 
ATOM     39  O   UNL d   1      18.924 -19.814   1.244  0.00  0.00    -0.326 OA
ENDBRANCH  34  35
ENDBRANCH  32  34
ENDBRANCH  29  32
ENDBRANCH  26  29
ENDBRANCH   2  23
TORSDOF 8
ENDMDL
MODEL 4
REMARK VINA RESULT:   -28.140      2.584      3.208
REMARK INTER + INTRA:         -31.764
REMARK INTER:                 -30.526
REMARK INTRA:                  -1.238
REMARK CONF_INDEPENDENT:        2.386
REMARK UNBOUND:                -1.238
REMARK  8 active torsions:
REMARK  status: ('A' for Active; 'I' for Inactive)
REMARK       I    between atoms: C_2  and  N_3 
REMARK       I    between atoms: C_2  and  N_10 
REMARK    1  A    between atoms: N_3  and  C_4 
REMARK    2  A    between atoms: N_10  and  C_11 
REMARK    3  A    between atoms: C_14  and  N_15 
REMARK       I    between atoms: N_15  and  C_16 
REMARK    4  A    between atoms: C_16  and  C_18 
REMARK    5  A    between atoms: C_21  and  S_22 
REMARK    6  A    between atoms: S_22  and  N_25 
REMARK    7  A    between atoms: N_25  and  C_26 
REMARK    8  A    between atoms: C_26  and  C_27 
ROOT
ATOM      1  N   UNL d   1      26.494 -15.752  -2.714  0.00  0.00    -0.323 N 
ATOM      2  C   UNL d   1      25.905 -15.721  -1.448  0.00  0.00     0.256 C 
ATOM      3  O   UNL d   1      26.250 -15.027  -0.495  0.00  0.00    -0.267 OA
ATOM      4  H   UNL d   1      26.105 -16.367  -3.418  0.00  0.00     0.169 HD
ENDROOT
BRANCH   1   5
ATOM      5  C   UNL d   1      27.636 -14.981  -3.085  0.00  0.00     0.035 A 
ATOM      6  C   UNL d   1      28.553 -15.450  -4.039  0.00  0.00     0.032 A 
ATOM      7  C   UNL d   1      29.744 -14.731  -4.305  0.00  0.00     0.032 A 
ATOM      8  C   UNL d   1      30.003 -13.525  -3.644  0.00  0.00     0.036 A 
ATOM      9  C   UNL d   1      29.049 -13.022  -2.777  0.00  0.00     0.032 A 
ATOM     10  C   UNL d   1      27.897 -13.744  -2.498  0.00  0.00     0.032 A 
BRANCH   8  11
ATOM     11  N   UNL d   1      31.174 -12.792  -3.887  0.00  0.00    -0.309 N 
ATOM     12  C   UNL d   1      31.707 -12.383  -5.091  0.00  0.00     0.325 C 
ATOM     13  O   UNL d   1      32.845 -11.916  -5.102  0.00  0.00    -0.247 OA
ATOM     14  N   UNL d   1      30.856 -12.414  -6.177  0.00  0.00    -0.309 N 
ATOM     15  H   UNL d   1      29.873 -12.525  -5.974  0.00  0.00     0.170 HD
ATOM     16  H   UNL d   1      31.763 -12.566  -3.095  0.00  0.00     0.170 HD
BRANCH  14  17
ATOM     17  C   UNL d   1      31.174 -11.921  -7.456  0.00  0.00     0.036 A 
ATOM     18  C   UNL d   1      30.852 -12.697  -8.576  0.00  0.00     0.029 A 
ATOM     19  C   UNL d   1      31.178 -12.249  -9.858  0.00  0.00     0.002 A 
ATOM     20  C   UNL d   1      31.809 -11.017 -10.026  0.00  0.00     0.000 A 
ATOM     21  C   UNL d   1      32.155 -10.257  -8.910  0.00  0.00     0.002 A 
ATOM     22  C   UNL d   1      31.838 -10.707  -7.628  0.00  0.00     0.029 A 
ENDBRANCH  14  17
ENDBRANCH   8  11
ENDBRANCH   1   5
BRANCH   2  23
ATOM     23  C   UNL d   1      24.756 -16.613  -1.162  0.00  0.00     0.032 A 
ATOM     24  C   UNL d   1      23.501 -16.013  -0.959  0.00  0.00     0.018 A 
ATOM     25  C   UNL d   1      22.425 -16.761  -0.473  0.00  0.00     0.026 A 
ATOM     26  C   UNL d   1      22.581 -18.135  -0.253  0.00  0.00     0.074 A 
ATOM     27  C   UNL d   1      23.832 -18.736  -0.437  0.00  0.00     0.026 A 
ATOM     28  C   UNL d   1      24.924 -17.971  -0.882  0.00  0.00     0.018 A 
BRANCH  26  29
ATOM     29  S   UNL d   1      21.125 -19.066   0.178  0.00  0.00     0.241 S 
ATOM     30  O   UNL d   1      21.386 -20.450  -0.119  0.00  0.00    -0.206 OA
ATOM     31  O   UNL d   1      20.729 -18.628   1.506  0.00  0.00    -0.206 OA
BRANCH  29  32
ATOM     32  N   UNL d   1      19.904 -18.576  -0.896  0.00  0.00    -0.209 NA
ATOM     33  H   UNL d   1      20.316 -18.234  -1.764  0.00  0.00     0.140 HD
BRANCH  32  34
ATOM     34  C   UNL d   1      18.967 -19.692  -1.200  0.00  0.00     0.169 C 
BRANCH  34  35
ATOM     35  C   UNL d   1      18.493 -20.314   0.071  0.00  0.00     0.066 A 
ATOM     36  C   UNL d   1      17.983 -21.566   0.351  0.00  0.00     0.036 A 
ATOM     37  C   UNL d   1      17.669 -21.579   1.729  0.00  0.00     0.027 A 
ATOM     38  C   UNL d   1      18.047 -20.351   2.216  0.00  0.00     0.142 A 
ATOM     39  O   UNL d   1      18.556 -19.575   1.220  0.00  0.00    -0.326 OA
ENDBRANCH  34  35
ENDBRANCH  32  34
ENDBRANCH  29  32
ENDBRANCH  26  29
ENDBRANCH   2  23
TORSDOF 8
ENDMDL
MODEL 5
REMARK VINA RESULT:   -27.768      3.164      4.693
REMARK INTER + INTRA:         -31.206
REMARK INTER:                 -30.154
REMARK INTRA:                  -1.052
REMARK CONF_INDEPENDENT:        2.386
REMARK UNBOUND:                -1.052
REMARK  8 active torsions:
REMARK  status: ('A' for Active; 'I' for Inactive)
REMARK       I    between atoms: C_2  and  N_3 
REMARK       I    between atoms: C_2  and  N_10 
REMARK    1  A    between atoms: N_3  and  C_4 
REMARK    2  A    between atoms: N_10  and  C_11 
REMARK    3  A    between atoms: C_14  and  N_15 
REMARK       I    between atoms: N_15  and  C_16 
REMARK    4  A    between atoms: C_16  and  C_18 
REMARK    5  A    between atoms: C_21  and  S_22 
REMARK    6  A    between atoms: S_22  and  N_25 
REMARK    7  A    between atoms: N_25  and  C_26 
REMARK    8  A    between atoms: C_26  and  C_27 
ROOT
ATOM      1  N   UNL d   1      26.161 -15.329  -2.722  0.00  0.00    -0.323 N 
ATOM      2  C   UNL d   1      25.862 -15.630  -1.391  0.00  0.00     0.256 C 
ATOM      3  O   UNL d   1      26.448 -15.216  -0.395  0.00  0.00    -0.267 OA
ATOM      4  H   UNL d   1      25.590 -15.735  -3.454  0.00  0.00     0.169 HD
ENDROOT
BRANCH   1   5
ATOM      5  C   UNL d   1      27.245 -14.495  -3.130  0.00  0.00     0.035 A 
ATOM      6  C   UNL d   1      27.383 -13.187  -2.640  0.00  0.00     0.032 A 
ATOM      7  C   UNL d   1      28.391 -12.331  -3.147  0.00  0.00     0.032 A 
ATOM      8  C   UNL d   1      29.284 -12.794  -4.120  0.00  0.00     0.036 A 
ATOM      9  C   UNL d   1      29.201 -14.113  -4.528  0.00  0.00     0.032 A 
ATOM     10  C   UNL d   1      28.194 -14.939  -4.049  0.00  0.00     0.032 A 
BRANCH   8  11
ATOM     11  N   UNL d   1      30.291 -11.969  -4.642  0.00  0.00    -0.309 N 
ATOM     12  C   UNL d   1      31.325 -11.338  -3.982  0.00  0.00     0.325 C 
ATOM     13  O   UNL d   1      31.988 -10.502  -4.592  0.00  0.00    -0.247 OA
ATOM     14  N   UNL d   1      31.610 -11.802  -2.714  0.00  0.00    -0.309 N 
ATOM     15  H   UNL d   1      31.195 -12.685  -2.454  0.00  0.00     0.170 HD
ATOM     16  H   UNL d   1      30.249 -11.737  -5.627  0.00  0.00     0.170 HD
BRANCH  14  17
ATOM     17  C   UNL d   1      32.701 -11.375  -1.934  0.00  0.00     0.036 A 
ATOM     18  C   UNL d   1      32.483 -10.413  -0.940  0.00  0.00     0.029 A 
ATOM     19  C   UNL d   1      33.550  -9.948  -0.167  0.00  0.00     0.002 A 
ATOM     20  C   UNL d   1      34.831 -10.456  -0.371  0.00  0.00     0.000 A 
ATOM     21  C   UNL d   1      35.055 -11.393  -1.379  0.00  0.00     0.002 A 
ATOM     22  C   UNL d   1      33.992 -11.852  -2.158  0.00  0.00     0.029 A 
ENDBRANCH  14  17
ENDBRANCH   8  11
ENDBRANCH   1   5
BRANCH   2  23
ATOM     23  C   UNL d   1      24.745 -16.559  -1.093  0.00  0.00     0.032 A 
ATOM     24  C   UNL d   1      23.435 -16.062  -1.213  0.00  0.00     0.018 A 
ATOM     25  C   UNL d   1      22.347 -16.802  -0.742  0.00  0.00     0.026 A 
ATOM     26  C   UNL d   1      22.558 -18.080  -0.209  0.00  0.00     0.074 A 
ATOM     27  C   UNL d   1      23.860 -18.574  -0.071  0.00  0.00     0.026 A 
ATOM     28  C   UNL d   1      24.957 -17.807  -0.504  0.00  0.00     0.018 A 
BRANCH  26  29
ATOM     29  S   UNL d   1      21.118 -19.048   0.192  0.00  0.00     0.241 S 
ATOM     30  O   UNL d   1      21.419 -20.424  -0.106  0.00  0.00    -0.206 OA
ATOM     31  O   UNL d   1      20.688 -18.625   1.514  0.00  0.00    -0.206 OA
BRANCH  29  32
ATOM     32  N   UNL d   1      19.905 -18.583  -0.902  0.00  0.00    -0.209 NA
ATOM     33  H   UNL d   1      20.324 -18.246  -1.768  0.00  0.00     0.140 HD
BRANCH  32  34
ATOM     34  C   UNL d   1      18.984 -19.713  -1.205  0.00  0.00     0.169 C 
BRANCH  34  35
ATOM     35  C   UNL d   1      18.512 -20.335   0.066  0.00  0.00     0.066 A 
ATOM     36  C   UNL d   1      17.920 -21.553   0.333  0.00  0.00     0.036 A 
ATOM     37  C   UNL d   1      17.656 -21.582   1.721  0.00  0.00     0.027 A 
ATOM     38  C   UNL d   1      18.143 -20.400   2.226  0.00  0.00     0.142 A 
ATOM     39  O   UNL d   1      18.672 -19.636   1.231  0.00  0.00    -0.326 OA
ENDBRANCH  34  35
ENDBRANCH  32  34
ENDBRANCH  29  32
ENDBRANCH  26  29
ENDBRANCH   2  23
TORSDOF 8
ENDMDL
MODEL 6
REMARK VINA RESULT:   -27.605      3.427      5.683
REMARK INTER + INTRA:         -31.126
REMARK INTER:                 -29.991
REMARK INTRA:                  -1.135
REMARK CONF_INDEPENDENT:        2.386
REMARK UNBOUND:                -1.135
REMARK  8 active torsions:
REMARK  status: ('A' for Active; 'I' for Inactive)
REMARK       I    between atoms: C_2  and  N_3 
REMARK       I    between atoms: C_2  and  N_10 
REMARK    1  A    between atoms: N_3  and  C_4 
REMARK    2  A    between atoms: N_10  and  C_11 
REMARK    3  A    between atoms: C_14  and  N_15 
REMARK       I    between atoms: N_15  and  C_16 
REMARK    4  A    between atoms: C_16  and  C_18 
REMARK    5  A    between atoms: C_21  and  S_22 
REMARK    6  A    between atoms: S_22  and  N_25 
REMARK    7  A    between atoms: N_25  and  C_26 
REMARK    8  A    between atoms: C_26  and  C_27 
ROOT
ATOM      1  N   UNL d   1      26.073 -15.341  -3.036  0.00  0.00    -0.323 N 
ATOM      2  C   UNL d   1      25.743 -15.557  -1.697  0.00  0.00     0.256 C 
ATOM      3  O   UNL d   1      26.280 -15.047  -0.717  0.00  0.00    -0.267 OA
ATOM      4  H   UNL d   1      25.542 -15.822  -3.753  0.00  0.00     0.169 HD
ENDROOT
BRANCH   1   5
ATOM      5  C   UNL d   1      27.136 -14.495  -3.473  0.00  0.00     0.035 A 
ATOM      6  C   UNL d   1      28.479 -14.835  -3.244  0.00  0.00     0.032 A 
ATOM      7  C   UNL d   1      29.516 -13.928  -3.573  0.00  0.00     0.032 A 
ATOM      8  C   UNL d   1      29.214 -12.695  -4.163  0.00  0.00     0.036 A 
ATOM      9  C   UNL d   1      27.896 -12.409  -4.472  0.00  0.00     0.032 A 
ATOM     10  C   UNL d   1      26.881 -13.289  -4.123  0.00  0.00     0.032 A 
BRANCH   8  11
ATOM     11  N   UNL d   1      30.219 -11.777  -4.499  0.00  0.00    -0.309 N 
ATOM     12  C   UNL d   1      30.127 -10.411  -4.664  0.00  0.00     0.325 C 
ATOM     13  O   UNL d   1      31.085  -9.811  -5.148  0.00  0.00    -0.247 OA
ATOM     14  N   UNL d   1      28.998  -9.810  -4.144  0.00  0.00    -0.309 N 
ATOM     15  H   UNL d   1      28.443 -10.367  -3.511  0.00  0.00     0.170 HD
ATOM     16  H   UNL d   1      31.140 -12.140  -4.712  0.00  0.00     0.170 HD
BRANCH  14  17
ATOM     17  C   UNL d   1      28.781  -8.420  -4.102  0.00  0.00     0.036 A 
ATOM     18  C   UNL d   1      27.593  -7.941  -3.536  0.00  0.00     0.029 A 
ATOM     19  C   UNL d   1      27.335  -6.568  -3.503  0.00  0.00     0.002 A 
ATOM     20  C   UNL d   1      28.269  -5.671  -4.018  0.00  0.00     0.000 A 
ATOM     21  C   UNL d   1      29.439  -6.149  -4.606  0.00  0.00     0.002 A 
ATOM     22  C   UNL d   1      29.695  -7.520  -4.647  0.00  0.00     0.029 A 
ENDBRANCH  14  17
ENDBRANCH   8  11
ENDBRANCH   1   5
BRANCH   2  23
ATOM     23  C   UNL d   1      24.654 -16.506  -1.363  0.00  0.00     0.032 A 
ATOM     24  C   UNL d   1      23.342 -16.004  -1.323  0.00  0.00     0.018 A 
ATOM     25  C   UNL d   1      22.299 -16.778  -0.807  0.00  0.00     0.026 A 
ATOM     26  C   UNL d   1      22.551 -18.091  -0.391  0.00  0.00     0.074 A 
ATOM     27  C   UNL d   1      23.858 -18.592  -0.412  0.00  0.00     0.026 A 
ATOM     28  C   UNL d   1      24.913 -17.794  -0.889  0.00  0.00     0.018 A 
BRANCH  26  29
ATOM     29  S   UNL d   1      21.151 -19.088   0.073  0.00  0.00     0.241 S 
ATOM     30  O   UNL d   1      21.430 -20.444  -0.318  0.00  0.00    -0.206 OA
ATOM     31  O   UNL d   1      20.825 -18.736   1.445  0.00  0.00    -0.206 OA
BRANCH  29  32
ATOM     32  N   UNL d   1      19.853 -18.575  -0.897  0.00  0.00    -0.209 NA
ATOM     33  H   UNL d   1      20.202 -18.181  -1.770  0.00  0.00     0.140 HD
BRANCH  32  34
ATOM     34  C   UNL d   1      18.923 -19.699  -1.199  0.00  0.00     0.169 C 
BRANCH  34  35
ATOM     35  C   UNL d   1      18.467 -20.331   0.073  0.00  0.00     0.066 A 
ATOM     36  C   UNL d   1      17.936 -21.577   0.344  0.00  0.00     0.036 A 
ATOM     37  C   UNL d   1      17.654 -21.606   1.729  0.00  0.00     0.027 A 
ATOM     38  C   UNL d   1      18.071 -20.395   2.228  0.00  0.00     0.142 A 
ATOM     39  O   UNL d   1      18.573 -19.614   1.232  0.00  0.00    -0.326 OA
ENDBRANCH  34  35
ENDBRANCH  32  34
ENDBRANCH  29  32
ENDBRANCH  26  29
ENDBRANCH   2  23
TORSDOF 8
ENDMDL
MODEL 7
REMARK VINA RESULT:   -27.542      5.013      6.871
REMARK INTER + INTRA:         -31.127
REMARK INTER:                 -29.929
REMARK INTRA:                  -1.199
REMARK CONF_INDEPENDENT:        2.386
REMARK UNBOUND:                -1.199
REMARK  8 active torsions:
REMARK  status: ('A' for Active; 'I' for Inactive)
REMARK       I    between atoms: C_2  and  N_3 
REMARK       I    between atoms: C_2  and  N_10 
REMARK    1  A    between atoms: N_3  and  C_4 
REMARK    2  A    between atoms: N_10  and  C_11 
REMARK    3  A    between atoms: C_14  and  N_15 
REMARK       I    between atoms: N_15  and  C_16 
REMARK    4  A    between atoms: C_16  and  C_18 
REMARK    5  A    between atoms: C_21  and  S_22 
REMARK    6  A    between atoms: S_22  and  N_25 
REMARK    7  A    between atoms: N_25  and  C_26 
REMARK    8  A    between atoms: C_26  and  C_27 
ROOT
ATOM      1  N   UNL d   1      26.703 -15.263  -0.055  0.00  0.00    -0.323 N 
ATOM      2  C   UNL d   1      25.847 -15.561  -1.117  0.00  0.00     0.256 C 
ATOM      3  O   UNL d   1      25.902 -15.104  -2.256  0.00  0.00    -0.267 OA
ATOM      4  H   UNL d   1      26.552 -15.719   0.837  0.00  0.00     0.169 HD
ENDROOT
BRANCH   1   5
ATOM      5  C   UNL d   1      27.781 -14.331  -0.133  0.00  0.00     0.035 A 
ATOM      6  C   UNL d   1      27.801 -13.172   0.660  0.00  0.00     0.032 A 
ATOM      7  C   UNL d   1      28.813 -12.197   0.483  0.00  0.00     0.032 A 
ATOM      8  C   UNL d   1      29.825 -12.395  -0.463  0.00  0.00     0.036 A 
ATOM      9  C   UNL d   1      29.852 -13.582  -1.173  0.00  0.00     0.032 A 
ATOM     10  C   UNL d   1      28.843 -14.522  -1.016  0.00  0.00     0.032 A 
BRANCH   8  11
ATOM     11  N   UNL d   1      30.839 -11.447  -0.661  0.00  0.00    -0.309 N 
ATOM     12  C   UNL d   1      31.634 -10.818   0.274  0.00  0.00     0.325 C 
ATOM     13  O   UNL d   1      32.333  -9.873  -0.088  0.00  0.00    -0.247 OA
ATOM     14  N   UNL d   1      31.672 -11.394   1.528  0.00  0.00    -0.309 N 
ATOM     15  H   UNL d   1      31.296 -12.329   1.604  0.00  0.00     0.170 HD
ATOM     16  H   UNL d   1      30.997 -11.112  -1.604  0.00  0.00     0.170 HD
BRANCH  14  17
ATOM     17  C   UNL d   1      32.514 -10.976   2.574  0.00  0.00     0.036 A 
ATOM     18  C   UNL d   1      33.711 -11.669   2.794  0.00  0.00     0.029 A 
ATOM     19  C   UNL d   1      34.557 -11.296   3.841  0.00  0.00     0.002 A 
ATOM     20  C   UNL d   1      34.219 -10.219   4.659  0.00  0.00     0.000 A 
ATOM     21  C   UNL d   1      33.015  -9.546   4.459  0.00  0.00     0.002 A 
ATOM     22  C   UNL d   1      32.165  -9.923   3.418  0.00  0.00     0.029 A 
ENDBRANCH  14  17
ENDBRANCH   8  11
ENDBRANCH   1   5
BRANCH   2  23
ATOM     23  C   UNL d   1      24.724 -16.504  -0.898  0.00  0.00     0.032 A 
ATOM     24  C   UNL d   1      23.422 -15.974  -0.888  0.00  0.00     0.018 A 
ATOM     25  C   UNL d   1      22.339 -16.754  -0.474  0.00  0.00     0.026 A 
ATOM     26  C   UNL d   1      22.544 -18.097  -0.133  0.00  0.00     0.074 A 
ATOM     27  C   UNL d   1      23.839 -18.627  -0.125  0.00  0.00     0.026 A 
ATOM     28  C   UNL d   1      24.932 -17.826  -0.498  0.00  0.00     0.018 A 
BRANCH  26  29
ATOM     29  S   UNL d   1      21.101 -19.088   0.196  0.00  0.00     0.241 S 
ATOM     30  O   UNL d   1      21.412 -20.447  -0.161  0.00  0.00    -0.206 OA
ATOM     31  O   UNL d   1      20.647 -18.731   1.530  0.00  0.00    -0.206 OA
BRANCH  29  32
ATOM     32  N   UNL d   1      19.905 -18.575  -0.895  0.00  0.00    -0.209 NA
ATOM     33  H   UNL d   1      20.335 -18.252  -1.761  0.00  0.00     0.140 HD
BRANCH  32  34
ATOM     34  C   UNL d   1      18.942 -19.670  -1.200  0.00  0.00     0.169 C 
BRANCH  34  35
ATOM     35  C   UNL d   1      18.484 -20.307   0.069  0.00  0.00     0.066 A 
ATOM     36  C   UNL d   1      18.013 -21.575   0.346  0.00  0.00     0.036 A 
ATOM     37  C   UNL d   1      17.694 -21.598   1.723  0.00  0.00     0.027 A 
ATOM     38  C   UNL d   1      18.031 -20.359   2.213  0.00  0.00     0.142 A 
ATOM     39  O   UNL d   1      18.518 -19.567   1.218  0.00  0.00    -0.326 OA
ENDBRANCH  34  35
ENDBRANCH  32  34
ENDBRANCH  29  32
ENDBRANCH  26  29
ENDBRANCH   2  23
TORSDOF 8
ENDMDL
MODEL 8
REMARK VINA RESULT:   -27.467      3.384      4.023
REMARK INTER + INTRA:         -31.119
REMARK INTER:                 -29.853
REMARK INTRA:                  -1.265
REMARK CONF_INDEPENDENT:        2.386
REMARK UNBOUND:                -1.265
REMARK  8 active torsions:
REMARK  status: ('A' for Active; 'I' for Inactive)
REMARK       I    between atoms: C_2  and  N_3 
REMARK       I    between atoms: C_2  and  N_10 
REMARK    1  A    between atoms: N_3  and  C_4 
REMARK    2  A    between atoms: N_10  and  C_11 
REMARK    3  A    between atoms: C_14  and  N_15 
REMARK       I    between atoms: N_15  and  C_16 
REMARK    4  A    between atoms: C_16  and  C_18 
REMARK    5  A    between atoms: C_21  and  S_22 
REMARK    6  A    between atoms: S_22  and  N_25 
REMARK    7  A    between atoms: N_25  and  C_26 
REMARK    8  A    between atoms: C_26  and  C_27 
ROOT
ATOM      1  N   UNL d   1      26.641 -15.150  -0.853  0.00  0.00    -0.323 N 
ATOM      2  C   UNL d   1      25.852 -15.721  -1.854  0.00  0.00     0.256 C 
ATOM      3  O   UNL d   1      25.963 -15.547  -3.065  0.00  0.00    -0.267 OA
ATOM      4  H   UNL d   1      26.447 -15.383   0.113  0.00  0.00     0.169 HD
ENDROOT
BRANCH   1   5
ATOM      5  C   UNL d   1      27.703 -14.228  -1.098  0.00  0.00     0.035 A 
ATOM      6  C   UNL d   1      28.827 -14.172  -0.258  0.00  0.00     0.032 A 
ATOM      7  C   UNL d   1      29.812 -13.171  -0.442  0.00  0.00     0.032 A 
ATOM      8  C   UNL d   1      29.692 -12.247  -1.487  0.00  0.00     0.036 A 
ATOM      9  C   UNL d   1      28.631 -12.369  -2.366  0.00  0.00     0.032 A 
ATOM     10  C   UNL d   1      27.654 -13.334  -2.166  0.00  0.00     0.032 A 
BRANCH   8  11
ATOM     11  N   UNL d   1      30.651 -11.244  -1.692  0.00  0.00    -0.309 N 
ATOM     12  C   UNL d   1      31.967 -11.369  -2.083  0.00  0.00     0.325 C 
ATOM     13  O   UNL d   1      32.697 -10.381  -2.018  0.00  0.00    -0.247 OA
ATOM     14  N   UNL d   1      32.324 -12.580  -2.643  0.00  0.00    -0.309 N 
ATOM     15  H   UNL d   1      31.567 -13.190  -2.914  0.00  0.00     0.170 HD
ATOM     16  H   UNL d   1      30.391 -10.289  -1.477  0.00  0.00     0.170 HD
BRANCH  14  17
ATOM     17  C   UNL d   1      33.580 -12.857  -3.213  0.00  0.00     0.036 A 
ATOM     18  C   UNL d   1      34.697 -12.943  -2.375  0.00  0.00     0.029 A 
ATOM     19  C   UNL d   1      35.962 -13.190  -2.913  0.00  0.00     0.002 A 
ATOM     20  C   UNL d   1      36.111 -13.370  -4.287  0.00  0.00     0.000 A 
ATOM     21  C   UNL d   1      35.004 -13.257  -5.126  0.00  0.00     0.002 A 
ATOM     22  C   UNL d   1      33.741 -13.002  -4.591  0.00  0.00     0.029 A 
ENDBRANCH  14  17
ENDBRANCH   8  11
ENDBRANCH   1   5
BRANCH   2  23
ATOM     23  C   UNL d   1      24.737 -16.620  -1.473  0.00  0.00     0.032 A 
ATOM     24  C   UNL d   1      23.453 -16.055  -1.368  0.00  0.00     0.018 A 
ATOM     25  C   UNL d   1      22.400 -16.782  -0.806  0.00  0.00     0.026 A 
ATOM     26  C   UNL d   1      22.609 -18.108  -0.407  0.00  0.00     0.074 A 
ATOM     27  C   UNL d   1      23.888 -18.671  -0.493  0.00  0.00     0.026 A 
ATOM     28  C   UNL d   1      24.956 -17.921  -1.016  0.00  0.00     0.018 A 
BRANCH  26  29
ATOM     29  S   UNL d   1      21.186 -19.041   0.118  0.00  0.00     0.241 S 
ATOM     30  O   UNL d   1      21.440 -20.428  -0.170  0.00  0.00    -0.206 OA
ATOM     31  O   UNL d   1      20.861 -18.583   1.459  0.00  0.00    -0.206 OA
BRANCH  29  32
ATOM     32  N   UNL d   1      19.905 -18.575  -0.895  0.00  0.00    -0.209 NA
ATOM     33  H   UNL d   1      20.268 -18.182  -1.763  0.00  0.00     0.140 HD
BRANCH  32  34
ATOM     34  C   UNL d   1      19.014 -19.727  -1.209  0.00  0.00     0.169 C 
BRANCH  34  35
ATOM     35  C   UNL d   1      18.531 -20.351   0.057  0.00  0.00     0.066 A 
ATOM     36  C   UNL d   1      17.892 -21.549   0.309  0.00  0.00     0.036 A 
ATOM     37  C   UNL d   1      17.644 -21.593   1.700  0.00  0.00     0.027 A 
ATOM     38  C   UNL d   1      18.186 -20.442   2.219  0.00  0.00     0.142 A 
ATOM     39  O   UNL d   1      18.734 -19.682   1.232  0.00  0.00    -0.326 OA
ENDBRANCH  34  35
ENDBRANCH  32  34
ENDBRANCH  29  32
ENDBRANCH  26  29
ENDBRANCH   2  23
TORSDOF 8
ENDMDL
MODEL 9
REMARK VINA RESULT:   -27.462      4.538      6.504
REMARK INTER + INTRA:         -31.146
REMARK INTER:                 -29.848
REMARK INTRA:                  -1.297
REMARK CONF_INDEPENDENT:        2.386
REMARK UNBOUND:                -1.297
REMARK  8 active torsions:
REMARK  status: ('A' for Active; 'I' for Inactive)
REMARK       I    between atoms: C_2  and  N_3 
REMARK       I    between atoms: C_2  and  N_10 
REMARK    1  A    between atoms: N_3  and  C_4 
REMARK    2  A    between atoms: N_10  and  C_11 
REMARK    3  A    between atoms: C_14  and  N_15 
REMARK       I    between atoms: N_15  and  C_16 
REMARK    4  A    between atoms: C_16  and  C_18 
REMARK    5  A    between atoms: C_21  and  S_22 
REMARK    6  A    between atoms: S_22  and  N_25 
REMARK    7  A    between atoms: N_25  and  C_26 
REMARK    8  A    between atoms: C_26  and  C_27 
ROOT
ATOM      1  N   UNL d   1      26.641 -15.150  -0.853  0.00  0.00    -0.323 N 
ATOM      2  C   UNL d   1      25.852 -15.721  -1.854  0.00  0.00     0.256 C 
ATOM      3  O   UNL d   1      25.963 -15.547  -3.065  0.00  0.00    -0.267 OA
ATOM      4  H   UNL d   1      26.447 -15.383   0.113  0.00  0.00     0.169 HD
ENDROOT
BRANCH   1   5
ATOM      5  C   UNL d   1      27.703 -14.228  -1.098  0.00  0.00     0.035 A 
ATOM      6  C   UNL d   1      27.510 -13.089  -1.895  0.00  0.00     0.032 A 
ATOM      7  C   UNL d   1      28.603 -12.252  -2.229  0.00  0.00     0.032 A 
ATOM      8  C   UNL d   1      29.883 -12.534  -1.738  0.00  0.00     0.036 A 
ATOM      9  C   UNL d   1      30.046 -13.604  -0.877  0.00  0.00     0.032 A 
ATOM     10  C   UNL d   1      28.978 -14.437  -0.575  0.00  0.00     0.032 A 
BRANCH   8  11
ATOM     11  N   UNL d   1      30.984 -11.724  -2.053  0.00  0.00    -0.309 N 
ATOM     12  C   UNL d   1      31.235 -10.420  -1.684  0.00  0.00     0.325 C 
ATOM     13  O   UNL d   1      32.166  -9.824  -2.225  0.00  0.00    -0.247 OA
ATOM     14  N   UNL d   1      30.489  -9.930  -0.631  0.00  0.00    -0.309 N 
ATOM     15  H   UNL d   1      29.982 -10.611  -0.085  0.00  0.00     0.170 HD
ATOM     16  H   UNL d   1      31.682 -12.099  -2.685  0.00  0.00     0.170 HD
BRANCH  14  17
ATOM     17  C   UNL d   1      30.684  -8.673  -0.030  0.00  0.00     0.036 A 
ATOM     18  C   UNL d   1      31.760  -8.507   0.850  0.00  0.00     0.029 A 
ATOM     19  C   UNL d   1      31.965  -7.279   1.485  0.00  0.00     0.002 A 
ATOM     20  C   UNL d   1      31.109  -6.210   1.226  0.00  0.00     0.000 A 
ATOM     21  C   UNL d   1      30.022  -6.382   0.370  0.00  0.00     0.002 A 
ATOM     22  C   UNL d   1      29.811  -7.610  -0.257  0.00  0.00     0.029 A 
ENDBRANCH  14  17
ENDBRANCH   8  11
ENDBRANCH   1   5
BRANCH   2  23
ATOM     23  C   UNL d   1      24.737 -16.620  -1.473  0.00  0.00     0.032 A 
ATOM     24  C   UNL d   1      23.453 -16.055  -1.368  0.00  0.00     0.018 A 
ATOM     25  C   UNL d   1      22.400 -16.782  -0.806  0.00  0.00     0.026 A 
ATOM     26  C   UNL d   1      22.609 -18.108  -0.407  0.00  0.00     0.074 A 
ATOM     27  C   UNL d   1      23.888 -18.671  -0.493  0.00  0.00     0.026 A 
ATOM     28  C   UNL d   1      24.956 -17.921  -1.016  0.00  0.00     0.018 A 
BRANCH  26  29
ATOM     29  S   UNL d   1      21.186 -19.041   0.118  0.00  0.00     0.241 S 
ATOM     30  O   UNL d   1      21.440 -20.428  -0.170  0.00  0.00    -0.206 OA
ATOM     31  O   UNL d   1      20.861 -18.583   1.459  0.00  0.00    -0.206 OA
BRANCH  29  32
ATOM     32  N   UNL d   1      19.905 -18.575  -0.895  0.00  0.00    -0.209 NA
ATOM     33  H   UNL d   1      20.268 -18.182  -1.763  0.00  0.00     0.140 HD
BRANCH  32  34
ATOM     34  C   UNL d   1      19.014 -19.727  -1.209  0.00  0.00     0.169 C 
BRANCH  34  35
ATOM     35  C   UNL d   1      18.531 -20.351   0.057  0.00  0.00     0.066 A 
ATOM     36  C   UNL d   1      17.892 -21.549   0.309  0.00  0.00     0.036 A 
ATOM     37  C   UNL d   1      17.644 -21.593   1.700  0.00  0.00     0.027 A 
ATOM     38  C   UNL d   1      18.186 -20.442   2.219  0.00  0.00     0.142 A 
ATOM     39  O   UNL d   1      18.734 -19.682   1.232  0.00  0.00    -0.326 OA
ENDBRANCH  34  35
ENDBRANCH  32  34
ENDBRANCH  29  32
ENDBRANCH  26  29
ENDBRANCH   2  23
TORSDOF 8
ENDMDL
