MODEL 1
REMARK VINA RESULT:    -7.454      0.000      0.000
REMARK INTER + INTRA:         -11.123
REMARK INTER:                  -9.840
REMARK INTRA:                  -1.283
REMARK CONF_INDEPENDENT:        2.386
REMARK UNBOUND:                -1.283
REMARK  8 active torsions:
REMARK  status: ('A' for Active; 'I' for Inactive)
REMARK    1  A    between atoms: C_3  and  C_2 
REMARK    2  A    between atoms: C_3  and  N_5 
REMARK       I    between atoms: N_5  and  C_6 
REMARK    3  A    between atoms: C_6  and  C_8 
REMARK    4  A    between atoms: C_8  and  C_9 
REMARK    5  A    between atoms: C_9  and  N_10 
REMARK       I    between atoms: N_10  and  C_11 
REMARK       I    between atoms: C_11  and  N_13 
REMARK    6  A    between atoms: N_13  and  O_14 
REMARK    7  A    between atoms: O_14  and  C_15 
REMARK    8  A    between atoms: C_15  and  C_16 
ROOT
ATOM      1  N   UNL d   1      24.448 -17.749   0.298  0.00  0.00    -0.341 N 
ATOM      2  C   UNL d   1      23.407 -17.765  -0.616  0.00  0.00     0.339 C 
ATOM      3  O   UNL d   1      23.593 -17.944  -1.820  0.00  0.00    -0.245 OA
ATOM      4  N   UNL d   1      22.169 -17.570  -0.046  0.00  0.00    -0.216 N 
ATOM      5  H   UNL d   1      24.247 -17.601   1.273  0.00  0.00     0.164 HD
ATOM      6  H   UNL d   1      22.006 -17.416   0.937  0.00  0.00     0.199 HD
ENDROOT
BRANCH   1   7
ATOM      7  C   UNL d   1      25.833 -17.944  -0.140  0.00  0.00     0.134 C 
BRANCH   7   8
ATOM      8  C   UNL d   1      26.750 -16.721   0.050  0.00  0.00     0.122 C 
BRANCH   8   9
ATOM      9  C   UNL d   1      26.596 -15.748  -1.116  0.00  0.00     0.219 C 
ATOM     10  N   UNL d   1      25.836 -16.191  -2.193  0.00  0.00    -0.357 N 
ATOM     11  H   UNL d   1      25.592 -17.171  -2.258  0.00  0.00     0.162 HD
ATOM     12  O   UNL d   1      27.110 -14.632  -1.091  0.00  0.00    -0.274 OA
BRANCH  10  13
ATOM     13  C   UNL d   1      25.634 -15.336  -3.378  0.00  0.00     0.080 C 
ATOM     14  C   UNL d   1      24.746 -14.124  -3.091  0.00  0.00     0.032 C 
BRANCH  13  15
ATOM     15  C   UNL d   1      26.965 -14.940  -4.059  0.00  0.00     0.020 C 
ATOM     16  C   UNL d   1      27.046 -14.869  -5.577  0.00  0.00     0.007 C 
ENDBRANCH  13  15
ENDBRANCH  10  13
ENDBRANCH   8   9
ENDBRANCH   7   8
ENDBRANCH   1   7
BRANCH   4  17
ATOM     17  O   UNL d   1      21.064 -17.587  -0.938  0.00  0.00    -0.272 OA
BRANCH  17  18
ATOM     18  C   UNL d   1      20.669 -18.927  -1.268  0.00  0.00     0.240 C 
BRANCH  18  19
ATOM     19  C   UNL d   1      19.977 -19.620  -0.109  0.00  0.00    -0.032 A 
ATOM     20  C   UNL d   1      18.779 -20.328  -0.275  0.00  0.00     0.009 A 
ATOM     21  C   UNL d   1      18.089 -20.835   0.830  0.00  0.00     0.001 A 
ATOM     22  C   UNL d   1      18.635 -20.726   2.107  0.00  0.00     0.000 A 
ATOM     23  C   UNL d   1      19.854 -20.078   2.285  0.00  0.00     0.001 A 
ATOM     24  C   UNL d   1      20.519 -19.524   1.186  0.00  0.00     0.009 A 
ENDBRANCH  18  19
ENDBRANCH  17  18
ENDBRANCH   4  17
TORSDOF 8
ENDMDL
MODEL 2
REMARK VINA RESULT:    -7.366      1.770      8.690
REMARK INTER + INTRA:         -10.865
REMARK INTER:                  -9.752
REMARK INTRA:                  -1.113
REMARK CONF_INDEPENDENT:        2.386
REMARK UNBOUND:                -1.113
REMARK  8 active torsions:
REMARK  status: ('A' for Active; 'I' for Inactive)
REMARK    1  A    between atoms: C_3  and  C_2 
REMARK    2  A    between atoms: C_3  and  N_5 
REMARK       I    between atoms: N_5  and  C_6 
REMARK    3  A    between atoms: C_6  and  C_8 
REMARK    4  A    between atoms: C_8  and  C_9 
REMARK    5  A    between atoms: C_9  and  N_10 
REMARK       I    between atoms: N_10  and  C_11 
REMARK       I    between atoms: C_11  and  N_13 
REMARK    6  A    between atoms: N_13  and  O_14 
REMARK    7  A    between atoms: O_14  and  C_15 
REMARK    8  A    between atoms: C_15  and  C_16 
ROOT
ATOM      1  N   UNL d   1      24.240 -16.223  -0.961  0.00  0.00    -0.341 N 
ATOM      2  C   UNL d   1      24.802 -15.874  -2.179  0.00  0.00     0.339 C 
ATOM      3  O   UNL d   1      25.745 -16.496  -2.670  0.00  0.00    -0.245 OA
ATOM      4  N   UNL d   1      24.203 -14.784  -2.770  0.00  0.00    -0.216 N 
ATOM      5  H   UNL d   1      23.469 -15.686  -0.600  0.00  0.00     0.164 HD
ATOM      6  H   UNL d   1      23.436 -14.264  -2.374  0.00  0.00     0.199 HD
ENDROOT
BRANCH   1   7
ATOM      7  C   UNL d   1      24.756 -17.363  -0.198  0.00  0.00     0.134 C 
BRANCH   7   8
ATOM      8  C   UNL d   1      23.959 -18.671  -0.370  0.00  0.00     0.122 C 
BRANCH   8   9
ATOM      9  C   UNL d   1      22.461 -18.408  -0.237  0.00  0.00     0.219 C 
ATOM     10  N   UNL d   1      21.689 -19.466   0.230  0.00  0.00    -0.357 N 
ATOM     11  H   UNL d   1      22.091 -20.394   0.270  0.00  0.00     0.162 HD
ATOM     12  O   UNL d   1      21.975 -17.316  -0.520  0.00  0.00    -0.274 OA
BRANCH  10  13
ATOM     13  C   UNL d   1      20.229 -19.325   0.384  0.00  0.00     0.080 C 
ATOM     14  C   UNL d   1      19.488 -19.325  -0.955  0.00  0.00     0.032 C 
BRANCH  13  15
ATOM     15  C   UNL d   1      19.636 -20.348   1.382  0.00  0.00     0.020 C 
ATOM     16  C   UNL d   1      18.434 -21.190   0.977  0.00  0.00     0.007 C 
ENDBRANCH  13  15
ENDBRANCH  10  13
ENDBRANCH   8   9
ENDBRANCH   7   8
ENDBRANCH   1   7
BRANCH   4  17
ATOM     17  O   UNL d   1      24.734 -14.388  -4.027  0.00  0.00    -0.272 OA
BRANCH  17  18
ATOM     18  C   UNL d   1      25.852 -13.503  -3.875  0.00  0.00     0.240 C 
BRANCH  18  19
ATOM     19  C   UNL d   1      27.023 -13.907  -4.751  0.00  0.00    -0.032 A 
ATOM     20  C   UNL d   1      27.467 -13.109  -5.814  0.00  0.00     0.009 A 
ATOM     21  C   UNL d   1      28.453 -13.570  -6.691  0.00  0.00     0.001 A 
ATOM     22  C   UNL d   1      29.078 -14.794  -6.462  0.00  0.00     0.000 A 
ATOM     23  C   UNL d   1      28.692 -15.575  -5.376  0.00  0.00     0.001 A 
ATOM     24  C   UNL d   1      27.668 -15.138  -4.528  0.00  0.00     0.009 A 
ENDBRANCH  18  19
ENDBRANCH  17  18
ENDBRANCH   4  17
TORSDOF 8
ENDMDL
MODEL 3
REMARK VINA RESULT:    -7.348      0.579      1.662
REMARK INTER + INTRA:         -10.513
REMARK INTER:                  -9.734
REMARK INTRA:                  -0.779
REMARK CONF_INDEPENDENT:        2.386
REMARK UNBOUND:                -0.779
REMARK  8 active torsions:
REMARK  status: ('A' for Active; 'I' for Inactive)
REMARK    1  A    between atoms: C_3  and  C_2 
REMARK    2  A    between atoms: C_3  and  N_5 
REMARK       I    between atoms: N_5  and  C_6 
REMARK    3  A    between atoms: C_6  and  C_8 
REMARK    4  A    between atoms: C_8  and  C_9 
REMARK    5  A    between atoms: C_9  and  N_10 
REMARK       I    between atoms: N_10  and  C_11 
REMARK       I    between atoms: C_11  and  N_13 
REMARK    6  A    between atoms: N_13  and  O_14 
REMARK    7  A    between atoms: O_14  and  C_15 
REMARK    8  A    between atoms: C_15  and  C_16 
ROOT
ATOM      1  N   UNL d   1      24.539 -17.678   0.242  0.00  0.00    -0.341 N 
ATOM      2  C   UNL d   1      23.460 -17.780  -0.622  0.00  0.00     0.339 C 
ATOM      3  O   UNL d   1      23.582 -18.180  -1.780  0.00  0.00    -0.245 OA
ATOM      4  N   UNL d   1      22.263 -17.401  -0.057  0.00  0.00    -0.216 N 
ATOM      5  H   UNL d   1      24.391 -17.348   1.182  0.00  0.00     0.164 HD
ATOM      6  H   UNL d   1      22.154 -17.066   0.888  0.00  0.00     0.199 HD
ENDROOT
BRANCH   1   7
ATOM      7  C   UNL d   1      25.888 -18.045  -0.198  0.00  0.00     0.134 C 
BRANCH   7   8
ATOM      8  C   UNL d   1      26.934 -16.919  -0.083  0.00  0.00     0.122 C 
BRANCH   8   9
ATOM      9  C   UNL d   1      26.660 -15.825  -1.111  0.00  0.00     0.219 C 
ATOM     10  N   UNL d   1      27.173 -16.034  -2.386  0.00  0.00    -0.357 N 
ATOM     11  H   UNL d   1      27.853 -16.769  -2.533  0.00  0.00     0.162 HD
ATOM     12  O   UNL d   1      26.011 -14.822  -0.821  0.00  0.00    -0.274 OA
BRANCH  10  13
ATOM     13  C   UNL d   1      26.977 -15.034  -3.453  0.00  0.00     0.080 C 
ATOM     14  C   UNL d   1      28.000 -15.165  -4.584  0.00  0.00     0.032 C 
BRANCH  13  15
ATOM     15  C   UNL d   1      25.522 -15.002  -3.978  0.00  0.00     0.020 C 
ATOM     16  C   UNL d   1      24.427 -14.374  -3.129  0.00  0.00     0.007 C 
ENDBRANCH  13  15
ENDBRANCH  10  13
ENDBRANCH   8   9
ENDBRANCH   7   8
ENDBRANCH   1   7
BRANCH   4  17
ATOM     17  O   UNL d   1      21.122 -17.496  -0.896  0.00  0.00    -0.272 OA
BRANCH  17  18
ATOM     18  C   UNL d   1      20.813 -18.859  -1.220  0.00  0.00     0.240 C 
BRANCH  18  19
ATOM     19  C   UNL d   1      19.964 -19.521  -0.150  0.00  0.00    -0.032 A 
ATOM     20  C   UNL d   1      20.344 -19.532   1.199  0.00  0.00     0.009 A 
ATOM     21  C   UNL d   1      19.620 -20.269   2.140  0.00  0.00     0.001 A 
ATOM     22  C   UNL d   1      18.450 -20.927   1.765  0.00  0.00     0.000 A 
ATOM     23  C   UNL d   1      18.023 -20.878   0.440  0.00  0.00     0.001 A 
ATOM     24  C   UNL d   1      18.777 -20.184  -0.513  0.00  0.00     0.009 A 
ENDBRANCH  18  19
ENDBRANCH  17  18
ENDBRANCH   4  17
TORSDOF 8
ENDMDL
MODEL 4
REMARK VINA RESULT:    -7.101      6.886      9.571
REMARK INTER + INTRA:          -9.935
REMARK INTER:                  -9.488
REMARK INTRA:                  -0.447
REMARK CONF_INDEPENDENT:        2.386
REMARK UNBOUND:                -0.447
REMARK  8 active torsions:
REMARK  status: ('A' for Active; 'I' for Inactive)
REMARK    1  A    between atoms: C_3  and  C_2 
REMARK    2  A    between atoms: C_3  and  N_5 
REMARK       I    between atoms: N_5  and  C_6 
REMARK    3  A    between atoms: C_6  and  C_8 
REMARK    4  A    between atoms: C_8  and  C_9 
REMARK    5  A    between atoms: C_9  and  N_10 
REMARK       I    between atoms: N_10  and  C_11 
REMARK       I    between atoms: C_11  and  N_13 
REMARK    6  A    between atoms: N_13  and  O_14 
REMARK    7  A    between atoms: O_14  and  C_15 
REMARK    8  A    between atoms: C_15  and  C_16 
ROOT
ATOM      1  N   UNL d   1      28.510 -14.873   4.300  0.00  0.00    -0.341 N 
ATOM      2  C   UNL d   1      27.801 -14.478   3.177  0.00  0.00     0.339 C 
ATOM      3  O   UNL d   1      26.975 -13.565   3.210  0.00  0.00    -0.245 OA
ATOM      4  N   UNL d   1      28.117 -15.195   2.045  0.00  0.00    -0.216 N 
ATOM      5  H   UNL d   1      29.177 -15.624   4.225  0.00  0.00     0.164 HD
ATOM      6  H   UNL d   1      28.786 -15.948   2.009  0.00  0.00     0.199 HD
ENDROOT
BRANCH   1   7
ATOM      7  C   UNL d   1      28.298 -14.212   5.591  0.00  0.00     0.134 C 
BRANCH   7   8
ATOM      8  C   UNL d   1      29.562 -14.068   6.460  0.00  0.00     0.122 C 
BRANCH   8   9
ATOM      9  C   UNL d   1      29.196 -13.617   7.871  0.00  0.00     0.219 C 
ATOM     10  N   UNL d   1      29.598 -14.450   8.909  0.00  0.00    -0.357 N 
ATOM     11  H   UNL d   1      29.924 -15.384   8.697  0.00  0.00     0.162 HD
ATOM     12  O   UNL d   1      28.587 -12.568   8.070  0.00  0.00    -0.274 OA
BRANCH  10  13
ATOM     13  C   UNL d   1      29.285 -14.116  10.311  0.00  0.00     0.080 C 
ATOM     14  C   UNL d   1      27.781 -14.028  10.578  0.00  0.00     0.032 C 
BRANCH  13  15
ATOM     15  C   UNL d   1      30.006 -15.044  11.318  0.00  0.00     0.020 C 
ATOM     16  C   UNL d   1      30.781 -16.251  10.811  0.00  0.00     0.007 C 
ENDBRANCH  13  15
ENDBRANCH  10  13
ENDBRANCH   8   9
ENDBRANCH   7   8
ENDBRANCH   1   7
BRANCH   4  17
ATOM     17  O   UNL d   1      27.426 -14.823   0.861  0.00  0.00    -0.272 OA
BRANCH  17  18
ATOM     18  C   UNL d   1      27.501 -15.847  -0.141  0.00  0.00     0.240 C 
BRANCH  18  19
ATOM     19  C   UNL d   1      26.169 -16.547  -0.343  0.00  0.00    -0.032 A 
ATOM     20  C   UNL d   1      25.117 -15.951  -1.053  0.00  0.00     0.009 A 
ATOM     21  C   UNL d   1      23.857 -16.553  -1.102  0.00  0.00     0.001 A 
ATOM     22  C   UNL d   1      23.656 -17.805  -0.525  0.00  0.00     0.000 A 
ATOM     23  C   UNL d   1      24.706 -18.441   0.133  0.00  0.00     0.001 A 
ATOM     24  C   UNL d   1      25.953 -17.814   0.229  0.00  0.00     0.009 A 
ENDBRANCH  18  19
ENDBRANCH  17  18
ENDBRANCH   4  17
TORSDOF 8
ENDMDL
MODEL 5
REMARK VINA RESULT:    -7.008      1.463      8.273
REMARK INTER + INTRA:         -10.021
REMARK INTER:                  -9.394
REMARK INTRA:                  -0.627
REMARK CONF_INDEPENDENT:        2.386
REMARK UNBOUND:                -0.627
REMARK  8 active torsions:
REMARK  status: ('A' for Active; 'I' for Inactive)
REMARK    1  A    between atoms: C_3  and  C_2 
REMARK    2  A    between atoms: C_3  and  N_5 
REMARK       I    between atoms: N_5  and  C_6 
REMARK    3  A    between atoms: C_6  and  C_8 
REMARK    4  A    between atoms: C_8  and  C_9 
REMARK    5  A    between atoms: C_9  and  N_10 
REMARK       I    between atoms: N_10  and  C_11 
REMARK       I    between atoms: C_11  and  N_13 
REMARK    6  A    between atoms: N_13  and  O_14 
REMARK    7  A    between atoms: O_14  and  C_15 
REMARK    8  A    between atoms: C_15  and  C_16 
ROOT
ATOM      1  N   UNL d   1      25.386 -17.809  -0.061  0.00  0.00    -0.341 N 
ATOM      2  C   UNL d   1      26.101 -16.706  -0.500  0.00  0.00     0.339 C 
ATOM      3  O   UNL d   1      25.550 -15.652  -0.822  0.00  0.00    -0.245 OA
ATOM      4  N   UNL d   1      27.463 -16.908  -0.532  0.00  0.00    -0.216 N 
ATOM      5  H   UNL d   1      25.880 -18.649   0.193  0.00  0.00     0.164 HD
ATOM      6  H   UNL d   1      27.923 -17.768  -0.277  0.00  0.00     0.199 HD
ENDROOT
BRANCH   1   7
ATOM      7  C   UNL d   1      23.925 -17.764   0.036  0.00  0.00     0.134 C 
BRANCH   7   8
ATOM      8  C   UNL d   1      23.205 -19.039  -0.447  0.00  0.00     0.122 C 
BRANCH   8   9
ATOM      9  C   UNL d   1      21.691 -18.850  -0.401  0.00  0.00     0.219 C 
ATOM     10  N   UNL d   1      20.980 -19.763   0.370  0.00  0.00    -0.357 N 
ATOM     11  H   UNL d   1      21.440 -20.605   0.693  0.00  0.00     0.162 HD
ATOM     12  O   UNL d   1      21.141 -17.934  -1.006  0.00  0.00    -0.274 OA
BRANCH  10  13
ATOM     13  C   UNL d   1      19.510 -19.682   0.473  0.00  0.00     0.080 C 
ATOM     14  C   UNL d   1      18.817 -19.699  -0.890  0.00  0.00     0.032 C 
BRANCH  13  15
ATOM     15  C   UNL d   1      18.924 -20.736   1.443  0.00  0.00     0.020 C 
ATOM     16  C   UNL d   1      17.729 -21.575   1.013  0.00  0.00     0.007 C 
ENDBRANCH  13  15
ENDBRANCH  10  13
ENDBRANCH   8   9
ENDBRANCH   7   8
ENDBRANCH   1   7
BRANCH   4  17
ATOM     17  O   UNL d   1      28.245 -15.804  -0.965  0.00  0.00    -0.272 OA
BRANCH  17  18
ATOM     18  C   UNL d   1      28.340 -15.749  -2.395  0.00  0.00     0.240 C 
BRANCH  18  19
ATOM     19  C   UNL d   1      27.289 -14.839  -3.003  0.00  0.00    -0.032 A 
ATOM     20  C   UNL d   1      26.915 -13.630  -2.400  0.00  0.00     0.009 A 
ATOM     21  C   UNL d   1      25.847 -12.882  -2.902  0.00  0.00     0.001 A 
ATOM     22  C   UNL d   1      25.199 -13.280  -4.069  0.00  0.00     0.000 A 
ATOM     23  C   UNL d   1      25.596 -14.448  -4.716  0.00  0.00     0.001 A 
ATOM     24  C   UNL d   1      26.630 -15.226  -4.184  0.00  0.00     0.009 A 
ENDBRANCH  18  19
ENDBRANCH  17  18
ENDBRANCH   4  17
TORSDOF 8
ENDMDL
MODEL 6
REMARK VINA RESULT:    -6.906      1.628      7.803
REMARK INTER + INTRA:          -9.860
REMARK INTER:                  -9.292
REMARK INTRA:                  -0.568
REMARK CONF_INDEPENDENT:        2.386
REMARK UNBOUND:                -0.568
REMARK  8 active torsions:
REMARK  status: ('A' for Active; 'I' for Inactive)
REMARK    1  A    between atoms: C_3  and  C_2 
REMARK    2  A    between atoms: C_3  and  N_5 
REMARK       I    between atoms: N_5  and  C_6 
REMARK    3  A    between atoms: C_6  and  C_8 
REMARK    4  A    between atoms: C_8  and  C_9 
REMARK    5  A    between atoms: C_9  and  N_10 
REMARK       I    between atoms: N_10  and  C_11 
REMARK       I    between atoms: C_11  and  N_13 
REMARK    6  A    between atoms: N_13  and  O_14 
REMARK    7  A    between atoms: O_14  and  C_15 
REMARK    8  A    between atoms: C_15  and  C_16 
ROOT
ATOM      1  N   UNL d   1      23.414 -16.662  -0.594  0.00  0.00    -0.341 N 
ATOM      2  C   UNL d   1      24.303 -16.528  -1.648  0.00  0.00     0.339 C 
ATOM      3  O   UNL d   1      25.099 -17.417  -1.952  0.00  0.00    -0.245 OA
ATOM      4  N   UNL d   1      24.198 -15.325  -2.309  0.00  0.00    -0.216 N 
ATOM      5  H   UNL d   1      22.780 -15.908  -0.383  0.00  0.00     0.164 HD
ATOM      6  H   UNL d   1      23.555 -14.588  -2.064  0.00  0.00     0.199 HD
ENDROOT
BRANCH   1   7
ATOM      7  C   UNL d   1      23.389 -17.884   0.215  0.00  0.00     0.134 C 
BRANCH   7   8
ATOM      8  C   UNL d   1      22.975 -19.156  -0.548  0.00  0.00     0.122 C 
BRANCH   8   9
ATOM      9  C   UNL d   1      21.454 -19.291  -0.582  0.00  0.00     0.219 C 
ATOM     10  N   UNL d   1      20.816 -19.372   0.651  0.00  0.00    -0.357 N 
ATOM     11  H   UNL d   1      21.365 -19.538   1.484  0.00  0.00     0.162 HD
ATOM     12  O   UNL d   1      20.837 -19.316  -1.644  0.00  0.00    -0.274 OA
BRANCH  10  13
ATOM     13  C   UNL d   1      19.350 -19.518   0.734  0.00  0.00     0.080 C 
ATOM     14  C   UNL d   1      18.764 -20.301  -0.442  0.00  0.00     0.032 C 
BRANCH  13  15
ATOM     15  C   UNL d   1      18.886 -20.076   2.101  0.00  0.00     0.020 C 
ATOM     16  C   UNL d   1      19.919 -20.450   3.154  0.00  0.00     0.007 C 
ENDBRANCH  13  15
ENDBRANCH  10  13
ENDBRANCH   8   9
ENDBRANCH   7   8
ENDBRANCH   1   7
BRANCH   4  17
ATOM     17  O   UNL d   1      25.081 -15.139  -3.407  0.00  0.00    -0.272 OA
BRANCH  17  18
ATOM     18  C   UNL d   1      26.260 -14.419  -3.024  0.00  0.00     0.240 C 
BRANCH  18  19
ATOM     19  C   UNL d   1      26.967 -15.065  -1.847  0.00  0.00    -0.032 A 
ATOM     20  C   UNL d   1      27.811 -16.173  -2.003  0.00  0.00     0.009 A 
ATOM     21  C   UNL d   1      28.335 -16.835  -0.890  0.00  0.00     0.001 A 
ATOM     22  C   UNL d   1      28.102 -16.343   0.392  0.00  0.00     0.000 A 
ATOM     23  C   UNL d   1      27.315 -15.207   0.565  0.00  0.00     0.001 A 
ATOM     24  C   UNL d   1      26.746 -14.575  -0.546  0.00  0.00     0.009 A 
ENDBRANCH  18  19
ENDBRANCH  17  18
ENDBRANCH   4  17
TORSDOF 8
ENDMDL
MODEL 7
REMARK VINA RESULT:    -6.717      2.539      8.663
REMARK INTER + INTRA:         -10.134
REMARK INTER:                  -9.104
REMARK INTRA:                  -1.030
REMARK CONF_INDEPENDENT:        2.386
REMARK UNBOUND:                -1.030
REMARK  8 active torsions:
REMARK  status: ('A' for Active; 'I' for Inactive)
REMARK    1  A    between atoms: C_3  and  C_2 
REMARK    2  A    between atoms: C_3  and  N_5 
REMARK       I    between atoms: N_5  and  C_6 
REMARK    3  A    between atoms: C_6  and  C_8 
REMARK    4  A    between atoms: C_8  and  C_9 
REMARK    5  A    between atoms: C_9  and  N_10 
REMARK       I    between atoms: N_10  and  C_11 
REMARK       I    between atoms: C_11  and  N_13 
REMARK    6  A    between atoms: N_13  and  O_14 
REMARK    7  A    between atoms: O_14  and  C_15 
REMARK    8  A    between atoms: C_15  and  C_16 
ROOT
ATOM      1  N   UNL d   1      24.763 -15.904  -1.148  0.00  0.00    -0.341 N 
ATOM      2  C   UNL d   1      25.303 -15.699  -2.408  0.00  0.00     0.339 C 
ATOM      3  O   UNL d   1      26.269 -16.341  -2.821  0.00  0.00    -0.245 OA
ATOM      4  N   UNL d   1      24.653 -14.726  -3.134  0.00  0.00    -0.216 N 
ATOM      5  H   UNL d   1      23.972 -15.356  -0.854  0.00  0.00     0.164 HD
ATOM      6  H   UNL d   1      23.866 -14.190  -2.803  0.00  0.00     0.199 HD
ENDROOT
BRANCH   1   7
ATOM      7  C   UNL d   1      25.333 -16.907  -0.243  0.00  0.00     0.134 C 
BRANCH   7   8
ATOM      8  C   UNL d   1      24.611 -18.267  -0.248  0.00  0.00     0.122 C 
BRANCH   8   9
ATOM      9  C   UNL d   1      23.099 -18.072  -0.330  0.00  0.00     0.219 C 
ATOM     10  N   UNL d   1      22.316 -19.100   0.183  0.00  0.00    -0.357 N 
ATOM     11  H   UNL d   1      22.745 -19.992   0.396  0.00  0.00     0.162 HD
ATOM     12  O   UNL d   1      22.610 -17.054  -0.814  0.00  0.00    -0.274 OA
BRANCH  10  13
ATOM     13  C   UNL d   1      20.843 -19.021   0.143  0.00  0.00     0.080 C 
ATOM     14  C   UNL d   1      20.279 -19.169  -1.272  0.00  0.00     0.032 C 
BRANCH  13  15
ATOM     15  C   UNL d   1      20.169 -19.985   1.148  0.00  0.00     0.020 C 
ATOM     16  C   UNL d   1      19.388 -21.186   0.633  0.00  0.00     0.007 C 
ENDBRANCH  13  15
ENDBRANCH  10  13
ENDBRANCH   8   9
ENDBRANCH   7   8
ENDBRANCH   1   7
BRANCH   4  17
ATOM     17  O   UNL d   1      25.159 -14.483  -4.439  0.00  0.00    -0.272 OA
BRANCH  17  18
ATOM     18  C   UNL d   1      26.385 -13.739  -4.402  0.00  0.00     0.240 C 
BRANCH  18  19
ATOM     19  C   UNL d   1      26.149 -12.244  -4.516  0.00  0.00    -0.032 A 
ATOM     20  C   UNL d   1      25.892 -11.445  -3.393  0.00  0.00     0.009 A 
ATOM     21  C   UNL d   1      25.538 -10.101  -3.539  0.00  0.00     0.001 A 
ATOM     22  C   UNL d   1      25.530  -9.511  -4.801  0.00  0.00     0.000 A 
ATOM     23  C   UNL d   1      25.841 -10.274  -5.923  0.00  0.00     0.001 A 
ATOM     24  C   UNL d   1      26.143 -11.633  -5.783  0.00  0.00     0.009 A 
ENDBRANCH  18  19
ENDBRANCH  17  18
ENDBRANCH   4  17
TORSDOF 8
ENDMDL
MODEL 8
REMARK VINA RESULT:    -6.106      3.408      4.767
REMARK INTER + INTRA:         -10.182
REMARK INTER:                  -8.492
REMARK INTRA:                  -1.690
REMARK CONF_INDEPENDENT:        2.386
REMARK UNBOUND:                -1.690
REMARK  8 active torsions:
REMARK  status: ('A' for Active; 'I' for Inactive)
REMARK    1  A    between atoms: C_3  and  C_2 
REMARK    2  A    between atoms: C_3  and  N_5 
REMARK       I    between atoms: N_5  and  C_6 
REMARK    3  A    between atoms: C_6  and  C_8 
REMARK    4  A    between atoms: C_8  and  C_9 
REMARK    5  A    between atoms: C_9  and  N_10 
REMARK       I    between atoms: N_10  and  C_11 
REMARK       I    between atoms: C_11  and  N_13 
REMARK    6  A    between atoms: N_13  and  O_14 
REMARK    7  A    between atoms: O_14  and  C_15 
REMARK    8  A    between atoms: C_15  and  C_16 
ROOT
ATOM      1  N   UNL d   1      29.415 -16.328  -1.907  0.00  0.00    -0.341 N 
ATOM      2  C   UNL d   1      28.219 -16.897  -1.498  0.00  0.00     0.339 C 
ATOM      3  O   UNL d   1      27.139 -16.589  -2.003  0.00  0.00    -0.245 OA
ATOM      4  N   UNL d   1      28.366 -17.828  -0.494  0.00  0.00    -0.216 N 
ATOM      5  H   UNL d   1      30.274 -16.613  -1.465  0.00  0.00     0.164 HD
ATOM      6  H   UNL d   1      29.244 -18.082  -0.069  0.00  0.00     0.199 HD
ENDROOT
BRANCH   1   7
ATOM      7  C   UNL d   1      29.439 -15.320  -2.970  0.00  0.00     0.134 C 
BRANCH   7   8
ATOM      8  C   UNL d   1      29.043 -15.840  -4.365  0.00  0.00     0.122 C 
BRANCH   8   9
ATOM      9  C   UNL d   1      27.722 -15.221  -4.814  0.00  0.00     0.219 C 
ATOM     10  N   UNL d   1      26.924 -14.679  -3.813  0.00  0.00    -0.357 N 
ATOM     11  H   UNL d   1      27.135 -14.883  -2.844  0.00  0.00     0.162 HD
ATOM     12  O   UNL d   1      27.395 -15.199  -5.998  0.00  0.00    -0.274 OA
BRANCH  10  13
ATOM     13  C   UNL d   1      25.620 -14.067  -4.134  0.00  0.00     0.080 C 
ATOM     14  C   UNL d   1      24.526 -14.442  -3.133  0.00  0.00     0.032 C 
BRANCH  13  15
ATOM     15  C   UNL d   1      25.719 -12.538  -4.349  0.00  0.00     0.020 C 
ATOM     16  C   UNL d   1      26.399 -11.993  -5.597  0.00  0.00     0.007 C 
ENDBRANCH  13  15
ENDBRANCH  10  13
ENDBRANCH   8   9
ENDBRANCH   7   8
ENDBRANCH   1   7
BRANCH   4  17
ATOM     17  O   UNL d   1      27.171 -18.451  -0.044  0.00  0.00    -0.272 OA
BRANCH  17  18
ATOM     18  C   UNL d   1      26.254 -17.499   0.513  0.00  0.00     0.240 C 
BRANCH  18  19
ATOM     19  C   UNL d   1      24.852 -17.663  -0.045  0.00  0.00    -0.032 A 
ATOM     20  C   UNL d   1      24.074 -16.564  -0.435  0.00  0.00     0.009 A 
ATOM     21  C   UNL d   1      22.739 -16.731  -0.811  0.00  0.00     0.001 A 
ATOM     22  C   UNL d   1      22.188 -18.008  -0.895  0.00  0.00     0.000 A 
ATOM     23  C   UNL d   1      22.964 -19.118  -0.569  0.00  0.00     0.001 A 
ATOM     24  C   UNL d   1      24.285 -18.947  -0.141  0.00  0.00     0.009 A 
ENDBRANCH  18  19
ENDBRANCH  17  18
ENDBRANCH   4  17
TORSDOF 8
ENDMDL
MODEL 9
REMARK VINA RESULT:    -5.831      4.021      6.720
REMARK INTER + INTRA:          -9.805
REMARK INTER:                  -8.217
REMARK INTRA:                  -1.588
REMARK CONF_INDEPENDENT:        2.386
REMARK UNBOUND:                -1.588
REMARK  8 active torsions:
REMARK  status: ('A' for Active; 'I' for Inactive)
REMARK    1  A    between atoms: C_3  and  C_2 
REMARK    2  A    between atoms: C_3  and  N_5 
REMARK       I    between atoms: N_5  and  C_6 
REMARK    3  A    between atoms: C_6  and  C_8 
REMARK    4  A    between atoms: C_8  and  C_9 
REMARK    5  A    between atoms: C_9  and  N_10 
REMARK       I    between atoms: N_10  and  C_11 
REMARK       I    between atoms: C_11  and  N_13 
REMARK    6  A    between atoms: N_13  and  O_14 
REMARK    7  A    between atoms: O_14  and  C_15 
REMARK    8  A    between atoms: C_15  and  C_16 
ROOT
ATOM      1  N   UNL d   1      25.540 -11.884  -5.377  0.00  0.00    -0.341 N 
ATOM      2  C   UNL d   1      25.873 -13.000  -4.625  0.00  0.00     0.339 C 
ATOM      3  O   UNL d   1      26.965 -13.115  -4.068  0.00  0.00    -0.245 OA
ATOM      4  N   UNL d   1      24.870 -13.942  -4.563  0.00  0.00    -0.216 N 
ATOM      5  H   UNL d   1      24.634 -11.834  -5.812  0.00  0.00     0.164 HD
ATOM      6  H   UNL d   1      23.976 -13.861  -5.020  0.00  0.00     0.199 HD
ENDROOT
BRANCH   1   7
ATOM      7  C   UNL d   1      26.492 -10.783  -5.544  0.00  0.00     0.134 C 
BRANCH   7   8
ATOM      8  C   UNL d   1      26.988 -10.569  -6.987  0.00  0.00     0.122 C 
BRANCH   8   9
ATOM      9  C   UNL d   1      27.686 -11.824  -7.506  0.00  0.00     0.219 C 
ATOM     10  N   UNL d   1      28.202 -12.685  -6.544  0.00  0.00    -0.357 N 
ATOM     11  H   UNL d   1      28.278 -12.370  -5.585  0.00  0.00     0.162 HD
ATOM     12  O   UNL d   1      27.773 -12.057  -8.710  0.00  0.00    -0.274 OA
BRANCH  10  13
ATOM     13  C   UNL d   1      28.907 -13.921  -6.935  0.00  0.00     0.080 C 
ATOM     14  C   UNL d   1      30.429 -13.769  -6.908  0.00  0.00     0.032 C 
BRANCH  13  15
ATOM     15  C   UNL d   1      28.426 -15.157  -6.138  0.00  0.00     0.020 C 
ATOM     16  C   UNL d   1      28.877 -15.348  -4.697  0.00  0.00     0.007 C 
ENDBRANCH  13  15
ENDBRANCH  10  13
ENDBRANCH   8   9
ENDBRANCH   7   8
ENDBRANCH   1   7
BRANCH   4  17
ATOM     17  O   UNL d   1      25.155 -15.103  -3.795  0.00  0.00    -0.272 OA
BRANCH  17  18
ATOM     18  C   UNL d   1      25.358 -14.786  -2.411  0.00  0.00     0.240 C 
BRANCH  18  19
ATOM     19  C   UNL d   1      25.041 -15.961  -1.505  0.00  0.00    -0.032 A 
ATOM     20  C   UNL d   1      26.048 -16.737  -0.914  0.00  0.00     0.009 A 
ATOM     21  C   UNL d   1      25.732 -17.897  -0.201  0.00  0.00     0.001 A 
ATOM     22  C   UNL d   1      24.400 -18.246   0.014  0.00  0.00     0.000 A 
ATOM     23  C   UNL d   1      23.384 -17.454  -0.514  0.00  0.00     0.001 A 
ATOM     24  C   UNL d   1      23.701 -16.322  -1.273  0.00  0.00     0.009 A 
ENDBRANCH  18  19
ENDBRANCH  17  18
ENDBRANCH   4  17
TORSDOF 8
ENDMDL
