MODEL 1
REMARK VINA RESULT:   -10.250      0.000      0.000
REMARK INTER + INTRA:         -15.625
REMARK INTER:                 -14.128
REMARK INTRA:                  -1.498
REMARK CONF_INDEPENDENT:        3.878
REMARK UNBOUND:                -1.498
REMARK  13 active torsions:
REMARK  status: ('A' for Active; 'I' for Inactive)
REMARK    1  A    between atoms: C_4  and  O_5 
REMARK    2  A    between atoms: O_5  and  C_6 
REMARK    3  A    between atoms: C_6  and  C_8 
REMARK    4  A    between atoms: C_8  and  C_9 
REMARK    5  A    between atoms: C_9  and  C_10 
REMARK    6  A    between atoms: C_10  and  C_11 
REMARK    7  A    between atoms: C_11  and  C_12 
REMARK    8  A    between atoms: C_12  and  N_13 
REMARK       I    between atoms: N_13  and  C_14 
REMARK    9  A    between atoms: C_14  and  O_16 
REMARK   10  A    between atoms: O_16  and  C_17 
REMARK   11  A    between atoms: C_17  and  C_18 
REMARK   12  A    between atoms: C_27  and  C_28 
REMARK   13  A    between atoms: C_28  and  C_29 
ROOT
ATOM      1  C   UNL d   1      26.378  -9.423   1.855  0.00  0.00     0.048 C 
ATOM      2  C   UNL d   1      26.966 -10.428   2.786  0.00  0.00    -0.057 A 
ATOM      3  C   UNL d   1      26.894 -11.751   2.390  0.00  0.00     0.045 A 
ATOM      4  C   UNL d   1      27.390 -12.759   3.183  0.00  0.00     0.093 A 
ATOM      5  C   UNL d   1      27.961 -12.454   4.443  0.00  0.00     0.038 A 
ATOM      6  C   UNL d   1      28.466 -13.439   5.392  0.00  0.00    -0.034 A 
ATOM      7  C   UNL d   1      28.292 -14.838   4.966  0.00  0.00     0.050 C 
ATOM      8  C   UNL d   1      29.140 -13.116   6.524  0.00  0.00     0.029 A 
ATOM      9  C   UNL d   1      29.246 -11.673   6.904  0.00  0.00     0.295 A 
ATOM     10  O   UNL d   1      29.785 -11.313   7.946  0.00  0.00    -0.259 OA
ATOM     11  O   UNL d   1      28.685 -10.743   6.025  0.00  0.00    -0.274 OA
ATOM     12  C   UNL d   1      28.065 -11.116   4.813  0.00  0.00     0.093 A 
ATOM     13  C   UNL d   1      27.569 -10.096   4.000  0.00  0.00     0.045 A 
ENDROOT
BRANCH   4  14
ATOM     14  O   UNL d   1      27.326 -14.099   2.680  0.00  0.00    -0.278 OA
BRANCH  14  15
ATOM     15  C   UNL d   1      27.105 -14.521   1.373  0.00  0.00     0.264 C 
ATOM     16  O   UNL d   1      26.379 -13.953   0.567  0.00  0.00    -0.265 OA
BRANCH  15  17
ATOM     17  C   UNL d   1      27.865 -15.786   1.023  0.00  0.00     0.111 C 
BRANCH  17  18
ATOM     18  C   UNL d   1      28.110 -15.688  -0.490  0.00  0.00     0.010 C 
BRANCH  18  19
ATOM     19  C   UNL d   1      27.463 -16.779  -1.320  0.00  0.00     0.002 C 
BRANCH  19  20
ATOM     20  C   UNL d   1      26.160 -17.250  -0.650  0.00  0.00     0.020 C 
BRANCH  20  21
ATOM     21  C   UNL d   1      24.963 -16.465  -1.182  0.00  0.00     0.125 C 
BRANCH  21  22
ATOM     22  N   UNL d   1      23.747 -17.248  -1.312  0.00  0.00    -0.337 N 
ATOM     23  C   UNL d   1      22.605 -16.899  -0.621  0.00  0.00     0.360 C 
ATOM     24  O   UNL d   1      22.528 -15.952   0.136  0.00  0.00    -0.239 OA
ATOM     25  H   UNL d   1      23.708 -18.056  -1.917  0.00  0.00     0.164 HD
BRANCH  23  26
ATOM     26  O   UNL d   1      21.579 -17.754  -0.902  0.00  0.00    -0.299 OA
BRANCH  26  27
ATOM     27  C   UNL d   1      21.757 -19.103  -0.395  0.00  0.00     0.219 C 
BRANCH  27  28
ATOM     28  C   UNL d   1      20.515 -19.621   0.322  0.00  0.00    -0.034 A 
ATOM     29  C   UNL d   1      20.404 -19.553   1.725  0.00  0.00     0.009 A 
ATOM     30  C   UNL d   1      19.348 -20.190   2.393  0.00  0.00     0.001 A 
ATOM     31  C   UNL d   1      18.333 -20.805   1.665  0.00  0.00     0.000 A 
ATOM     32  C   UNL d   1      18.367 -20.769   0.275  0.00  0.00     0.001 A 
ATOM     33  C   UNL d   1      19.472 -20.231  -0.387  0.00  0.00     0.009 A 
ENDBRANCH  27  28
ENDBRANCH  26  27
ENDBRANCH  23  26
ENDBRANCH  21  22
ENDBRANCH  20  21
ENDBRANCH  19  20
ENDBRANCH  18  19
ENDBRANCH  17  18
ENDBRANCH  15  17
ENDBRANCH  14  15
ENDBRANCH   4  14
BRANCH   8  34
ATOM     34  C   UNL d   1      29.860 -14.086   7.506  0.00  0.00     0.084 C 
BRANCH  34  35
ATOM     35  C   UNL d   1      29.340 -14.157   8.957  0.00  0.00    -0.054 C 
ATOM     36  C   UNL d   1      28.193 -13.428   9.337  0.00  0.00     0.007 C 
ATOM     37  C   UNL d   1      28.089 -12.937  10.657  0.00  0.00     0.001 C 
ATOM     38  C   UNL d   1      28.962 -13.381  11.646  0.00  0.00     0.000 C 
ATOM     39  C   UNL d   1      29.920 -14.339  11.322  0.00  0.00     0.001 C 
ATOM     40  C   UNL d   1      30.154 -14.678   9.979  0.00  0.00     0.007 C 
ENDBRANCH  34  35
ENDBRANCH   8  34
TORSDOF 13
ENDMDL
MODEL 2
REMARK VINA RESULT:    -9.838      6.698     10.931
REMARK INTER + INTRA:         -15.701
REMARK INTER:                 -13.715
REMARK INTRA:                  -1.985
REMARK CONF_INDEPENDENT:        3.878
REMARK UNBOUND:                -1.985
REMARK  13 active torsions:
REMARK  status: ('A' for Active; 'I' for Inactive)
REMARK    1  A    between atoms: C_4  and  O_5 
REMARK    2  A    between atoms: O_5  and  C_6 
REMARK    3  A    between atoms: C_6  and  C_8 
REMARK    4  A    between atoms: C_8  and  C_9 
REMARK    5  A    between atoms: C_9  and  C_10 
REMARK    6  A    between atoms: C_10  and  C_11 
REMARK    7  A    between atoms: C_11  and  C_12 
REMARK    8  A    between atoms: C_12  and  N_13 
REMARK       I    between atoms: N_13  and  C_14 
REMARK    9  A    between atoms: C_14  and  O_16 
REMARK   10  A    between atoms: O_16  and  C_17 
REMARK   11  A    between atoms: C_17  and  C_18 
REMARK   12  A    between atoms: C_27  and  C_28 
REMARK   13  A    between atoms: C_28  and  C_29 
ROOT
ATOM      1  C   UNL d   1      31.542 -16.230  -7.151  0.00  0.00     0.048 C 
ATOM      2  C   UNL d   1      30.582 -16.011  -6.031  0.00  0.00    -0.057 A 
ATOM      3  C   UNL d   1      31.093 -16.127  -4.751  0.00  0.00     0.045 A 
ATOM      4  C   UNL d   1      30.289 -15.962  -3.647  0.00  0.00     0.093 A 
ATOM      5  C   UNL d   1      28.908 -15.696  -3.809  0.00  0.00     0.038 A 
ATOM      6  C   UNL d   1      27.950 -15.558  -2.719  0.00  0.00    -0.034 A 
ATOM      7  C   UNL d   1      28.520 -15.773  -1.379  0.00  0.00     0.050 C 
ATOM      8  C   UNL d   1      26.664 -15.159  -2.893  0.00  0.00     0.029 A 
ATOM      9  C   UNL d   1      26.152 -14.993  -4.289  0.00  0.00     0.295 A 
ATOM     10  O   UNL d   1      24.984 -14.697  -4.520  0.00  0.00    -0.259 OA
ATOM     11  O   UNL d   1      27.060 -15.208  -5.327  0.00  0.00    -0.274 OA
ATOM     12  C   UNL d   1      28.413 -15.540  -5.102  0.00  0.00     0.093 A 
ATOM     13  C   UNL d   1      29.235 -15.700  -6.218  0.00  0.00     0.045 A 
ENDROOT
BRANCH   4  14
ATOM     14  O   UNL d   1      30.903 -16.045  -2.355  0.00  0.00    -0.278 OA
BRANCH  14  15
ATOM     15  C   UNL d   1      32.093 -16.673  -2.003  0.00  0.00     0.264 C 
ATOM     16  O   UNL d   1      32.967 -17.010  -2.791  0.00  0.00    -0.265 OA
BRANCH  15  17
ATOM     17  C   UNL d   1      32.217 -16.911  -0.510  0.00  0.00     0.111 C 
BRANCH  17  18
ATOM     18  C   UNL d   1      31.306 -18.115  -0.230  0.00  0.00     0.010 C 
BRANCH  18  19
ATOM     19  C   UNL d   1      31.005 -18.989  -1.431  0.00  0.00     0.002 C 
BRANCH  19  20
ATOM     20  C   UNL d   1      31.892 -20.245  -1.406  0.00  0.00     0.020 C 
BRANCH  20  21
ATOM     21  C   UNL d   1      31.155 -21.418  -0.764  0.00  0.00     0.125 C 
BRANCH  21  22
ATOM     22  N   UNL d   1      30.756 -21.190   0.613  0.00  0.00    -0.337 N 
ATOM     23  C   UNL d   1      31.261 -21.971   1.632  0.00  0.00     0.360 C 
ATOM     24  O   UNL d   1      32.041 -22.887   1.469  0.00  0.00    -0.239 OA
ATOM     25  H   UNL d   1      30.110 -20.452   0.855  0.00  0.00     0.164 HD
BRANCH  23  26
ATOM     26  O   UNL d   1      30.771 -21.575   2.843  0.00  0.00    -0.299 OA
BRANCH  26  27
ATOM     27  C   UNL d   1      31.530 -20.519   3.490  0.00  0.00     0.219 C 
BRANCH  27  28
ATOM     28  C   UNL d   1      32.298 -21.019   4.707  0.00  0.00    -0.034 A 
ATOM     29  C   UNL d   1      33.702 -21.142   4.682  0.00  0.00     0.009 A 
ATOM     30  C   UNL d   1      34.386 -21.770   5.733  0.00  0.00     0.001 A 
ATOM     31  C   UNL d   1      33.694 -22.180   6.869  0.00  0.00     0.000 A 
ATOM     32  C   UNL d   1      32.325 -21.950   6.959  0.00  0.00     0.001 A 
ATOM     33  C   UNL d   1      31.628 -21.425   5.868  0.00  0.00     0.009 A 
ENDBRANCH  27  28
ENDBRANCH  26  27
ENDBRANCH  23  26
ENDBRANCH  21  22
ENDBRANCH  20  21
ENDBRANCH  19  20
ENDBRANCH  18  19
ENDBRANCH  17  18
ENDBRANCH  15  17
ENDBRANCH  14  15
ENDBRANCH   4  14
BRANCH   8  34
ATOM     34  C   UNL d   1      25.621 -14.821  -1.788  0.00  0.00     0.084 C 
BRANCH  34  35
ATOM     35  C   UNL d   1      24.992 -15.996  -1.010  0.00  0.00    -0.054 C 
ATOM     36  C   UNL d   1      25.812 -16.901  -0.305  0.00  0.00     0.007 C 
ATOM     37  C   UNL d   1      25.410 -18.249  -0.179  0.00  0.00     0.001 C 
ATOM     38  C   UNL d   1      24.112 -18.631  -0.505  0.00  0.00     0.000 C 
ATOM     39  C   UNL d   1      23.206 -17.661  -0.928  0.00  0.00     0.001 C 
ATOM     40  C   UNL d   1      23.654 -16.367  -1.242  0.00  0.00     0.007 C 
ENDBRANCH  34  35
ENDBRANCH   8  34
TORSDOF 13
ENDMDL
MODEL 3
REMARK VINA RESULT:    -9.068      3.466      9.744
REMARK INTER + INTRA:         -15.887
REMARK INTER:                 -12.946
REMARK INTRA:                  -2.941
REMARK CONF_INDEPENDENT:        3.878
REMARK UNBOUND:                -2.941
REMARK  13 active torsions:
REMARK  status: ('A' for Active; 'I' for Inactive)
REMARK    1  A    between atoms: C_4  and  O_5 
REMARK    2  A    between atoms: O_5  and  C_6 
REMARK    3  A    between atoms: C_6  and  C_8 
REMARK    4  A    between atoms: C_8  and  C_9 
REMARK    5  A    between atoms: C_9  and  C_10 
REMARK    6  A    between atoms: C_10  and  C_11 
REMARK    7  A    between atoms: C_11  and  C_12 
REMARK    8  A    between atoms: C_12  and  N_13 
REMARK       I    between atoms: N_13  and  C_14 
REMARK    9  A    between atoms: C_14  and  O_16 
REMARK   10  A    between atoms: O_16  and  C_17 
REMARK   11  A    between atoms: C_17  and  C_18 
REMARK   12  A    between atoms: C_27  and  C_28 
REMARK   13  A    between atoms: C_28  and  C_29 
ROOT
ATOM      1  C   UNL d   1      30.741 -16.876  -1.895  0.00  0.00     0.048 C 
ATOM      2  C   UNL d   1      29.261 -16.736  -1.783  0.00  0.00    -0.057 A 
ATOM      3  C   UNL d   1      28.659 -15.847  -2.654  0.00  0.00     0.045 A 
ATOM      4  C   UNL d   1      27.301 -15.629  -2.623  0.00  0.00     0.093 A 
ATOM      5  C   UNL d   1      26.498 -16.299  -1.668  0.00  0.00     0.038 A 
ATOM      6  C   UNL d   1      25.062 -16.108  -1.502  0.00  0.00    -0.034 A 
ATOM      7  C   UNL d   1      24.477 -15.092  -2.392  0.00  0.00     0.050 C 
ATOM      8  C   UNL d   1      24.292 -16.867  -0.682  0.00  0.00     0.029 A 
ATOM      9  C   UNL d   1      24.966 -17.856   0.216  0.00  0.00     0.295 A 
ATOM     10  O   UNL d   1      24.338 -18.530   1.027  0.00  0.00    -0.259 OA
ATOM     11  O   UNL d   1      26.353 -17.972   0.104  0.00  0.00    -0.274 OA
ATOM     12  C   UNL d   1      27.109 -17.223  -0.823  0.00  0.00     0.093 A 
ATOM     13  C   UNL d   1      28.486 -17.447  -0.866  0.00  0.00     0.045 A 
ENDROOT
BRANCH   4  14
ATOM     14  O   UNL d   1      26.744 -14.734  -3.592  0.00  0.00    -0.278 OA
BRANCH  14  15
ATOM     15  C   UNL d   1      27.061 -14.616  -4.942  0.00  0.00     0.264 C 
ATOM     16  O   UNL d   1      27.407 -15.543  -5.663  0.00  0.00    -0.265 OA
BRANCH  15  17
ATOM     17  C   UNL d   1      26.934 -13.196  -5.458  0.00  0.00     0.111 C 
BRANCH  17  18
ATOM     18  C   UNL d   1      27.328 -12.312  -4.266  0.00  0.00     0.010 C 
BRANCH  18  19
ATOM     19  C   UNL d   1      26.172 -11.646  -3.547  0.00  0.00     0.002 C 
BRANCH  19  20
ATOM     20  C   UNL d   1      26.612 -10.282  -2.987  0.00  0.00     0.020 C 
BRANCH  20  21
ATOM     21  C   UNL d   1      27.551 -10.462  -1.796  0.00  0.00     0.125 C 
BRANCH  21  22
ATOM     22  N   UNL d   1      27.795 -11.847  -1.434  0.00  0.00    -0.337 N 
ATOM     23  C   UNL d   1      27.334 -12.355  -0.237  0.00  0.00     0.360 C 
ATOM     24  O   UNL d   1      26.720 -11.710   0.588  0.00  0.00    -0.239 OA
ATOM     25  H   UNL d   1      28.298 -12.468  -2.052  0.00  0.00     0.164 HD
BRANCH  23  26
ATOM     26  O   UNL d   1      27.656 -13.675  -0.107  0.00  0.00    -0.299 OA
BRANCH  26  27
ATOM     27  C   UNL d   1      27.023 -14.347   1.014  0.00  0.00     0.219 C 
BRANCH  27  28
ATOM     28  C   UNL d   1      27.783 -14.139   2.318  0.00  0.00    -0.034 A 
ATOM     29  C   UNL d   1      29.158 -14.435   2.414  0.00  0.00     0.009 A 
ATOM     30  C   UNL d   1      29.811 -14.416   3.656  0.00  0.00     0.001 A 
ATOM     31  C   UNL d   1      29.131 -13.992   4.795  0.00  0.00     0.000 A 
ATOM     32  C   UNL d   1      27.808 -13.576   4.689  0.00  0.00     0.001 A 
ATOM     33  C   UNL d   1      27.127 -13.700   3.475  0.00  0.00     0.009 A 
ENDBRANCH  27  28
ENDBRANCH  26  27
ENDBRANCH  23  26
ENDBRANCH  21  22
ENDBRANCH  20  21
ENDBRANCH  19  20
ENDBRANCH  18  19
ENDBRANCH  17  18
ENDBRANCH  15  17
ENDBRANCH  14  15
ENDBRANCH   4  14
BRANCH   8  34
ATOM     34  C   UNL d   1      22.740 -16.854  -0.562  0.00  0.00     0.084 C 
BRANCH  34  35
ATOM     35  C   UNL d   1      22.025 -18.203  -0.339  0.00  0.00    -0.054 C 
ATOM     36  C   UNL d   1      21.482 -18.908  -1.434  0.00  0.00     0.007 C 
ATOM     37  C   UNL d   1      20.327 -19.700  -1.246  0.00  0.00     0.001 C 
ATOM     38  C   UNL d   1      19.881 -20.002   0.038  0.00  0.00     0.000 C 
ATOM     39  C   UNL d   1      20.605 -19.538   1.134  0.00  0.00     0.001 C 
ATOM     40  C   UNL d   1      21.630 -18.593   0.954  0.00  0.00     0.007 C 
ENDBRANCH  34  35
ENDBRANCH   8  34
TORSDOF 13
ENDMDL
MODEL 4
REMARK VINA RESULT:    -8.999      3.925     10.146
REMARK INTER + INTRA:         -15.586
REMARK INTER:                 -12.877
REMARK INTRA:                  -2.709
REMARK CONF_INDEPENDENT:        3.878
REMARK UNBOUND:                -2.709
REMARK  13 active torsions:
REMARK  status: ('A' for Active; 'I' for Inactive)
REMARK    1  A    between atoms: C_4  and  O_5 
REMARK    2  A    between atoms: O_5  and  C_6 
REMARK    3  A    between atoms: C_6  and  C_8 
REMARK    4  A    between atoms: C_8  and  C_9 
REMARK    5  A    between atoms: C_9  and  C_10 
REMARK    6  A    between atoms: C_10  and  C_11 
REMARK    7  A    between atoms: C_11  and  C_12 
REMARK    8  A    between atoms: C_12  and  N_13 
REMARK       I    between atoms: N_13  and  C_14 
REMARK    9  A    between atoms: C_14  and  O_16 
REMARK   10  A    between atoms: O_16  and  C_17 
REMARK   11  A    between atoms: C_17  and  C_18 
REMARK   12  A    between atoms: C_27  and  C_28 
REMARK   13  A    between atoms: C_28  and  C_29 
ROOT
ATOM      1  C   UNL d   1      31.569 -15.950  -7.527  0.00  0.00     0.048 C 
ATOM      2  C   UNL d   1      30.642 -15.873  -6.362  0.00  0.00    -0.057 A 
ATOM      3  C   UNL d   1      31.192 -16.131  -5.119  0.00  0.00     0.045 A 
ATOM      4  C   UNL d   1      30.421 -16.105  -3.981  0.00  0.00     0.093 A 
ATOM      5  C   UNL d   1      29.033 -15.838  -4.071  0.00  0.00     0.038 A 
ATOM      6  C   UNL d   1      28.107 -15.839  -2.944  0.00  0.00    -0.034 A 
ATOM      7  C   UNL d   1      28.719 -16.201  -1.655  0.00  0.00     0.050 C 
ATOM      8  C   UNL d   1      26.814 -15.437  -3.033  0.00  0.00     0.029 A 
ATOM      9  C   UNL d   1      26.258 -15.117  -4.384  0.00  0.00     0.295 A 
ATOM     10  O   UNL d   1      25.081 -14.809  -4.546  0.00  0.00    -0.259 OA
ATOM     11  O   UNL d   1      27.136 -15.199  -5.467  0.00  0.00    -0.274 OA
ATOM     12  C   UNL d   1      28.498 -15.539  -5.321  0.00  0.00     0.093 A 
ATOM     13  C   UNL d   1      29.287 -15.558  -6.472  0.00  0.00     0.045 A 
ENDROOT
BRANCH   4  14
ATOM     14  O   UNL d   1      31.074 -16.330  -2.725  0.00  0.00    -0.278 OA
BRANCH  14  15
ATOM     15  C   UNL d   1      31.908 -17.383  -2.362  0.00  0.00     0.264 C 
ATOM     16  O   UNL d   1      33.021 -17.587  -2.829  0.00  0.00    -0.265 OA
BRANCH  15  17
ATOM     17  C   UNL d   1      31.299 -18.281  -1.303  0.00  0.00     0.111 C 
BRANCH  17  18
ATOM     18  C   UNL d   1      31.346 -17.450  -0.012  0.00  0.00     0.010 C 
BRANCH  18  19
ATOM     19  C   UNL d   1      32.312 -16.282  -0.033  0.00  0.00     0.002 C 
BRANCH  19  20
ATOM     20  C   UNL d   1      32.555 -15.772   1.398  0.00  0.00     0.020 C 
BRANCH  20  21
ATOM     21  C   UNL d   1      31.692 -14.547   1.692  0.00  0.00     0.125 C 
BRANCH  21  22
ATOM     22  N   UNL d   1      30.270 -14.826   1.777  0.00  0.00    -0.337 N 
ATOM     23  C   UNL d   1      29.371 -14.160   0.968  0.00  0.00     0.360 C 
ATOM     24  O   UNL d   1      29.680 -13.310   0.159  0.00  0.00    -0.239 OA
ATOM     25  H   UNL d   1      29.910 -15.517   2.420  0.00  0.00     0.164 HD
BRANCH  23  26
ATOM     26  O   UNL d   1      28.095 -14.588   1.197  0.00  0.00    -0.299 OA
BRANCH  26  27
ATOM     27  C   UNL d   1      27.293 -13.695   2.014  0.00  0.00     0.219 C 
BRANCH  27  28
ATOM     28  C   UNL d   1      27.768 -13.651   3.462  0.00  0.00    -0.034 A 
ATOM     29  C   UNL d   1      28.154 -14.827   4.137  0.00  0.00     0.009 A 
ATOM     30  C   UNL d   1      28.415 -14.810   5.515  0.00  0.00     0.001 A 
ATOM     31  C   UNL d   1      28.405 -13.604   6.212  0.00  0.00     0.000 A 
ATOM     32  C   UNL d   1      28.150 -12.419   5.529  0.00  0.00     0.001 A 
ATOM     33  C   UNL d   1      27.782 -12.450   4.182  0.00  0.00     0.009 A 
ENDBRANCH  27  28
ENDBRANCH  26  27
ENDBRANCH  23  26
ENDBRANCH  21  22
ENDBRANCH  20  21
ENDBRANCH  19  20
ENDBRANCH  18  19
ENDBRANCH  17  18
ENDBRANCH  15  17
ENDBRANCH  14  15
ENDBRANCH   4  14
BRANCH   8  34
ATOM     34  C   UNL d   1      25.801 -15.242  -1.866  0.00  0.00     0.084 C 
BRANCH  34  35
ATOM     35  C   UNL d   1      24.951 -16.458  -1.442  0.00  0.00    -0.054 C 
ATOM     36  C   UNL d   1      23.557 -16.325  -1.270  0.00  0.00     0.007 C 
ATOM     37  C   UNL d   1      22.898 -17.119  -0.306  0.00  0.00     0.001 C 
ATOM     38  C   UNL d   1      23.548 -18.201   0.279  0.00  0.00     0.000 C 
ATOM     39  C   UNL d   1      24.847 -18.509  -0.120  0.00  0.00     0.001 C 
ATOM     40  C   UNL d   1      25.569 -17.611  -0.924  0.00  0.00     0.007 C 
ENDBRANCH  34  35
ENDBRANCH   8  34
TORSDOF 13
ENDMDL
MODEL 5
REMARK VINA RESULT:    -7.449      6.278      9.539
REMARK INTER + INTRA:         -15.616
REMARK INTER:                 -11.327
REMARK INTRA:                  -4.288
REMARK CONF_INDEPENDENT:        3.878
REMARK UNBOUND:                -4.288
REMARK  13 active torsions:
REMARK  status: ('A' for Active; 'I' for Inactive)
REMARK    1  A    between atoms: C_4  and  O_5 
REMARK    2  A    between atoms: O_5  and  C_6 
REMARK    3  A    between atoms: C_6  and  C_8 
REMARK    4  A    between atoms: C_8  and  C_9 
REMARK    5  A    between atoms: C_9  and  C_10 
REMARK    6  A    between atoms: C_10  and  C_11 
REMARK    7  A    between atoms: C_11  and  C_12 
REMARK    8  A    between atoms: C_12  and  N_13 
REMARK       I    between atoms: N_13  and  C_14 
REMARK    9  A    between atoms: C_14  and  O_16 
REMARK   10  A    between atoms: O_16  and  C_17 
REMARK   11  A    between atoms: C_17  and  C_18 
REMARK   12  A    between atoms: C_27  and  C_28 
REMARK   13  A    between atoms: C_28  and  C_29 
ROOT
ATOM      1  C   UNL d   1      31.535 -12.109  -4.259  0.00  0.00     0.048 C 
ATOM      2  C   UNL d   1      30.550 -12.793  -3.373  0.00  0.00    -0.057 A 
ATOM      3  C   UNL d   1      29.485 -12.029  -2.931  0.00  0.00     0.045 A 
ATOM      4  C   UNL d   1      28.529 -12.559  -2.095  0.00  0.00     0.093 A 
ATOM      5  C   UNL d   1      28.641 -13.898  -1.649  0.00  0.00     0.038 A 
ATOM      6  C   UNL d   1      27.723 -14.549  -0.721  0.00  0.00    -0.034 A 
ATOM      7  C   UNL d   1      26.654 -13.675  -0.211  0.00  0.00     0.050 C 
ATOM      8  C   UNL d   1      27.766 -15.872  -0.424  0.00  0.00     0.029 A 
ATOM      9  C   UNL d   1      28.904 -16.685  -0.956  0.00  0.00     0.295 A 
ATOM     10  O   UNL d   1      29.041 -17.872  -0.675  0.00  0.00    -0.259 OA
ATOM     11  O   UNL d   1      29.822 -16.030  -1.779  0.00  0.00    -0.274 OA
ATOM     12  C   UNL d   1      29.694 -14.670  -2.133  0.00  0.00     0.093 A 
ATOM     13  C   UNL d   1      30.656 -14.130  -2.988  0.00  0.00     0.045 A 
ENDROOT
BRANCH   4  14
ATOM     14  O   UNL d   1      27.428 -11.721  -1.724  0.00  0.00    -0.278 OA
BRANCH  14  15
ATOM     15  C   UNL d   1      27.030 -10.514  -2.292  0.00  0.00     0.264 C 
ATOM     16  O   UNL d   1      27.519  -9.423  -2.030  0.00  0.00    -0.265 OA
BRANCH  15  17
ATOM     17  C   UNL d   1      25.904 -10.675  -3.294  0.00  0.00     0.111 C 
BRANCH  17  18
ATOM     18  C   UNL d   1      26.168 -12.032  -3.963  0.00  0.00     0.010 C 
BRANCH  18  19
ATOM     19  C   UNL d   1      25.278 -13.166  -3.494  0.00  0.00     0.002 C 
BRANCH  19  20
ATOM     20  C   UNL d   1      25.411 -14.370  -4.443  0.00  0.00     0.020 C 
BRANCH  20  21
ATOM     21  C   UNL d   1      26.094 -15.541  -3.741  0.00  0.00     0.125 C 
BRANCH  21  22
ATOM     22  N   UNL d   1      27.529 -15.610  -3.956  0.00  0.00    -0.337 N 
ATOM     23  C   UNL d   1      28.064 -15.418  -5.213  0.00  0.00     0.360 C 
ATOM     24  O   UNL d   1      27.406 -15.198  -6.209  0.00  0.00    -0.239 OA
ATOM     25  H   UNL d   1      28.164 -15.789  -3.191  0.00  0.00     0.164 HD
BRANCH  23  26
ATOM     26  O   UNL d   1      29.426 -15.505  -5.185  0.00  0.00    -0.299 OA
BRANCH  26  27
ATOM     27  C   UNL d   1      29.943 -16.766  -4.683  0.00  0.00     0.219 C 
BRANCH  27  28
ATOM     28  C   UNL d   1      30.396 -17.695  -5.803  0.00  0.00    -0.034 A 
ATOM     29  C   UNL d   1      30.417 -19.093  -5.624  0.00  0.00     0.009 A 
ATOM     30  C   UNL d   1      31.001 -19.930  -6.586  0.00  0.00     0.001 A 
ATOM     31  C   UNL d   1      31.469 -19.396  -7.784  0.00  0.00     0.000 A 
ATOM     32  C   UNL d   1      31.338 -18.032  -8.025  0.00  0.00     0.001 A 
ATOM     33  C   UNL d   1      30.857 -17.185  -7.024  0.00  0.00     0.009 A 
ENDBRANCH  27  28
ENDBRANCH  26  27
ENDBRANCH  23  26
ENDBRANCH  21  22
ENDBRANCH  20  21
ENDBRANCH  19  20
ENDBRANCH  18  19
ENDBRANCH  17  18
ENDBRANCH  15  17
ENDBRANCH  14  15
ENDBRANCH   4  14
BRANCH   8  34
ATOM     34  C   UNL d   1      26.739 -16.688   0.415  0.00  0.00     0.084 C 
BRANCH  34  35
ATOM     35  C   UNL d   1      25.471 -17.199  -0.301  0.00  0.00    -0.054 C 
ATOM     36  C   UNL d   1      24.551 -16.284  -0.855  0.00  0.00     0.007 C 
ATOM     37  C   UNL d   1      23.179 -16.616  -0.891  0.00  0.00     0.001 C 
ATOM     38  C   UNL d   1      22.762 -17.919  -0.635  0.00  0.00     0.000 C 
ATOM     39  C   UNL d   1      23.719 -18.898  -0.374  0.00  0.00     0.001 C 
ATOM     40  C   UNL d   1      25.056 -18.534  -0.143  0.00  0.00     0.007 C 
ENDBRANCH  34  35
ENDBRANCH   8  34
TORSDOF 13
ENDMDL
MODEL 6
REMARK VINA RESULT:    -7.419      7.400     11.398
REMARK INTER + INTRA:         -15.920
REMARK INTER:                 -11.296
REMARK INTRA:                  -4.623
REMARK CONF_INDEPENDENT:        3.878
REMARK UNBOUND:                -4.623
REMARK  13 active torsions:
REMARK  status: ('A' for Active; 'I' for Inactive)
REMARK    1  A    between atoms: C_4  and  O_5 
REMARK    2  A    between atoms: O_5  and  C_6 
REMARK    3  A    between atoms: C_6  and  C_8 
REMARK    4  A    between atoms: C_8  and  C_9 
REMARK    5  A    between atoms: C_9  and  C_10 
REMARK    6  A    between atoms: C_10  and  C_11 
REMARK    7  A    between atoms: C_11  and  C_12 
REMARK    8  A    between atoms: C_12  and  N_13 
REMARK       I    between atoms: N_13  and  C_14 
REMARK    9  A    between atoms: C_14  and  O_16 
REMARK   10  A    between atoms: O_16  and  C_17 
REMARK   11  A    between atoms: C_17  and  C_18 
REMARK   12  A    between atoms: C_27  and  C_28 
REMARK   13  A    between atoms: C_28  and  C_29 
ROOT
ATOM      1  C   UNL d   1      31.669 -15.776  -7.675  0.00  0.00     0.048 C 
ATOM      2  C   UNL d   1      30.738 -15.767  -6.510  0.00  0.00    -0.057 A 
ATOM      3  C   UNL d   1      31.292 -16.068  -5.278  0.00  0.00     0.045 A 
ATOM      4  C   UNL d   1      30.518 -16.104  -4.141  0.00  0.00     0.093 A 
ATOM      5  C   UNL d   1      29.125 -15.861  -4.223  0.00  0.00     0.038 A 
ATOM      6  C   UNL d   1      28.198 -15.928  -3.100  0.00  0.00    -0.034 A 
ATOM      7  C   UNL d   1      28.815 -16.333  -1.826  0.00  0.00     0.050 C 
ATOM      8  C   UNL d   1      26.897 -15.548  -3.175  0.00  0.00     0.029 A 
ATOM      9  C   UNL d   1      26.338 -15.181  -4.513  0.00  0.00     0.295 A 
ATOM     10  O   UNL d   1      25.155 -14.889  -4.664  0.00  0.00    -0.259 OA
ATOM     11  O   UNL d   1      27.219 -15.200  -5.596  0.00  0.00    -0.274 OA
ATOM     12  C   UNL d   1      28.587 -15.519  -5.461  0.00  0.00     0.093 A 
ATOM     13  C   UNL d   1      29.378 -15.474  -6.610  0.00  0.00     0.045 A 
ENDROOT
BRANCH   4  14
ATOM     14  O   UNL d   1      31.173 -16.370  -2.895  0.00  0.00    -0.278 OA
BRANCH  14  15
ATOM     15  C   UNL d   1      32.481 -16.794  -2.680  0.00  0.00     0.264 C 
ATOM     16  O   UNL d   1      33.257 -17.143  -3.559  0.00  0.00    -0.265 OA
BRANCH  15  17
ATOM     17  C   UNL d   1      32.872 -16.783  -1.215  0.00  0.00     0.111 C 
BRANCH  17  18
ATOM     18  C   UNL d   1      33.132 -18.257  -0.870  0.00  0.00     0.010 C 
BRANCH  18  19
ATOM     19  C   UNL d   1      31.995 -18.962  -0.157  0.00  0.00     0.002 C 
BRANCH  19  20
ATOM     20  C   UNL d   1      30.907 -19.365  -1.168  0.00  0.00     0.020 C 
BRANCH  20  21
ATOM     21  C   UNL d   1      31.530 -19.966  -2.426  0.00  0.00     0.125 C 
BRANCH  21  22
ATOM     22  N   UNL d   1      31.172 -19.280  -3.654  0.00  0.00    -0.337 N 
ATOM     23  C   UNL d   1      30.466 -19.930  -4.645  0.00  0.00     0.360 C 
ATOM     24  O   UNL d   1      30.110 -21.089  -4.582  0.00  0.00    -0.239 OA
ATOM     25  H   UNL d   1      31.422 -18.313  -3.805  0.00  0.00     0.164 HD
BRANCH  23  26
ATOM     26  O   UNL d   1      30.220 -19.099  -5.699  0.00  0.00    -0.299 OA
BRANCH  26  27
ATOM     27  C   UNL d   1      30.405 -19.703  -7.007  0.00  0.00     0.219 C 
BRANCH  27  28
ATOM     28  C   UNL d   1      31.645 -19.177  -7.719  0.00  0.00    -0.034 A 
ATOM     29  C   UNL d   1      31.654 -18.982  -9.115  0.00  0.00     0.009 A 
ATOM     30  C   UNL d   1      32.845 -18.672  -9.788  0.00  0.00     0.001 A 
ATOM     31  C   UNL d   1      34.014 -18.443  -9.068  0.00  0.00     0.000 A 
ATOM     32  C   UNL d   1      33.987 -18.508  -7.679  0.00  0.00     0.001 A 
ATOM     33  C   UNL d   1      32.830 -18.923  -7.017  0.00  0.00     0.009 A 
ENDBRANCH  27  28
ENDBRANCH  26  27
ENDBRANCH  23  26
ENDBRANCH  21  22
ENDBRANCH  20  21
ENDBRANCH  19  20
ENDBRANCH  18  19
ENDBRANCH  17  18
ENDBRANCH  15  17
ENDBRANCH  14  15
ENDBRANCH   4  14
BRANCH   8  34
ATOM     34  C   UNL d   1      25.879 -15.422  -2.004  0.00  0.00     0.084 C 
BRANCH  34  35
ATOM     35  C   UNL d   1      25.344 -16.725  -1.374  0.00  0.00    -0.054 C 
ATOM     36  C   UNL d   1      24.028 -17.156  -1.645  0.00  0.00     0.007 C 
ATOM     37  C   UNL d   1      23.315 -17.872  -0.657  0.00  0.00     0.001 C 
ATOM     38  C   UNL d   1      23.974 -18.380   0.459  0.00  0.00     0.000 C 
ATOM     39  C   UNL d   1      25.351 -18.199   0.573  0.00  0.00     0.001 C 
ATOM     40  C   UNL d   1      26.023 -17.326  -0.298  0.00  0.00     0.007 C 
ENDBRANCH  34  35
ENDBRANCH   8  34
TORSDOF 13
ENDMDL
