MODEL 1
REMARK VINA RESULT:    -9.579      0.000      0.000
REMARK INTER + INTRA:         -13.188
REMARK INTER:                 -11.965
REMARK INTRA:                  -1.223
REMARK CONF_INDEPENDENT:        2.386
REMARK UNBOUND:                -1.223
REMARK  8 active torsions:
REMARK  status: ('A' for Active; 'I' for Inactive)
REMARK    1  A    between atoms: C_2  and  C_3 
REMARK       I    between atoms: C_2  and  N_21 
REMARK    2  A    between atoms: C_3  and  S_4 
REMARK    3  A    between atoms: S_4  and  C_5 
REMARK    4  A    between atoms: C_8  and  N_9 
REMARK    5  A    between atoms: N_9  and  N_10 
REMARK    6  A    between atoms: C_11  and  C_12 
REMARK    7  A    between atoms: N_21  and  C_22 
REMARK    8  A    between atoms: C_22  and  C_23 
ROOT
ATOM      1  C   UNL d   1      29.311 -12.924   3.552  0.00  0.00     0.226 A 
ATOM      2  N   UNL d   1      30.288 -13.765   3.910  0.00  0.00    -0.132 NA
ATOM      3  N   UNL d   1      30.145 -14.744   2.990  0.00  0.00    -0.103 N 
ATOM      4  C   UNL d   1      29.133 -14.471   2.105  0.00  0.00     0.739 A 
ATOM      5  N   UNL d   1      28.589 -13.324   2.461  0.00  0.00    -0.034 NA
ATOM      6  H   UNL d   1      30.765 -15.544   3.028  0.00  0.00     0.208 HD
ENDROOT
BRANCH   1   7
ATOM      7  S   UNL d   1      28.851 -11.562   4.542  0.00  0.00    -0.079 SA
BRANCH   7   8
ATOM      8  C   UNL d   1      27.831 -12.300   5.860  0.00  0.00     0.185 C 
BRANCH   8   9
ATOM      9  C   UNL d   1      27.799 -13.836   5.750  0.00  0.00     0.227 C 
ATOM     10  O   UNL d   1      27.019 -14.468   5.030  0.00  0.00    -0.273 OA
ATOM     11  N   UNL d   1      28.694 -14.571   6.491  0.00  0.00    -0.356 N 
ATOM     12  H   UNL d   1      28.590 -15.575   6.381  0.00  0.00     0.162 HD
BRANCH  11  13
ATOM     13  C   UNL d   1      29.682 -14.069   7.417  0.00  0.00     0.162 C 
BRANCH  13  14
ATOM     14  C   UNL d   1      29.117 -13.758   8.782  0.00  0.00    -0.019 A 
ATOM     15  C   UNL d   1      28.646 -14.806   9.595  0.00  0.00     0.010 A 
ATOM     16  C   UNL d   1      28.159 -14.558  10.884  0.00  0.00     0.001 A 
ATOM     17  C   UNL d   1      28.129 -13.259  11.382  0.00  0.00     0.002 A 
ATOM     18  C   UNL d   1      28.572 -12.206  10.585  0.00  0.00     0.024 A 
ATOM     19  C   UNL d   1      29.053 -12.449   9.292  0.00  0.00     0.042 A 
ATOM     20 CL   UNL d   1      29.562 -11.083   8.366  0.00  0.00    -0.084 Cl
ENDBRANCH  13  14
ENDBRANCH  11  13
ENDBRANCH   8   9
ENDBRANCH   7   8
ENDBRANCH   1   7
BRANCH   4  21
ATOM     21  N   UNL d   1      28.820 -15.292   1.060  0.00  0.00    -0.106 N 
ATOM     22  H   UNL d   1      29.532 -15.595   0.398  0.00  0.00     0.208 HD
BRANCH  21  23
ATOM     23  N   UNL d   1      27.529 -15.727   0.895  0.00  0.00    -0.172 NA
ATOM     24  C   UNL d   1      27.241 -16.425  -0.157  0.00  0.00     0.152 C 
BRANCH  24  25
ATOM     25  C   UNL d   1      25.865 -16.955  -0.356  0.00  0.00     0.005 A 
ATOM     26  C   UNL d   1      25.441 -18.055   0.403  0.00  0.00     0.016 A 
ATOM     27  C   UNL d   1      24.148 -18.571   0.240  0.00  0.00     0.025 A 
ATOM     28  C   UNL d   1      23.285 -17.999  -0.692  0.00  0.00     0.035 A 
ATOM     29 CL   UNL d   1      21.699 -18.639  -0.895  0.00  0.00    -0.084 Cl
ATOM     30  C   UNL d   1      23.697 -16.911  -1.459  0.00  0.00     0.048 A 
ATOM     31  C   UNL d   1      24.985 -16.382  -1.285  0.00  0.00     0.047 A 
ATOM     32 CL   UNL d   1      25.440 -15.046  -2.280  0.00  0.00    -0.083 Cl
ENDBRANCH  24  25
ENDBRANCH  21  23
ENDBRANCH   4  21
TORSDOF 8
ENDMDL
MODEL 2
REMARK VINA RESULT:    -9.527      1.999      2.352
REMARK INTER + INTRA:         -12.844
REMARK INTER:                 -11.913
REMARK INTRA:                  -0.931
REMARK CONF_INDEPENDENT:        2.386
REMARK UNBOUND:                -0.931
REMARK  8 active torsions:
REMARK  status: ('A' for Active; 'I' for Inactive)
REMARK    1  A    between atoms: C_2  and  C_3 
REMARK       I    between atoms: C_2  and  N_21 
REMARK    2  A    between atoms: C_3  and  S_4 
REMARK    3  A    between atoms: S_4  and  C_5 
REMARK    4  A    between atoms: C_8  and  N_9 
REMARK    5  A    between atoms: N_9  and  N_10 
REMARK    6  A    between atoms: C_11  and  C_12 
REMARK    7  A    between atoms: N_21  and  C_22 
REMARK    8  A    between atoms: C_22  and  C_23 
ROOT
ATOM      1  C   UNL d   1      28.808 -12.826   4.328  0.00  0.00     0.226 A 
ATOM      2  N   UNL d   1      29.348 -13.851   4.998  0.00  0.00    -0.132 NA
ATOM      3  N   UNL d   1      29.294 -14.832   4.071  0.00  0.00    -0.103 N 
ATOM      4  C   UNL d   1      28.763 -14.389   2.887  0.00  0.00     0.739 A 
ATOM      5  N   UNL d   1      28.439 -13.120   3.044  0.00  0.00    -0.034 NA
ATOM      6  H   UNL d   1      29.635 -15.754   4.316  0.00  0.00     0.208 HD
ENDROOT
BRANCH   1   7
ATOM      7  S   UNL d   1      28.393 -11.322   5.110  0.00  0.00    -0.079 SA
BRANCH   7   8
ATOM      8  C   UNL d   1      29.792 -11.010   6.235  0.00  0.00     0.185 C 
BRANCH   8   9
ATOM      9  C   UNL d   1      29.317 -10.390   7.563  0.00  0.00     0.227 C 
ATOM     10  O   UNL d   1      29.529  -9.221   7.904  0.00  0.00    -0.273 OA
ATOM     11  N   UNL d   1      28.602 -11.172   8.439  0.00  0.00    -0.356 N 
ATOM     12  H   UNL d   1      28.348 -10.696   9.299  0.00  0.00     0.162 HD
BRANCH  11  13
ATOM     13  C   UNL d   1      28.248 -12.563   8.280  0.00  0.00     0.162 C 
BRANCH  13  14
ATOM     14  C   UNL d   1      29.254 -13.507   8.891  0.00  0.00    -0.019 A 
ATOM     15  C   UNL d   1      30.372 -13.915   8.139  0.00  0.00     0.010 A 
ATOM     16  C   UNL d   1      31.348 -14.754   8.691  0.00  0.00     0.001 A 
ATOM     17  C   UNL d   1      31.223 -15.203  10.002  0.00  0.00     0.002 A 
ATOM     18  C   UNL d   1      30.114 -14.826  10.757  0.00  0.00     0.024 A 
ATOM     19  C   UNL d   1      29.131 -13.994  10.205  0.00  0.00     0.042 A 
ATOM     20 CL   UNL d   1      27.780 -13.593  11.203  0.00  0.00    -0.084 Cl
ENDBRANCH  13  14
ENDBRANCH  11  13
ENDBRANCH   8   9
ENDBRANCH   7   8
ENDBRANCH   1   7
BRANCH   4  21
ATOM     21  N   UNL d   1      28.638 -15.186   1.786  0.00  0.00    -0.106 N 
ATOM     22  H   UNL d   1      29.450 -15.442   1.227  0.00  0.00     0.208 HD
BRANCH  21  23
ATOM     23  N   UNL d   1      27.403 -15.659   1.420  0.00  0.00    -0.172 NA
ATOM     24  C   UNL d   1      27.302 -16.348   0.328  0.00  0.00     0.152 C 
BRANCH  24  25
ATOM     25  C   UNL d   1      25.991 -16.918  -0.085  0.00  0.00     0.005 A 
ATOM     26  C   UNL d   1      25.480 -18.025   0.608  0.00  0.00     0.016 A 
ATOM     27  C   UNL d   1      24.245 -18.579   0.244  0.00  0.00     0.025 A 
ATOM     28  C   UNL d   1      23.530 -18.039  -0.822  0.00  0.00     0.035 A 
ATOM     29 CL   UNL d   1      22.016 -18.726  -1.272  0.00  0.00    -0.084 Cl
ATOM     30  C   UNL d   1      24.031 -16.945  -1.525  0.00  0.00     0.048 A 
ATOM     31  C   UNL d   1      25.258 -16.378  -1.150  0.00  0.00     0.047 A 
ATOM     32 CL   UNL d   1      25.833 -15.037  -2.074  0.00  0.00    -0.083 Cl
ENDBRANCH  24  25
ENDBRANCH  21  23
ENDBRANCH   4  21
TORSDOF 8
ENDMDL
MODEL 3
REMARK VINA RESULT:    -9.029      2.297      3.042
REMARK INTER + INTRA:         -12.609
REMARK INTER:                 -11.415
REMARK INTRA:                  -1.193
REMARK CONF_INDEPENDENT:        2.386
REMARK UNBOUND:                -1.193
REMARK  8 active torsions:
REMARK  status: ('A' for Active; 'I' for Inactive)
REMARK    1  A    between atoms: C_2  and  C_3 
REMARK       I    between atoms: C_2  and  N_21 
REMARK    2  A    between atoms: C_3  and  S_4 
REMARK    3  A    between atoms: S_4  and  C_5 
REMARK    4  A    between atoms: C_8  and  N_9 
REMARK    5  A    between atoms: N_9  and  N_10 
REMARK    6  A    between atoms: C_11  and  C_12 
REMARK    7  A    between atoms: N_21  and  C_22 
REMARK    8  A    between atoms: C_22  and  C_23 
ROOT
ATOM      1  C   UNL d   1      28.910 -11.764   1.061  0.00  0.00     0.226 A 
ATOM      2  N   UNL d   1      30.231 -11.943   1.176  0.00  0.00    -0.132 NA
ATOM      3  N   UNL d   1      30.305 -13.282   1.331  0.00  0.00    -0.103 N 
ATOM      4  C   UNL d   1      29.068 -13.873   1.280  0.00  0.00     0.739 A 
ATOM      5  N   UNL d   1      28.175 -12.917   1.122  0.00  0.00    -0.034 NA
ATOM      6  H   UNL d   1      31.215 -13.709   1.457  0.00  0.00     0.208 HD
ENDROOT
BRANCH   1   7
ATOM      7  S   UNL d   1      28.182 -10.177   1.075  0.00  0.00    -0.079 SA
BRANCH   7   8
ATOM      8  C   UNL d   1      26.710 -10.377   2.130  0.00  0.00     0.185 C 
BRANCH   8   9
ATOM      9  C   UNL d   1      26.904  -9.698   3.498  0.00  0.00     0.227 C 
ATOM     10  O   UNL d   1      26.652  -8.510   3.731  0.00  0.00    -0.273 OA
ATOM     11  N   UNL d   1      27.384 -10.447   4.546  0.00  0.00    -0.356 N 
ATOM     12  H   UNL d   1      27.507  -9.919   5.405  0.00  0.00     0.162 HD
BRANCH  11  13
ATOM     13  C   UNL d   1      27.770 -11.838   4.521  0.00  0.00     0.162 C 
BRANCH  13  14
ATOM     14  C   UNL d   1      28.255 -12.347   5.857  0.00  0.00    -0.019 A 
ATOM     15  C   UNL d   1      28.281 -11.478   6.964  0.00  0.00     0.010 A 
ATOM     16  C   UNL d   1      28.680 -11.930   8.228  0.00  0.00     0.001 A 
ATOM     17  C   UNL d   1      29.065 -13.255   8.406  0.00  0.00     0.002 A 
ATOM     18  C   UNL d   1      29.065 -14.126   7.318  0.00  0.00     0.024 A 
ATOM     19  C   UNL d   1      28.673 -13.675   6.051  0.00  0.00     0.042 A 
ATOM     20 CL   UNL d   1      28.723 -14.815   4.755  0.00  0.00    -0.084 Cl
ENDBRANCH  13  14
ENDBRANCH  11  13
ENDBRANCH   8   9
ENDBRANCH   7   8
ENDBRANCH   1   7
BRANCH   4  21
ATOM     21  N   UNL d   1      28.887 -15.223   1.375  0.00  0.00    -0.106 N 
ATOM     22  H   UNL d   1      29.662 -15.842   1.603  0.00  0.00     0.208 HD
BRANCH  21  23
ATOM     23  N   UNL d   1      27.643 -15.763   1.165  0.00  0.00    -0.172 NA
ATOM     24  C   UNL d   1      27.354 -16.212  -0.015  0.00  0.00     0.152 C 
BRANCH  24  25
ATOM     25  C   UNL d   1      26.034 -16.846  -0.277  0.00  0.00     0.005 A 
ATOM     26  C   UNL d   1      25.649 -17.960   0.483  0.00  0.00     0.016 A 
ATOM     27  C   UNL d   1      24.408 -18.573   0.261  0.00  0.00     0.025 A 
ATOM     28  C   UNL d   1      23.561 -18.085  -0.731  0.00  0.00     0.035 A 
ATOM     29 CL   UNL d   1      22.040 -18.845  -1.007  0.00  0.00    -0.084 Cl
ATOM     30  C   UNL d   1      23.935 -16.985  -1.500  0.00  0.00     0.048 A 
ATOM     31  C   UNL d   1      25.169 -16.359  -1.267  0.00  0.00     0.047 A 
ATOM     32 CL   UNL d   1      25.581 -15.013  -2.267  0.00  0.00    -0.083 Cl
ENDBRANCH  24  25
ENDBRANCH  21  23
ENDBRANCH   4  21
TORSDOF 8
ENDMDL
MODEL 4
REMARK VINA RESULT:    -8.978      6.596      8.775
REMARK INTER + INTRA:         -12.716
REMARK INTER:                 -11.364
REMARK INTRA:                  -1.352
REMARK CONF_INDEPENDENT:        2.386
REMARK UNBOUND:                -1.352
REMARK  8 active torsions:
REMARK  status: ('A' for Active; 'I' for Inactive)
REMARK    1  A    between atoms: C_2  and  C_3 
REMARK       I    between atoms: C_2  and  N_21 
REMARK    2  A    between atoms: C_3  and  S_4 
REMARK    3  A    between atoms: S_4  and  C_5 
REMARK    4  A    between atoms: C_8  and  N_9 
REMARK    5  A    between atoms: N_9  and  N_10 
REMARK    6  A    between atoms: C_11  and  C_12 
REMARK    7  A    between atoms: N_21  and  C_22 
REMARK    8  A    between atoms: C_22  and  C_23 
ROOT
ATOM      1  C   UNL d   1      28.165 -14.299  -0.663  0.00  0.00     0.226 A 
ATOM      2  N   UNL d   1      28.395 -14.311   0.655  0.00  0.00    -0.132 NA
ATOM      3  N   UNL d   1      29.022 -15.498   0.803  0.00  0.00    -0.103 N 
ATOM      4  C   UNL d   1      29.179 -16.148  -0.395  0.00  0.00     0.739 A 
ATOM      5  N   UNL d   1      28.627 -15.400  -1.330  0.00  0.00    -0.034 NA
ATOM      6  H   UNL d   1      29.311 -15.785   1.731  0.00  0.00     0.208 HD
ENDROOT
BRANCH   1   7
ATOM      7  S   UNL d   1      27.152 -13.093  -1.417  0.00  0.00    -0.079 SA
BRANCH   7   8
ATOM      8  C   UNL d   1      27.034 -13.639  -3.152  0.00  0.00     0.185 C 
BRANCH   8   9
ATOM      9  C   UNL d   1      25.591 -14.035  -3.518  0.00  0.00     0.227 C 
ATOM     10  O   UNL d   1      24.937 -13.522  -4.432  0.00  0.00    -0.273 OA
ATOM     11  N   UNL d   1      24.974 -15.028  -2.795  0.00  0.00    -0.356 N 
ATOM     12  H   UNL d   1      24.018 -15.212  -3.083  0.00  0.00     0.162 HD
BRANCH  11  13
ATOM     13  C   UNL d   1      25.518 -15.759  -1.674  0.00  0.00     0.162 C 
BRANCH  13  14
ATOM     14  C   UNL d   1      24.501 -16.633  -0.983  0.00  0.00    -0.019 A 
ATOM     15  C   UNL d   1      23.129 -16.340  -1.110  0.00  0.00     0.010 A 
ATOM     16  C   UNL d   1      22.158 -17.157  -0.520  0.00  0.00     0.001 A 
ATOM     17  C   UNL d   1      22.538 -18.278   0.211  0.00  0.00     0.002 A 
ATOM     18  C   UNL d   1      23.890 -18.575   0.365  0.00  0.00     0.024 A 
ATOM     19  C   UNL d   1      24.866 -17.755  -0.217  0.00  0.00     0.042 A 
ATOM     20 CL   UNL d   1      26.519 -18.184   0.041  0.00  0.00    -0.084 Cl
ENDBRANCH  13  14
ENDBRANCH  11  13
ENDBRANCH   8   9
ENDBRANCH   7   8
ENDBRANCH   1   7
BRANCH   4  21
ATOM     21  N   UNL d   1      29.818 -17.349  -0.509  0.00  0.00    -0.106 N 
ATOM     22  H   UNL d   1      30.194 -17.824   0.309  0.00  0.00     0.208 HD
BRANCH  21  23
ATOM     23  N   UNL d   1      29.957 -17.936  -1.741  0.00  0.00    -0.172 NA
ATOM     24  C   UNL d   1      30.278 -17.190  -2.750  0.00  0.00     0.152 C 
BRANCH  24  25
ATOM     25  C   UNL d   1      30.482 -17.791  -4.096  0.00  0.00     0.005 A 
ATOM     26  C   UNL d   1      30.982 -19.098  -4.191  0.00  0.00     0.016 A 
ATOM     27  C   UNL d   1      31.179 -19.690  -5.446  0.00  0.00     0.025 A 
ATOM     28  C   UNL d   1      30.895 -18.971  -6.605  0.00  0.00     0.035 A 
ATOM     29 CL   UNL d   1      31.145 -19.699  -8.146  0.00  0.00    -0.084 Cl
ATOM     30  C   UNL d   1      30.407 -17.669  -6.524  0.00  0.00     0.048 A 
ATOM     31  C   UNL d   1      30.192 -17.081  -5.269  0.00  0.00     0.047 A 
ATOM     32 CL   UNL d   1      29.604 -15.457  -5.239  0.00  0.00    -0.083 Cl
ENDBRANCH  24  25
ENDBRANCH  21  23
ENDBRANCH   4  21
TORSDOF 8
ENDMDL
MODEL 5
REMARK VINA RESULT:    -8.807      4.964      9.015
REMARK INTER + INTRA:         -12.675
REMARK INTER:                 -11.194
REMARK INTRA:                  -1.482
REMARK CONF_INDEPENDENT:        2.386
REMARK UNBOUND:                -1.482
REMARK  8 active torsions:
REMARK  status: ('A' for Active; 'I' for Inactive)
REMARK    1  A    between atoms: C_2  and  C_3 
REMARK       I    between atoms: C_2  and  N_21 
REMARK    2  A    between atoms: C_3  and  S_4 
REMARK    3  A    between atoms: S_4  and  C_5 
REMARK    4  A    between atoms: C_8  and  N_9 
REMARK    5  A    between atoms: N_9  and  N_10 
REMARK    6  A    between atoms: C_11  and  C_12 
REMARK    7  A    between atoms: N_21  and  C_22 
REMARK    8  A    between atoms: C_22  and  C_23 
ROOT
ATOM      1  C   UNL d   1      29.704 -16.733  -2.267  0.00  0.00     0.226 A 
ATOM      2  N   UNL d   1      30.137 -17.881  -1.734  0.00  0.00    -0.132 NA
ATOM      3  N   UNL d   1      30.355 -17.512  -0.453  0.00  0.00    -0.103 N 
ATOM      4  C   UNL d   1      30.034 -16.196  -0.237  0.00  0.00     0.739 A 
ATOM      5  N   UNL d   1      29.632 -15.689  -1.386  0.00  0.00    -0.034 NA
ATOM      6  H   UNL d   1      30.710 -18.201   0.200  0.00  0.00     0.208 HD
ENDROOT
BRANCH   1   7
ATOM      7  S   UNL d   1      29.486 -16.534  -3.988  0.00  0.00    -0.079 SA
BRANCH   7   8
ATOM      8  C   UNL d   1      28.511 -15.001  -4.134  0.00  0.00     0.185 C 
BRANCH   8   9
ATOM      9  C   UNL d   1      27.056 -15.299  -4.544  0.00  0.00     0.227 C 
ATOM     10  O   UNL d   1      26.650 -15.324  -5.711  0.00  0.00    -0.273 OA
ATOM     11  N   UNL d   1      26.132 -15.563  -3.561  0.00  0.00    -0.356 N 
ATOM     12  H   UNL d   1      25.194 -15.724  -3.912  0.00  0.00     0.162 HD
BRANCH  11  13
ATOM     13  C   UNL d   1      26.354 -15.572  -2.134  0.00  0.00     0.162 C 
BRANCH  13  14
ATOM     14  C   UNL d   1      25.293 -16.326  -1.370  0.00  0.00    -0.019 A 
ATOM     15  C   UNL d   1      23.937 -15.994  -1.553  0.00  0.00     0.010 A 
ATOM     16  C   UNL d   1      22.925 -16.704  -0.895  0.00  0.00     0.001 A 
ATOM     17  C   UNL d   1      23.249 -17.753  -0.040  0.00  0.00     0.002 A 
ATOM     18  C   UNL d   1      24.586 -18.084   0.169  0.00  0.00     0.024 A 
ATOM     19  C   UNL d   1      25.602 -17.371  -0.481  0.00  0.00     0.042 A 
ATOM     20 CL   UNL d   1      27.232 -17.834  -0.148  0.00  0.00    -0.084 Cl
ENDBRANCH  13  14
ENDBRANCH  11  13
ENDBRANCH   8   9
ENDBRANCH   7   8
ENDBRANCH   1   7
BRANCH   4  21
ATOM     21  N   UNL d   1      30.133 -15.600   0.987  0.00  0.00    -0.106 N 
ATOM     22  H   UNL d   1      30.559 -16.085   1.775  0.00  0.00     0.208 HD
BRANCH  21  23
ATOM     23  N   UNL d   1      29.658 -14.325   1.168  0.00  0.00    -0.172 NA
ATOM     24  C   UNL d   1      28.424 -14.170   1.531  0.00  0.00     0.152 C 
BRANCH  24  25
ATOM     25  C   UNL d   1      27.879 -12.809   1.782  0.00  0.00     0.005 A 
ATOM     26  C   UNL d   1      27.712 -11.930   0.701  0.00  0.00     0.016 A 
ATOM     27  C   UNL d   1      27.194 -10.645   0.909  0.00  0.00     0.025 A 
ATOM     28  C   UNL d   1      26.861 -10.230   2.196  0.00  0.00     0.035 A 
ATOM     29 CL   UNL d   1      26.233  -8.646   2.448  0.00  0.00    -0.084 Cl
ATOM     30  C   UNL d   1      27.031 -11.089   3.280  0.00  0.00     0.048 A 
ATOM     31  C   UNL d   1      27.532 -12.383   3.071  0.00  0.00     0.047 A 
ATOM     32 CL   UNL d   1      27.736 -13.392   4.458  0.00  0.00    -0.083 Cl
ENDBRANCH  24  25
ENDBRANCH  21  23
ENDBRANCH   4  21
TORSDOF 8
ENDMDL
MODEL 6
REMARK VINA RESULT:    -8.743      3.084      9.354
REMARK INTER + INTRA:         -12.465
REMARK INTER:                 -11.129
REMARK INTRA:                  -1.336
REMARK CONF_INDEPENDENT:        2.386
REMARK UNBOUND:                -1.336
REMARK  8 active torsions:
REMARK  status: ('A' for Active; 'I' for Inactive)
REMARK    1  A    between atoms: C_2  and  C_3 
REMARK       I    between atoms: C_2  and  N_21 
REMARK    2  A    between atoms: C_3  and  S_4 
REMARK    3  A    between atoms: S_4  and  C_5 
REMARK    4  A    between atoms: C_8  and  N_9 
REMARK    5  A    between atoms: N_9  and  N_10 
REMARK    6  A    between atoms: C_11  and  C_12 
REMARK    7  A    between atoms: N_21  and  C_22 
REMARK    8  A    between atoms: C_22  and  C_23 
ROOT
ATOM      1  C   UNL d   1      27.410 -12.966  -0.586  0.00  0.00     0.226 A 
ATOM      2  N   UNL d   1      26.666 -12.351   0.340  0.00  0.00    -0.132 NA
ATOM      3  N   UNL d   1      26.965 -13.072   1.443  0.00  0.00    -0.103 N 
ATOM      4  C   UNL d   1      27.877 -14.061   1.175  0.00  0.00     0.739 A 
ATOM      5  N   UNL d   1      28.156 -14.010  -0.112  0.00  0.00    -0.034 NA
ATOM      6  H   UNL d   1      26.521 -12.829   2.320  0.00  0.00     0.208 HD
ENDROOT
BRANCH   1   7
ATOM      7  S   UNL d   1      27.251 -12.613  -2.289  0.00  0.00    -0.079 SA
BRANCH   7   8
ATOM      8  C   UNL d   1      27.115 -14.256  -3.067  0.00  0.00     0.185 C 
BRANCH   8   9
ATOM      9  C   UNL d   1      25.670 -14.547  -3.512  0.00  0.00     0.227 C 
ATOM     10  O   UNL d   1      25.212 -14.270  -4.626  0.00  0.00    -0.273 OA
ATOM     11  N   UNL d   1      24.816 -15.161  -2.627  0.00  0.00    -0.356 N 
ATOM     12  H   UNL d   1      23.877 -15.295  -2.988  0.00  0.00     0.162 HD
BRANCH  11  13
ATOM     13  C   UNL d   1      25.105 -15.560  -1.269  0.00  0.00     0.162 C 
BRANCH  13  14
ATOM     14  C   UNL d   1      24.253 -16.711  -0.792  0.00  0.00    -0.019 A 
ATOM     15  C   UNL d   1      22.852 -16.638  -0.914  0.00  0.00     0.010 A 
ATOM     16  C   UNL d   1      22.036 -17.706  -0.524  0.00  0.00     0.001 A 
ATOM     17  C   UNL d   1      22.603 -18.864  -0.001  0.00  0.00     0.002 A 
ATOM     18  C   UNL d   1      23.986 -18.949   0.145  0.00  0.00     0.024 A 
ATOM     19  C   UNL d   1      24.805 -17.879  -0.236  0.00  0.00     0.042 A 
ATOM     20 CL   UNL d   1      26.507 -18.061  -0.001  0.00  0.00    -0.084 Cl
ENDBRANCH  13  14
ENDBRANCH  11  13
ENDBRANCH   8   9
ENDBRANCH   7   8
ENDBRANCH   1   7
BRANCH   4  21
ATOM     21  N   UNL d   1      28.365 -14.899   2.136  0.00  0.00    -0.106 N 
ATOM     22  H   UNL d   1      28.869 -15.748   1.887  0.00  0.00     0.208 HD
BRANCH  21  23
ATOM     23  N   UNL d   1      28.180 -14.600   3.463  0.00  0.00    -0.172 NA
ATOM     24  C   UNL d   1      29.087 -13.906   4.073  0.00  0.00     0.152 C 
BRANCH  24  25
ATOM     25  C   UNL d   1      28.908 -13.521   5.499  0.00  0.00     0.005 A 
ATOM     26  C   UNL d   1      29.300 -14.418   6.503  0.00  0.00     0.016 A 
ATOM     27  C   UNL d   1      29.149 -14.078   7.854  0.00  0.00     0.025 A 
ATOM     28  C   UNL d   1      28.589 -12.851   8.202  0.00  0.00     0.035 A 
ATOM     29 CL   UNL d   1      28.397 -12.440   9.864  0.00  0.00    -0.084 Cl
ATOM     30  C   UNL d   1      28.186 -11.954   7.215  0.00  0.00     0.048 A 
ATOM     31  C   UNL d   1      28.354 -12.285   5.862  0.00  0.00     0.047 A 
ATOM     32 CL   UNL d   1      27.817 -11.138   4.688  0.00  0.00    -0.083 Cl
ENDBRANCH  24  25
ENDBRANCH  21  23
ENDBRANCH   4  21
TORSDOF 8
ENDMDL
MODEL 7
REMARK VINA RESULT:    -8.636      2.466      3.273
REMARK INTER + INTRA:         -12.452
REMARK INTER:                 -11.022
REMARK INTRA:                  -1.430
REMARK CONF_INDEPENDENT:        2.386
REMARK UNBOUND:                -1.430
REMARK  8 active torsions:
REMARK  status: ('A' for Active; 'I' for Inactive)
REMARK    1  A    between atoms: C_2  and  C_3 
REMARK       I    between atoms: C_2  and  N_21 
REMARK    2  A    between atoms: C_3  and  S_4 
REMARK    3  A    between atoms: S_4  and  C_5 
REMARK    4  A    between atoms: C_8  and  N_9 
REMARK    5  A    between atoms: N_9  and  N_10 
REMARK    6  A    between atoms: C_11  and  C_12 
REMARK    7  A    between atoms: N_21  and  C_22 
REMARK    8  A    between atoms: C_22  and  C_23 
ROOT
ATOM      1  C   UNL d   1      29.989 -12.484   1.736  0.00  0.00     0.226 A 
ATOM      2  N   UNL d   1      30.510 -13.152   2.771  0.00  0.00    -0.132 NA
ATOM      3  N   UNL d   1      30.224 -14.429   2.435  0.00  0.00    -0.103 N 
ATOM      4  C   UNL d   1      29.578 -14.506   1.226  0.00  0.00     0.739 A 
ATOM      5  N   UNL d   1      29.413 -13.277   0.781  0.00  0.00    -0.034 NA
ATOM      6  H   UNL d   1      30.500 -15.173   3.063  0.00  0.00     0.208 HD
ENDROOT
BRANCH   1   7
ATOM      7  S   UNL d   1      29.847 -10.744   1.732  0.00  0.00    -0.079 SA
BRANCH   7   8
ATOM      8  C   UNL d   1      29.725 -10.308   3.497  0.00  0.00     0.185 C 
BRANCH   8   9
ATOM      9  C   UNL d   1      28.331  -9.753   3.843  0.00  0.00     0.227 C 
ATOM     10  O   UNL d   1      27.698  -8.963   3.135  0.00  0.00    -0.273 OA
ATOM     11  N   UNL d   1      27.729 -10.157   5.011  0.00  0.00    -0.356 N 
ATOM     12  H   UNL d   1      26.824  -9.727   5.177  0.00  0.00     0.162 HD
BRANCH  11  13
ATOM     13  C   UNL d   1      28.271 -11.050   6.009  0.00  0.00     0.162 C 
BRANCH  13  14
ATOM     14  C   UNL d   1      28.242 -12.500   5.590  0.00  0.00    -0.019 A 
ATOM     15  C   UNL d   1      27.696 -12.852   4.341  0.00  0.00     0.010 A 
ATOM     16  C   UNL d   1      27.695 -14.181   3.902  0.00  0.00     0.001 A 
ATOM     17  C   UNL d   1      28.236 -15.182   4.704  0.00  0.00     0.002 A 
ATOM     18  C   UNL d   1      28.764 -14.856   5.951  0.00  0.00     0.024 A 
ATOM     19  C   UNL d   1      28.758 -13.528   6.397  0.00  0.00     0.042 A 
ATOM     20 CL   UNL d   1      29.414 -13.217   7.965  0.00  0.00    -0.084 Cl
ENDBRANCH  13  14
ENDBRANCH  11  13
ENDBRANCH   8   9
ENDBRANCH   7   8
ENDBRANCH   1   7
BRANCH   4  21
ATOM     21  N   UNL d   1      29.216 -15.692   0.654  0.00  0.00    -0.106 N 
ATOM     22  H   UNL d   1      29.916 -16.330   0.281  0.00  0.00     0.208 HD
BRANCH  21  23
ATOM     23  N   UNL d   1      27.891 -16.040   0.580  0.00  0.00    -0.172 NA
ATOM     24  C   UNL d   1      27.447 -16.559  -0.520  0.00  0.00     0.152 C 
BRANCH  24  25
ATOM     25  C   UNL d   1      26.029 -16.993  -0.630  0.00  0.00     0.005 A 
ATOM     26  C   UNL d   1      25.578 -18.060   0.160  0.00  0.00     0.016 A 
ATOM     27  C   UNL d   1      24.245 -18.485   0.081  0.00  0.00     0.025 A 
ATOM     28  C   UNL d   1      23.367 -17.857  -0.800  0.00  0.00     0.035 A 
ATOM     29 CL   UNL d   1      21.731 -18.386  -0.901  0.00  0.00    -0.084 Cl
ATOM     30  C   UNL d   1      23.805 -16.801  -1.598  0.00  0.00     0.048 A 
ATOM     31  C   UNL d   1      25.134 -16.362  -1.506  0.00  0.00     0.047 A 
ATOM     32 CL   UNL d   1      25.618 -15.063  -2.536  0.00  0.00    -0.083 Cl
ENDBRANCH  24  25
ENDBRANCH  21  23
ENDBRANCH   4  21
TORSDOF 8
ENDMDL
MODEL 8
REMARK VINA RESULT:    -8.389      7.131      9.118
REMARK INTER + INTRA:         -12.531
REMARK INTER:                 -10.775
REMARK INTRA:                  -1.756
REMARK CONF_INDEPENDENT:        2.386
REMARK UNBOUND:                -1.756
REMARK  8 active torsions:
REMARK  status: ('A' for Active; 'I' for Inactive)
REMARK    1  A    between atoms: C_2  and  C_3 
REMARK       I    between atoms: C_2  and  N_21 
REMARK    2  A    between atoms: C_3  and  S_4 
REMARK    3  A    between atoms: S_4  and  C_5 
REMARK    4  A    between atoms: C_8  and  N_9 
REMARK    5  A    between atoms: N_9  and  N_10 
REMARK    6  A    between atoms: C_11  and  C_12 
REMARK    7  A    between atoms: N_21  and  C_22 
REMARK    8  A    between atoms: C_22  and  C_23 
ROOT
ATOM      1  C   UNL d   1      30.710 -17.088  -2.292  0.00  0.00     0.226 A 
ATOM      2  N   UNL d   1      31.077 -18.138  -1.549  0.00  0.00    -0.132 NA
ATOM      3  N   UNL d   1      30.377 -17.918  -0.415  0.00  0.00    -0.103 N 
ATOM      4  C   UNL d   1      29.603 -16.789  -0.502  0.00  0.00     0.739 A 
ATOM      5  N   UNL d   1      29.817 -16.248  -1.685  0.00  0.00    -0.034 NA
ATOM      6  H   UNL d   1      30.474 -18.572   0.353  0.00  0.00     0.208 HD
ENDROOT
BRANCH   1   7
ATOM      7  S   UNL d   1      31.491 -16.704  -3.806  0.00  0.00    -0.079 SA
BRANCH   7   8
ATOM      8  C   UNL d   1      30.299 -17.257  -5.069  0.00  0.00     0.185 C 
BRANCH   8   9
ATOM      9  C   UNL d   1      29.959 -16.123  -6.054  0.00  0.00     0.227 C 
ATOM     10  O   UNL d   1      30.659 -15.804  -7.021  0.00  0.00    -0.273 OA
ATOM     11  N   UNL d   1      28.800 -15.408  -5.865  0.00  0.00    -0.356 N 
ATOM     12  H   UNL d   1      28.662 -14.663  -6.541  0.00  0.00     0.162 HD
BRANCH  11  13
ATOM     13  C   UNL d   1      27.835 -15.574  -4.804  0.00  0.00     0.162 C 
BRANCH  13  14
ATOM     14  C   UNL d   1      27.180 -14.280  -4.386  0.00  0.00    -0.019 A 
ATOM     15  C   UNL d   1      25.820 -14.062  -4.679  0.00  0.00     0.010 A 
ATOM     16  C   UNL d   1      25.169 -12.894  -4.265  0.00  0.00     0.001 A 
ATOM     17  C   UNL d   1      25.866 -11.920  -3.557  0.00  0.00     0.002 A 
ATOM     18  C   UNL d   1      27.217 -12.107  -3.274  0.00  0.00     0.024 A 
ATOM     19  C   UNL d   1      27.873 -13.272  -3.693  0.00  0.00     0.042 A 
ATOM     20 CL   UNL d   1      29.553 -13.413  -3.318  0.00  0.00    -0.084 Cl
ENDBRANCH  13  14
ENDBRANCH  11  13
ENDBRANCH   8   9
ENDBRANCH   7   8
ENDBRANCH   1   7
BRANCH   4  21
ATOM     21  N   UNL d   1      28.777 -16.377   0.504  0.00  0.00    -0.106 N 
ATOM     22  H   UNL d   1      29.151 -15.951   1.350  0.00  0.00     0.208 HD
BRANCH  21  23
ATOM     23  N   UNL d   1      27.420 -16.532   0.382  0.00  0.00    -0.172 NA
ATOM     24  C   UNL d   1      26.970 -17.456  -0.407  0.00  0.00     0.152 C 
BRANCH  24  25
ATOM     25  C   UNL d   1      25.507 -17.689  -0.536  0.00  0.00     0.005 A 
ATOM     26  C   UNL d   1      24.970 -18.912  -0.107  0.00  0.00     0.016 A 
ATOM     27  C   UNL d   1      23.594 -19.156  -0.212  0.00  0.00     0.025 A 
ATOM     28  C   UNL d   1      22.757 -18.187  -0.762  0.00  0.00     0.035 A 
ATOM     29 CL   UNL d   1      21.067 -18.493  -0.896  0.00  0.00    -0.084 Cl
ATOM     30  C   UNL d   1      23.279 -16.972  -1.201  0.00  0.00     0.048 A 
ATOM     31  C   UNL d   1      24.653 -16.719  -1.080  0.00  0.00     0.047 A 
ATOM     32 CL   UNL d   1      25.239 -15.201  -1.660  0.00  0.00    -0.083 Cl
ENDBRANCH  24  25
ENDBRANCH  21  23
ENDBRANCH   4  21
TORSDOF 8
ENDMDL
MODEL 9
REMARK VINA RESULT:    -7.815      3.617      4.399
REMARK INTER + INTRA:         -12.472
REMARK INTER:                 -10.201
REMARK INTRA:                  -2.271
REMARK CONF_INDEPENDENT:        2.386
REMARK UNBOUND:                -2.271
REMARK  8 active torsions:
REMARK  status: ('A' for Active; 'I' for Inactive)
REMARK    1  A    between atoms: C_2  and  C_3 
REMARK       I    between atoms: C_2  and  N_21 
REMARK    2  A    between atoms: C_3  and  S_4 
REMARK    3  A    between atoms: S_4  and  C_5 
REMARK    4  A    between atoms: C_8  and  N_9 
REMARK    5  A    between atoms: N_9  and  N_10 
REMARK    6  A    between atoms: C_11  and  C_12 
REMARK    7  A    between atoms: N_21  and  C_22 
REMARK    8  A    between atoms: C_22  and  C_23 
ROOT
ATOM      1  C   UNL d   1      30.130 -14.062  -0.374  0.00  0.00     0.226 A 
ATOM      2  N   UNL d   1      30.616 -14.254   0.858  0.00  0.00    -0.132 NA
ATOM      3  N   UNL d   1      30.364 -15.568   1.041  0.00  0.00    -0.103 N 
ATOM      4  C   UNL d   1      29.775 -16.135  -0.061  0.00  0.00     0.739 A 
ATOM      5  N   UNL d   1      29.610 -15.184  -0.959  0.00  0.00    -0.034 NA
ATOM      6  H   UNL d   1      30.624 -15.997   1.921  0.00  0.00     0.208 HD
ENDROOT
BRANCH   1   7
ATOM      7  S   UNL d   1      29.961 -12.469  -1.067  0.00  0.00    -0.079 SA
BRANCH   7   8
ATOM      8  C   UNL d   1      28.497 -11.778  -0.230  0.00  0.00     0.185 C 
BRANCH   8   9
ATOM      9  C   UNL d   1      27.328 -12.781  -0.226  0.00  0.00     0.227 C 
ATOM     10  O   UNL d   1      27.001 -13.476  -1.194  0.00  0.00    -0.273 OA
ATOM     11  N   UNL d   1      26.590 -12.932   0.924  0.00  0.00    -0.356 N 
ATOM     12  H   UNL d   1      25.824 -13.592   0.836  0.00  0.00     0.162 HD
BRANCH  11  13
ATOM     13  C   UNL d   1      26.760 -12.223   2.170  0.00  0.00     0.162 C 
BRANCH  13  14
ATOM     14  C   UNL d   1      27.757 -12.877   3.097  0.00  0.00    -0.019 A 
ATOM     15  C   UNL d   1      27.526 -14.189   3.553  0.00  0.00     0.010 A 
ATOM     16  C   UNL d   1      28.451 -14.841   4.375  0.00  0.00     0.001 A 
ATOM     17  C   UNL d   1      29.622 -14.194   4.761  0.00  0.00     0.002 A 
ATOM     18  C   UNL d   1      29.860 -12.889   4.335  0.00  0.00     0.024 A 
ATOM     19  C   UNL d   1      28.932 -12.230   3.519  0.00  0.00     0.042 A 
ATOM     20 CL   UNL d   1      29.296 -10.606   3.055  0.00  0.00    -0.084 Cl
ENDBRANCH  13  14
ENDBRANCH  11  13
ENDBRANCH   8   9
ENDBRANCH   7   8
ENDBRANCH   1   7
BRANCH   4  21
ATOM     21  N   UNL d   1      29.458 -17.460  -0.132  0.00  0.00    -0.106 N 
ATOM     22  H   UNL d   1      30.181 -18.176  -0.094  0.00  0.00     0.208 HD
BRANCH  21  23
ATOM     23  N   UNL d   1      28.146 -17.845  -0.253  0.00  0.00    -0.172 NA
ATOM     24  C   UNL d   1      27.232 -16.928  -0.285  0.00  0.00     0.152 C 
BRANCH  24  25
ATOM     25  C   UNL d   1      25.801 -17.296  -0.459  0.00  0.00     0.005 A 
ATOM     26  C   UNL d   1      25.221 -18.216   0.426  0.00  0.00     0.016 A 
ATOM     27  C   UNL d   1      23.873 -18.576   0.288  0.00  0.00     0.025 A 
ATOM     28  C   UNL d   1      23.111 -18.033  -0.744  0.00  0.00     0.035 A 
ATOM     29 CL   UNL d   1      21.458 -18.483  -0.915  0.00  0.00    -0.084 Cl
ATOM     30  C   UNL d   1      23.679 -17.125  -1.636  0.00  0.00     0.048 A 
ATOM     31  C   UNL d   1      25.022 -16.749  -1.488  0.00  0.00     0.047 A 
ATOM     32 CL   UNL d   1      25.670 -15.636  -2.638  0.00  0.00    -0.083 Cl
ENDBRANCH  24  25
ENDBRANCH  21  23
ENDBRANCH   4  21
TORSDOF 8
ENDMDL
