MODEL 1
REMARK VINA RESULT:   -29.737      0.000      0.000
REMARK INTER + INTRA:         -33.959
REMARK INTER:                 -32.123
REMARK INTRA:                  -1.835
REMARK CONF_INDEPENDENT:        2.386
REMARK UNBOUND:                -1.835
REMARK  8 active torsions:
REMARK  status: ('A' for Active; 'I' for Inactive)
REMARK    1  A    between atoms: N_2  and  C_25 
REMARK    2  A    between atoms: N_2  and  C_3 
REMARK    3  A    between atoms: C_3  and  C_4 
REMARK    4  A    between atoms: C_5  and  C_6 
REMARK       I    between atoms: C_6  and  N_8 
REMARK    5  A    between atoms: N_8  and  N_9 
REMARK    6  A    between atoms: C_10  and  C_11 
REMARK    7  A    between atoms: N_18  and  C_19 
REMARK    8  A    between atoms: C_23  and  N_24 
ROOT
ATOM      1  C   UNL d   1      24.490 -17.167  -0.834  0.00  0.00     0.096 A 
ATOM      2  C   UNL d   1      25.732 -17.695  -0.406  0.00  0.00     0.170 A 
ATOM      3  N   UNL d   1      25.427 -18.952   0.089  0.00  0.00    -0.152 NA
ATOM      4  N   UNL d   1      24.112 -19.136   0.134  0.00  0.00     0.012 NA
ATOM      5  N   UNL d   1      23.487 -18.088  -0.432  0.00  0.00    -0.215 N 
ENDROOT
BRANCH   2   6
ATOM      6  C   UNL d   1      27.232 -17.280  -0.487  0.00  0.00     0.293 C 
ATOM      7  O   UNL d   1      27.843 -17.437  -1.556  0.00  0.00    -0.264 OA
ATOM      8  N   UNL d   1      27.902 -16.665   0.604  0.00  0.00    -0.242 N 
ATOM      9  H   UNL d   1      27.557 -16.679   1.530  0.00  0.00     0.192 HD
BRANCH   8  10
ATOM     10  N   UNL d   1      29.120 -15.967   0.539  0.00  0.00    -0.183 NA
ATOM     11  C   UNL d   1      30.051 -16.527  -0.192  0.00  0.00     0.157 C 
BRANCH  11  12
ATOM     12  C   UNL d   1      31.310 -15.923  -0.550  0.00  0.00     0.024 A 
ATOM     13  C   UNL d   1      32.587 -16.438  -0.574  0.00  0.00     0.021 A 
ATOM     14  C   UNL d   1      33.557 -15.455  -0.948  0.00  0.00     0.008 A 
ATOM     15  C   UNL d   1      32.988 -14.224  -1.188  0.00  0.00     0.050 A 
ATOM     16  S   UNL d   1      31.288 -14.268  -1.017  0.00  0.00    -0.101 SA
ENDBRANCH  11  12
ENDBRANCH   8  10
ENDBRANCH   2   6
BRANCH   1  17
ATOM     17  C   UNL d   1      24.033 -15.946  -1.507  0.00  0.00     0.296 C 
BRANCH  17  18
ATOM     18  N   UNL d   1      25.134 -15.013  -1.815  0.00  0.00    -0.065 N 
ATOM     19  C   UNL d   1      25.911 -14.690  -0.505  0.00  0.00     0.270 C 
ATOM     20  H   UNL d   1      24.590 -14.295  -2.288  0.00  0.00     0.280 HD
BRANCH  18  21
ATOM     21  C   UNL d   1      26.106 -15.407  -2.900  0.00  0.00     0.188 C 
ATOM     22  C   UNL d   1      25.534 -14.959  -4.234  0.00  0.00     0.033 C 
ATOM     23  C   UNL d   1      26.493 -15.165  -5.368  0.00  0.00     0.002 C 
ATOM     24  C   UNL d   1      27.830 -14.519  -5.054  0.00  0.00     0.000 C 
ATOM     25  C   UNL d   1      28.439 -15.092  -3.775  0.00  0.00     0.002 C 
ATOM     26  C   UNL d   1      27.507 -14.869  -2.598  0.00  0.00     0.033 C 
ENDBRANCH  18  21
ENDBRANCH  17  18
ENDBRANCH   1  17
BRANCH   5  27
ATOM     27  C   UNL d   1      22.060 -18.025  -0.649  0.00  0.00     0.225 A 
ATOM     28  N   UNL d   1      21.494 -16.919  -1.141  0.00  0.00    -0.081 NA
ATOM     29  O   UNL d   1      20.140 -17.262  -1.299  0.00  0.00    -0.103 OA
ATOM     30  N   UNL d   1      19.904 -18.575  -0.895  0.00  0.00    -0.083 NA
ATOM     31  C   UNL d   1      21.083 -19.032  -0.486  0.00  0.00     0.201 A 
BRANCH  31  32
ATOM     32  N   UNL d   1      21.280 -20.272   0.019  0.00  0.00    -0.379 N 
ATOM     33  H   UNL d   1      20.634 -20.544   0.764  0.00  0.00     0.158 HD
ATOM     34  H   UNL d   1      22.223 -20.574   0.244  0.00  0.00     0.158 HD
ENDBRANCH  31  32
ENDBRANCH   5  27
TORSDOF 8
ENDMDL
MODEL 2
REMARK VINA RESULT:   -29.677      1.346      1.415
REMARK INTER + INTRA:         -33.827
REMARK INTER:                 -32.063
REMARK INTRA:                  -1.764
REMARK CONF_INDEPENDENT:        2.386
REMARK UNBOUND:                -1.764
REMARK  8 active torsions:
REMARK  status: ('A' for Active; 'I' for Inactive)
REMARK    1  A    between atoms: N_2  and  C_25 
REMARK    2  A    between atoms: N_2  and  C_3 
REMARK    3  A    between atoms: C_3  and  C_4 
REMARK    4  A    between atoms: C_5  and  C_6 
REMARK       I    between atoms: C_6  and  N_8 
REMARK    5  A    between atoms: N_8  and  N_9 
REMARK    6  A    between atoms: C_10  and  C_11 
REMARK    7  A    between atoms: N_18  and  C_19 
REMARK    8  A    between atoms: C_23  and  N_24 
ROOT
ATOM      1  C   UNL d   1      24.484 -17.199  -0.879  0.00  0.00     0.096 A 
ATOM      2  C   UNL d   1      25.721 -17.706  -0.415  0.00  0.00     0.170 A 
ATOM      3  N   UNL d   1      25.406 -18.920   0.171  0.00  0.00    -0.152 NA
ATOM      4  N   UNL d   1      24.089 -19.089   0.230  0.00  0.00     0.012 NA
ATOM      5  N   UNL d   1      23.473 -18.079  -0.411  0.00  0.00    -0.215 N 
ENDROOT
BRANCH   2   6
ATOM      6  C   UNL d   1      27.226 -17.312  -0.528  0.00  0.00     0.293 C 
ATOM      7  O   UNL d   1      27.763 -17.304  -1.646  0.00  0.00    -0.264 OA
ATOM      8  N   UNL d   1      27.979 -16.896   0.602  0.00  0.00    -0.242 N 
ATOM      9  H   UNL d   1      27.693 -17.054   1.535  0.00  0.00     0.192 HD
BRANCH   8  10
ATOM     10  N   UNL d   1      29.211 -16.220   0.570  0.00  0.00    -0.183 NA
ATOM     11  C   UNL d   1      29.137 -14.913   0.618  0.00  0.00     0.157 C 
BRANCH  11  12
ATOM     12  C   UNL d   1      30.255 -14.016   0.773  0.00  0.00     0.024 A 
ATOM     13  C   UNL d   1      30.936 -13.250  -0.146  0.00  0.00     0.021 A 
ATOM     14  C   UNL d   1      32.028 -12.541   0.447  0.00  0.00     0.008 A 
ATOM     15  C   UNL d   1      32.148 -12.799   1.794  0.00  0.00     0.050 A 
ATOM     16  S   UNL d   1      30.915 -13.843   2.351  0.00  0.00    -0.101 SA
ENDBRANCH  11  12
ENDBRANCH   8  10
ENDBRANCH   2   6
BRANCH   1  17
ATOM     17  C   UNL d   1      24.037 -16.026  -1.639  0.00  0.00     0.296 C 
BRANCH  17  18
ATOM     18  N   UNL d   1      25.119 -15.053  -1.882  0.00  0.00    -0.065 N 
ATOM     19  C   UNL d   1      25.841 -14.746  -0.539  0.00  0.00     0.270 C 
ATOM     20  H   UNL d   1      24.569 -14.337  -2.354  0.00  0.00     0.280 HD
BRANCH  18  21
ATOM     21  C   UNL d   1      26.138 -15.386  -2.945  0.00  0.00     0.188 C 
ATOM     22  C   UNL d   1      25.540 -15.044  -4.299  0.00  0.00     0.033 C 
ATOM     23  C   UNL d   1      26.528 -15.193  -5.416  0.00  0.00     0.002 C 
ATOM     24  C   UNL d   1      27.791 -14.407  -5.115  0.00  0.00     0.000 C 
ATOM     25  C   UNL d   1      28.438 -14.872  -3.811  0.00  0.00     0.002 C 
ATOM     26  C   UNL d   1      27.475 -14.701  -2.651  0.00  0.00     0.033 C 
ENDBRANCH  18  21
ENDBRANCH  17  18
ENDBRANCH   1  17
BRANCH   5  27
ATOM     27  C   UNL d   1      22.046 -18.019  -0.630  0.00  0.00     0.225 A 
ATOM     28  N   UNL d   1      21.476 -16.905  -1.099  0.00  0.00    -0.081 NA
ATOM     29  O   UNL d   1      20.124 -17.252  -1.269  0.00  0.00    -0.103 OA
ATOM     30  N   UNL d   1      19.894 -18.575  -0.895  0.00  0.00    -0.083 NA
ATOM     31  C   UNL d   1      21.075 -19.035  -0.493  0.00  0.00     0.201 A 
BRANCH  31  32
ATOM     32  N   UNL d   1      21.277 -20.284  -0.015  0.00  0.00    -0.379 N 
ATOM     33  H   UNL d   1      20.500 -20.673   0.525  0.00  0.00     0.158 HD
ATOM     34  H   UNL d   1      22.161 -20.511   0.429  0.00  0.00     0.158 HD
ENDBRANCH  31  32
ENDBRANCH   5  27
TORSDOF 8
ENDMDL
MODEL 3
REMARK VINA RESULT:   -29.507      1.696      1.771
REMARK INTER + INTRA:         -33.725
REMARK INTER:                 -31.894
REMARK INTRA:                  -1.832
REMARK CONF_INDEPENDENT:        2.386
REMARK UNBOUND:                -1.832
REMARK  8 active torsions:
REMARK  status: ('A' for Active; 'I' for Inactive)
REMARK    1  A    between atoms: N_2  and  C_25 
REMARK    2  A    between atoms: N_2  and  C_3 
REMARK    3  A    between atoms: C_3  and  C_4 
REMARK    4  A    between atoms: C_5  and  C_6 
REMARK       I    between atoms: C_6  and  N_8 
REMARK    5  A    between atoms: N_8  and  N_9 
REMARK    6  A    between atoms: C_10  and  C_11 
REMARK    7  A    between atoms: N_18  and  C_19 
REMARK    8  A    between atoms: C_23  and  N_24 
ROOT
ATOM      1  C   UNL d   1      24.543 -17.654  -0.804  0.00  0.00     0.096 A 
ATOM      2  C   UNL d   1      25.683 -17.918  -0.008  0.00  0.00     0.170 A 
ATOM      3  N   UNL d   1      25.189 -18.575   1.106  0.00  0.00    -0.152 NA
ATOM      4  N   UNL d   1      23.860 -18.575   1.104  0.00  0.00     0.012 NA
ATOM      5  N   UNL d   1      23.407 -18.042  -0.045  0.00  0.00    -0.215 N 
ENDROOT
BRANCH   2   6
ATOM      6  C   UNL d   1      27.229 -17.776  -0.153  0.00  0.00     0.293 C 
ATOM      7  O   UNL d   1      27.944 -18.777   0.016  0.00  0.00    -0.264 OA
ATOM      8  N   UNL d   1      27.837 -16.552  -0.539  0.00  0.00    -0.242 N 
ATOM      9  H   UNL d   1      27.373 -15.680  -0.506  0.00  0.00     0.192 HD
BRANCH   8  10
ATOM     10  N   UNL d   1      29.152 -16.396  -1.011  0.00  0.00    -0.183 NA
ATOM     11  C   UNL d   1      29.379 -16.869  -2.211  0.00  0.00     0.157 C 
BRANCH  11  12
ATOM     12  C   UNL d   1      30.588 -16.675  -2.972  0.00  0.00     0.024 A 
ATOM     13  C   UNL d   1      31.908 -16.635  -2.582  0.00  0.00     0.021 A 
ATOM     14  C   UNL d   1      32.786 -16.362  -3.678  0.00  0.00     0.008 A 
ATOM     15  C   UNL d   1      32.105 -16.195  -4.863  0.00  0.00     0.050 A 
ATOM     16  S   UNL d   1      30.423 -16.422  -4.665  0.00  0.00    -0.101 SA
ENDBRANCH  11  12
ENDBRANCH   8  10
ENDBRANCH   2   6
BRANCH   1  17
ATOM     17  C   UNL d   1      24.285 -17.066  -2.124  0.00  0.00     0.296 C 
BRANCH  17  18
ATOM     18  N   UNL d   1      24.531 -15.613  -2.163  0.00  0.00    -0.065 N 
ATOM     19  C   UNL d   1      25.332 -15.195  -0.896  0.00  0.00     0.270 C 
ATOM     20  H   UNL d   1      23.569 -15.304  -2.296  0.00  0.00     0.280 HD
BRANCH  18  21
ATOM     21  C   UNL d   1      25.192 -15.045  -3.395  0.00  0.00     0.188 C 
ATOM     22  C   UNL d   1      25.082 -13.531  -3.337  0.00  0.00     0.033 C 
ATOM     23  C   UNL d   1      25.842 -12.858  -4.440  0.00  0.00     0.002 C 
ATOM     24  C   UNL d   1      27.280 -13.342  -4.463  0.00  0.00     0.000 C 
ATOM     25  C   UNL d   1      27.355 -14.856  -4.657  0.00  0.00     0.002 C 
ATOM     26  C   UNL d   1      26.623 -15.570  -3.536  0.00  0.00     0.033 C 
ENDBRANCH  18  21
ENDBRANCH  17  18
ENDBRANCH   1  17
BRANCH   5  27
ATOM     27  C   UNL d   1      22.012 -17.998  -0.415  0.00  0.00     0.225 A 
ATOM     28  N   UNL d   1      21.487 -16.898  -0.964  0.00  0.00    -0.081 NA
ATOM     29  O   UNL d   1      20.163 -17.258  -1.269  0.00  0.00    -0.103 OA
ATOM     30  N   UNL d   1      19.903 -18.575  -0.895  0.00  0.00    -0.083 NA
ATOM     31  C   UNL d   1      21.037 -19.018  -0.361  0.00  0.00     0.201 A 
BRANCH  31  32
ATOM     32  N   UNL d   1      21.195 -20.257   0.160  0.00  0.00    -0.379 N 
ATOM     33  H   UNL d   1      20.396 -20.607   0.695  0.00  0.00     0.158 HD
ATOM     34  H   UNL d   1      22.063 -20.492   0.630  0.00  0.00     0.158 HD
ENDBRANCH  31  32
ENDBRANCH   5  27
TORSDOF 8
ENDMDL
MODEL 4
REMARK VINA RESULT:   -29.268      1.589      1.899
REMARK INTER + INTRA:         -33.808
REMARK INTER:                 -31.655
REMARK INTRA:                  -2.154
REMARK CONF_INDEPENDENT:        2.386
REMARK UNBOUND:                -2.154
REMARK  8 active torsions:
REMARK  status: ('A' for Active; 'I' for Inactive)
REMARK    1  A    between atoms: N_2  and  C_25 
REMARK    2  A    between atoms: N_2  and  C_3 
REMARK    3  A    between atoms: C_3  and  C_4 
REMARK    4  A    between atoms: C_5  and  C_6 
REMARK       I    between atoms: C_6  and  N_8 
REMARK    5  A    between atoms: N_8  and  N_9 
REMARK    6  A    between atoms: C_10  and  C_11 
REMARK    7  A    between atoms: N_18  and  C_19 
REMARK    8  A    between atoms: C_23  and  N_24 
ROOT
ATOM      1  C   UNL d   1      24.420 -16.968  -0.749  0.00  0.00     0.096 A 
ATOM      2  C   UNL d   1      25.678 -17.442  -0.303  0.00  0.00     0.170 A 
ATOM      3  N   UNL d   1      25.421 -18.712   0.185  0.00  0.00    -0.152 NA
ATOM      4  N   UNL d   1      24.115 -18.954   0.209  0.00  0.00     0.012 NA
ATOM      5  N   UNL d   1      23.453 -17.933  -0.365  0.00  0.00    -0.215 N 
ENDROOT
BRANCH   2   6
ATOM      6  C   UNL d   1      27.159 -16.961  -0.360  0.00  0.00     0.293 C 
ATOM      7  O   UNL d   1      27.912 -17.432  -1.227  0.00  0.00    -0.264 OA
ATOM      8  N   UNL d   1      27.654 -15.949   0.505  0.00  0.00    -0.242 N 
ATOM      9  H   UNL d   1      27.189 -15.664   1.330  0.00  0.00     0.192 HD
BRANCH   8  10
ATOM     10  N   UNL d   1      28.843 -15.221   0.330  0.00  0.00    -0.183 NA
ATOM     11  C   UNL d   1      29.277 -14.588   1.392  0.00  0.00     0.157 C 
BRANCH  11  12
ATOM     12  C   UNL d   1      30.552 -13.925   1.508  0.00  0.00     0.024 A 
ATOM     13  C   UNL d   1      31.454 -13.873   2.547  0.00  0.00     0.021 A 
ATOM     14  C   UNL d   1      32.579 -13.043   2.242  0.00  0.00     0.008 A 
ATOM     15  C   UNL d   1      32.492 -12.485   0.986  0.00  0.00     0.050 A 
ATOM     16  S   UNL d   1      31.090 -13.004   0.159  0.00  0.00    -0.101 SA
ENDBRANCH  11  12
ENDBRANCH   8  10
ENDBRANCH   2   6
BRANCH   1  17
ATOM     17  C   UNL d   1      23.920 -15.767  -1.427  0.00  0.00     0.296 C 
BRANCH  17  18
ATOM     18  N   UNL d   1      24.810 -15.306  -2.510  0.00  0.00    -0.065 N 
ATOM     19  C   UNL d   1      24.142 -14.108  -3.245  0.00  0.00     0.270 C 
ATOM     20  H   UNL d   1      24.942 -16.199  -2.982  0.00  0.00     0.280 HD
BRANCH  18  21
ATOM     21  C   UNL d   1      26.233 -14.954  -2.149  0.00  0.00     0.188 C 
ATOM     22  C   UNL d   1      27.137 -15.425  -3.274  0.00  0.00     0.033 C 
ATOM     23  C   UNL d   1      28.560 -14.988  -3.087  0.00  0.00     0.002 C 
ATOM     24  C   UNL d   1      28.627 -13.489  -2.865  0.00  0.00     0.000 C 
ATOM     25  C   UNL d   1      27.812 -13.068  -1.643  0.00  0.00     0.002 C 
ATOM     26  C   UNL d   1      26.357 -13.466  -1.815  0.00  0.00     0.033 C 
ENDBRANCH  18  21
ENDBRANCH  17  18
ENDBRANCH   1  17
BRANCH   5  27
ATOM     27  C   UNL d   1      22.028 -17.933  -0.603  0.00  0.00     0.225 A 
ATOM     28  N   UNL d   1      21.418 -16.846  -1.083  0.00  0.00    -0.081 NA
ATOM     29  O   UNL d   1      20.084 -17.248  -1.271  0.00  0.00    -0.103 OA
ATOM     30  N   UNL d   1      19.904 -18.579  -0.895  0.00  0.00    -0.083 NA
ATOM     31  C   UNL d   1      21.098 -18.988  -0.476  0.00  0.00     0.201 A 
BRANCH  31  32
ATOM     32  N   UNL d   1      21.345 -20.227   0.009  0.00  0.00    -0.379 N 
ATOM     33  H   UNL d   1      20.674 -20.562   0.704  0.00  0.00     0.158 HD
ATOM     34  H   UNL d   1      22.290 -20.474   0.285  0.00  0.00     0.158 HD
ENDBRANCH  31  32
ENDBRANCH   5  27
TORSDOF 8
ENDMDL
MODEL 5
REMARK VINA RESULT:   -28.545      1.309      2.164
REMARK INTER + INTRA:         -33.576
REMARK INTER:                 -30.932
REMARK INTRA:                  -2.644
REMARK CONF_INDEPENDENT:        2.386
REMARK UNBOUND:                -2.644
REMARK  8 active torsions:
REMARK  status: ('A' for Active; 'I' for Inactive)
REMARK    1  A    between atoms: N_2  and  C_25 
REMARK    2  A    between atoms: N_2  and  C_3 
REMARK    3  A    between atoms: C_3  and  C_4 
REMARK    4  A    between atoms: C_5  and  C_6 
REMARK       I    between atoms: C_6  and  N_8 
REMARK    5  A    between atoms: N_8  and  N_9 
REMARK    6  A    between atoms: C_10  and  C_11 
REMARK    7  A    between atoms: N_18  and  C_19 
REMARK    8  A    between atoms: C_23  and  N_24 
ROOT
ATOM      1  C   UNL d   1      24.482 -17.151  -1.064  0.00  0.00     0.096 A 
ATOM      2  C   UNL d   1      25.748 -17.681  -0.717  0.00  0.00     0.170 A 
ATOM      3  N   UNL d   1      25.476 -18.946  -0.224  0.00  0.00    -0.152 NA
ATOM      4  N   UNL d   1      24.166 -19.136  -0.107  0.00  0.00     0.012 NA
ATOM      5  N   UNL d   1      23.506 -18.082  -0.621  0.00  0.00    -0.215 N 
ENDROOT
BRANCH   2   6
ATOM      6  C   UNL d   1      27.240 -17.259  -0.877  0.00  0.00     0.293 C 
ATOM      7  O   UNL d   1      27.602 -16.718  -1.934  0.00  0.00    -0.264 OA
ATOM      8  N   UNL d   1      28.182 -17.414   0.175  0.00  0.00    -0.242 N 
ATOM      9  H   UNL d   1      28.030 -17.997   0.959  0.00  0.00     0.192 HD
BRANCH   8  10
ATOM     10  N   UNL d   1      29.436 -16.785   0.260  0.00  0.00    -0.183 NA
ATOM     11  C   UNL d   1      30.280 -17.081  -0.696  0.00  0.00     0.157 C 
BRANCH  11  12
ATOM     12  C   UNL d   1      31.550 -16.437  -0.921  0.00  0.00     0.024 A 
ATOM     13  C   UNL d   1      31.858 -15.161  -1.337  0.00  0.00     0.021 A 
ATOM     14  C   UNL d   1      33.268 -14.965  -1.475  0.00  0.00     0.008 A 
ATOM     15  C   UNL d   1      33.986 -16.099  -1.168  0.00  0.00     0.050 A 
ATOM     16  S   UNL d   1      32.968 -17.375  -0.662  0.00  0.00    -0.101 SA
ENDBRANCH  11  12
ENDBRANCH   8  10
ENDBRANCH   2   6
BRANCH   1  17
ATOM     17  C   UNL d   1      23.984 -15.922  -1.692  0.00  0.00     0.296 C 
BRANCH  17  18
ATOM     18  N   UNL d   1      25.056 -15.114  -2.304  0.00  0.00    -0.065 N 
ATOM     19  C   UNL d   1      24.466 -14.300  -3.493  0.00  0.00     0.270 C 
ATOM     20  H   UNL d   1      25.728 -15.861  -2.467  0.00  0.00     0.280 HD
BRANCH  18  21
ATOM     21  C   UNL d   1      25.849 -14.199  -1.403  0.00  0.00     0.188 C 
ATOM     22  C   UNL d   1      25.905 -14.827  -0.021  0.00  0.00     0.033 C 
ATOM     23  C   UNL d   1      26.800 -14.073   0.915  0.00  0.00     0.002 C 
ATOM     24  C   UNL d   1      28.173 -13.885   0.298  0.00  0.00     0.000 C 
ATOM     25  C   UNL d   1      28.090 -13.130  -1.028  0.00  0.00     0.002 C 
ATOM     26  C   UNL d   1      27.217 -13.886  -2.013  0.00  0.00     0.033 C 
ENDBRANCH  18  21
ENDBRANCH  17  18
ENDBRANCH   1  17
BRANCH   5  27
ATOM     27  C   UNL d   1      22.069 -18.021  -0.754  0.00  0.00     0.225 A 
ATOM     28  N   UNL d   1      21.471 -16.904  -1.179  0.00  0.00    -0.081 NA
ATOM     29  O   UNL d   1      20.112 -17.250  -1.271  0.00  0.00    -0.103 OA
ATOM     30  N   UNL d   1      19.905 -18.577  -0.895  0.00  0.00    -0.083 NA
ATOM     31  C   UNL d   1      21.108 -19.038  -0.568  0.00  0.00     0.201 A 
BRANCH  31  32
ATOM     32  N   UNL d   1      21.338 -20.292  -0.113  0.00  0.00    -0.379 N 
ATOM     33  H   UNL d   1      20.582 -20.697   0.445  0.00  0.00     0.158 HD
ATOM     34  H   UNL d   1      22.238 -20.514   0.301  0.00  0.00     0.158 HD
ENDBRANCH  31  32
ENDBRANCH   5  27
TORSDOF 8
ENDMDL
