MODEL 1
REMARK VINA RESULT:    -8.953      0.000      0.000
REMARK INTER + INTRA:         -10.545
REMARK INTER:                 -10.146
REMARK INTRA:                  -0.398
REMARK CONF_INDEPENDENT:        1.193
REMARK UNBOUND:                -0.398
REMARK  4 active torsions:
REMARK  status: ('A' for Active; 'I' for Inactive)
REMARK       I    between atoms: C_2  and  N_3 
REMARK       I    between atoms: C_2  and  N_12 
REMARK    1  A    between atoms: N_3  and  O_4 
REMARK    2  A    between atoms: O_4  and  C_5 
REMARK    3  A    between atoms: C_5  and  C_6 
REMARK    4  A    between atoms: C_13  and  N_12 
ROOT
ATOM      1  O   UNL d   1      22.998 -17.044  -1.176  0.00  0.00    -0.245 OA
ATOM      2  C   UNL d   1      23.572 -18.109  -0.941  0.00  0.00     0.340 C 
ATOM      3  N   UNL d   1      23.007 -19.350  -1.191  0.00  0.00    -0.216 N 
ATOM      4  N   UNL d   1      24.819 -18.150  -0.347  0.00  0.00    -0.333 N 
ATOM      5  H   UNL d   1      23.487 -20.238  -1.149  0.00  0.00     0.199 HD
ATOM      6  H   UNL d   1      25.330 -19.008  -0.492  0.00  0.00     0.165 HD
ENDROOT
BRANCH   3   7
ATOM      7  O   UNL d   1      21.670 -19.313  -1.697  0.00  0.00    -0.272 OA
BRANCH   7   8
ATOM      8  C   UNL d   1      20.799 -18.509  -0.887  0.00  0.00     0.240 C 
BRANCH   8   9
ATOM      9  C   UNL d   1      19.939 -19.389   0.006  0.00  0.00    -0.032 A 
ATOM     10  C   UNL d   1      20.238 -19.561   1.367  0.00  0.00     0.009 A 
ATOM     11  C   UNL d   1      19.494 -20.449   2.156  0.00  0.00     0.001 A 
ATOM     12  C   UNL d   1      18.394 -21.115   1.619  0.00  0.00     0.000 A 
ATOM     13  C   UNL d   1      18.059 -20.923   0.282  0.00  0.00     0.001 A 
ATOM     14  C   UNL d   1      18.830 -20.074  -0.520  0.00  0.00     0.009 A 
ENDBRANCH   8   9
ENDBRANCH   7   8
ENDBRANCH   3   7
BRANCH   4  15
ATOM     15  C   UNL d   1      25.672 -16.956  -0.162  0.00  0.00     0.120 A 
ATOM     16  C   UNL d   1      27.064 -17.112   0.535  0.00  0.00     0.035 A 
ATOM     17  C   UNL d   1      28.184 -16.639  -0.406  0.00  0.00     0.041 A 
ATOM     18  C   UNL d   1      27.449 -16.220  -1.628  0.00  0.00    -0.048 A 
ATOM     19  C   UNL d   1      28.033 -15.681  -2.767  0.00  0.00     0.031 A 
ATOM     20  C   UNL d   1      26.063 -16.350  -1.494  0.00  0.00    -0.029 A 
ATOM     21  C   UNL d   1      27.195 -15.190  -3.762  0.00  0.00     0.034 A 
ATOM     22 CL   UNL d   1      27.873 -14.318  -5.082  0.00  0.00    -0.084 Cl
ATOM     23  C   UNL d   1      25.806 -15.329  -3.657  0.00  0.00     0.024 A 
ATOM     24  C   UNL d   1      25.232 -15.907  -2.516  0.00  0.00     0.011 A 
ENDBRANCH   4  15
TORSDOF 4
ENDMDL
MODEL 2
REMARK VINA RESULT:    -7.750      5.569      7.379
REMARK INTER + INTRA:          -9.298
REMARK INTER:                  -8.943
REMARK INTRA:                  -0.355
REMARK CONF_INDEPENDENT:        1.193
REMARK UNBOUND:                -0.355
REMARK  4 active torsions:
REMARK  status: ('A' for Active; 'I' for Inactive)
REMARK       I    between atoms: C_2  and  N_3 
REMARK       I    between atoms: C_2  and  N_12 
REMARK    1  A    between atoms: N_3  and  O_4 
REMARK    2  A    between atoms: O_4  and  C_5 
REMARK    3  A    between atoms: C_5  and  C_6 
REMARK    4  A    between atoms: C_13  and  N_12 
ROOT
ATOM      1  O   UNL d   1      26.982 -14.162   1.090  0.00  0.00    -0.245 OA
ATOM      2  C   UNL d   1      27.790 -15.038   1.404  0.00  0.00     0.340 C 
ATOM      3  N   UNL d   1      27.769 -16.319   0.875  0.00  0.00    -0.216 N 
ATOM      4  N   UNL d   1      28.760 -14.825   2.365  0.00  0.00    -0.333 N 
ATOM      5  H   UNL d   1      28.486 -17.020   0.993  0.00  0.00     0.199 HD
ATOM      6  H   UNL d   1      29.548 -15.453   2.319  0.00  0.00     0.165 HD
ENDROOT
BRANCH   3   7
ATOM      7  O   UNL d   1      26.694 -16.578  -0.033  0.00  0.00    -0.272 OA
BRANCH   7   8
ATOM      8  C   UNL d   1      26.048 -17.834   0.226  0.00  0.00     0.240 C 
BRANCH   8   9
ATOM      9  C   UNL d   1      24.591 -17.783  -0.205  0.00  0.00    -0.032 A 
ATOM     10  C   UNL d   1      23.958 -16.564  -0.497  0.00  0.00     0.009 A 
ATOM     11  C   UNL d   1      22.591 -16.523  -0.800  0.00  0.00     0.001 A 
ATOM     12  C   UNL d   1      21.855 -17.703  -0.894  0.00  0.00     0.000 A 
ATOM     13  C   UNL d   1      22.477 -18.923  -0.649  0.00  0.00     0.001 A 
ATOM     14  C   UNL d   1      23.832 -18.962  -0.298  0.00  0.00     0.009 A 
ENDBRANCH   8   9
ENDBRANCH   7   8
ENDBRANCH   3   7
BRANCH   4  15
ATOM     15  C   UNL d   1      29.075 -13.492   2.922  0.00  0.00     0.120 A 
ATOM     16  C   UNL d   1      28.162 -12.275   2.555  0.00  0.00     0.035 A 
ATOM     17  C   UNL d   1      27.565 -11.656   3.830  0.00  0.00     0.041 A 
ATOM     18  C   UNL d   1      28.123 -12.506   4.915  0.00  0.00    -0.048 A 
ATOM     19  C   UNL d   1      27.896 -12.322   6.273  0.00  0.00     0.031 A 
ATOM     20  C   UNL d   1      28.987 -13.494   4.435  0.00  0.00    -0.029 A 
ATOM     21  C   UNL d   1      28.617 -13.101   7.170  0.00  0.00     0.034 A 
ATOM     22 CL   UNL d   1      28.530 -12.752   8.853  0.00  0.00    -0.084 Cl
ATOM     23  C   UNL d   1      29.473 -14.109   6.709  0.00  0.00     0.024 A 
ATOM     24  C   UNL d   1      29.666 -14.308   5.335  0.00  0.00     0.011 A 
ENDBRANCH   4  15
TORSDOF 4
ENDMDL
MODEL 3
REMARK VINA RESULT:    -7.506      4.530      8.666
REMARK INTER + INTRA:          -9.211
REMARK INTER:                  -8.699
REMARK INTRA:                  -0.512
REMARK CONF_INDEPENDENT:        1.193
REMARK UNBOUND:                -0.512
REMARK  4 active torsions:
REMARK  status: ('A' for Active; 'I' for Inactive)
REMARK       I    between atoms: C_2  and  N_3 
REMARK       I    between atoms: C_2  and  N_12 
REMARK    1  A    between atoms: N_3  and  O_4 
REMARK    2  A    between atoms: O_4  and  C_5 
REMARK    3  A    between atoms: C_5  and  C_6 
REMARK    4  A    between atoms: C_13  and  N_12 
ROOT
ATOM      1  O   UNL d   1      29.383 -16.712  -2.148  0.00  0.00    -0.245 OA
ATOM      2  C   UNL d   1      29.373 -17.443  -1.156  0.00  0.00     0.340 C 
ATOM      3  N   UNL d   1      30.391 -18.336  -0.857  0.00  0.00    -0.216 N 
ATOM      4  N   UNL d   1      28.302 -17.473  -0.283  0.00  0.00    -0.333 N 
ATOM      5  H   UNL d   1      30.494 -18.848   0.007  0.00  0.00     0.199 HD
ATOM      6  H   UNL d   1      28.513 -17.836   0.635  0.00  0.00     0.165 HD
ENDROOT
BRANCH   3   7
ATOM      7  O   UNL d   1      31.446 -18.392  -1.821  0.00  0.00    -0.272 OA
BRANCH   7   8
ATOM      8  C   UNL d   1      31.508 -19.658  -2.494  0.00  0.00     0.240 C 
BRANCH   8   9
ATOM      9  C   UNL d   1      31.157 -19.499  -3.965  0.00  0.00    -0.032 A 
ATOM     10  C   UNL d   1      30.980 -20.615  -4.798  0.00  0.00     0.009 A 
ATOM     11  C   UNL d   1      30.751 -20.454  -6.171  0.00  0.00     0.001 A 
ATOM     12  C   UNL d   1      30.617 -19.179  -6.717  0.00  0.00     0.000 A 
ATOM     13  C   UNL d   1      30.748 -18.062  -5.896  0.00  0.00     0.001 A 
ATOM     14  C   UNL d   1      31.025 -18.221  -4.533  0.00  0.00     0.009 A 
ENDBRANCH   8   9
ENDBRANCH   7   8
ENDBRANCH   3   7
BRANCH   4  15
ATOM     15  C   UNL d   1      27.202 -16.486  -0.311  0.00  0.00     0.120 A 
ATOM     16  C   UNL d   1      27.087 -15.503  -1.522  0.00  0.00     0.035 A 
ATOM     17  C   UNL d   1      25.727 -15.674  -2.218  0.00  0.00     0.041 A 
ATOM     18  C   UNL d   1      25.068 -16.743  -1.422  0.00  0.00    -0.048 A 
ATOM     19  C   UNL d   1      23.788 -17.233  -1.645  0.00  0.00     0.031 A 
ATOM     20  C   UNL d   1      25.850 -17.171  -0.345  0.00  0.00    -0.029 A 
ATOM     21  C   UNL d   1      23.255 -18.118  -0.716  0.00  0.00     0.034 A 
ATOM     22 CL   UNL d   1      21.599 -18.574  -0.836  0.00  0.00    -0.084 Cl
ATOM     23  C   UNL d   1      24.028 -18.575   0.359  0.00  0.00     0.024 A 
ATOM     24  C   UNL d   1      25.332 -18.098   0.552  0.00  0.00     0.011 A 
ENDBRANCH   4  15
TORSDOF 4
ENDMDL
MODEL 4
REMARK VINA RESULT:    -7.396      2.240      3.206
REMARK INTER + INTRA:          -9.051
REMARK INTER:                  -8.589
REMARK INTRA:                  -0.461
REMARK CONF_INDEPENDENT:        1.193
REMARK UNBOUND:                -0.461
REMARK  4 active torsions:
REMARK  status: ('A' for Active; 'I' for Inactive)
REMARK       I    between atoms: C_2  and  N_3 
REMARK       I    between atoms: C_2  and  N_12 
REMARK    1  A    between atoms: N_3  and  O_4 
REMARK    2  A    between atoms: O_4  and  C_5 
REMARK    3  A    between atoms: C_5  and  C_6 
REMARK    4  A    between atoms: C_13  and  N_12 
ROOT
ATOM      1  O   UNL d   1      24.189 -16.396  -0.423  0.00  0.00    -0.245 OA
ATOM      2  C   UNL d   1      24.169 -17.142  -1.404  0.00  0.00     0.340 C 
ATOM      3  N   UNL d   1      23.228 -18.145  -1.580  0.00  0.00    -0.216 N 
ATOM      4  N   UNL d   1      25.134 -17.073  -2.392  0.00  0.00    -0.333 N 
ATOM      5  H   UNL d   1      23.086 -18.682  -2.424  0.00  0.00     0.199 HD
ATOM      6  H   UNL d   1      24.863 -17.474  -3.277  0.00  0.00     0.165 HD
ENDROOT
BRANCH   3   7
ATOM      7  O   UNL d   1      22.298 -18.294  -0.504  0.00  0.00    -0.272 OA
BRANCH   7   8
ATOM      8  C   UNL d   1      20.976 -18.617  -0.962  0.00  0.00     0.240 C 
BRANCH   8   9
ATOM      9  C   UNL d   1      20.223 -19.406   0.096  0.00  0.00    -0.032 A 
ATOM     10  C   UNL d   1      19.104 -20.188  -0.234  0.00  0.00     0.009 A 
ATOM     11  C   UNL d   1      18.362 -20.833   0.763  0.00  0.00     0.001 A 
ATOM     12  C   UNL d   1      18.771 -20.773   2.094  0.00  0.00     0.000 A 
ATOM     13  C   UNL d   1      19.902 -20.036   2.434  0.00  0.00     0.001 A 
ATOM     14  C   UNL d   1      20.617 -19.351   1.444  0.00  0.00     0.009 A 
ENDBRANCH   8   9
ENDBRANCH   7   8
ENDBRANCH   3   7
BRANCH   4  15
ATOM     15  C   UNL d   1      26.116 -15.973  -2.495  0.00  0.00     0.120 A 
ATOM     16  C   UNL d   1      25.651 -14.582  -3.040  0.00  0.00     0.035 A 
ATOM     17  C   UNL d   1      25.908 -13.489  -1.990  0.00  0.00     0.041 A 
ATOM     18  C   UNL d   1      26.508 -14.238  -0.856  0.00  0.00    -0.048 A 
ATOM     19  C   UNL d   1      26.947 -13.673   0.335  0.00  0.00     0.031 A 
ATOM     20  C   UNL d   1      26.667 -15.600  -1.134  0.00  0.00    -0.029 A 
ATOM     21  C   UNL d   1      27.632 -14.484   1.232  0.00  0.00     0.034 A 
ATOM     22 CL   UNL d   1      28.382 -13.775   2.609  0.00  0.00    -0.084 Cl
ATOM     23  C   UNL d   1      27.784 -15.853   0.981  0.00  0.00     0.024 A 
ATOM     24  C   UNL d   1      27.305 -16.418  -0.209  0.00  0.00     0.011 A 
ENDBRANCH   4  15
TORSDOF 4
ENDMDL
MODEL 5
REMARK VINA RESULT:    -7.235      4.903      8.122
REMARK INTER + INTRA:          -9.024
REMARK INTER:                  -8.428
REMARK INTRA:                  -0.595
REMARK CONF_INDEPENDENT:        1.193
REMARK UNBOUND:                -0.595
REMARK  4 active torsions:
REMARK  status: ('A' for Active; 'I' for Inactive)
REMARK       I    between atoms: C_2  and  N_3 
REMARK       I    between atoms: C_2  and  N_12 
REMARK    1  A    between atoms: N_3  and  O_4 
REMARK    2  A    between atoms: O_4  and  C_5 
REMARK    3  A    between atoms: C_5  and  C_6 
REMARK    4  A    between atoms: C_13  and  N_12 
ROOT
ATOM      1  O   UNL d   1      26.892 -14.606   1.012  0.00  0.00    -0.245 OA
ATOM      2  C   UNL d   1      27.926 -15.199   1.323  0.00  0.00     0.340 C 
ATOM      3  N   UNL d   1      28.764 -14.785   2.348  0.00  0.00    -0.216 N 
ATOM      4  N   UNL d   1      28.369 -16.306   0.625  0.00  0.00    -0.333 N 
ATOM      5  H   UNL d   1      29.538 -15.310   2.728  0.00  0.00     0.199 HD
ATOM      6  H   UNL d   1      29.013 -16.897   1.131  0.00  0.00     0.165 HD
ENDROOT
BRANCH   3   7
ATOM      7  O   UNL d   1      28.369 -13.572   2.996  0.00  0.00    -0.272 OA
BRANCH   7   8
ATOM      8  C   UNL d   1      27.397 -13.794   4.029  0.00  0.00     0.240 C 
BRANCH   8   9
ATOM      9  C   UNL d   1      27.976 -13.445   5.390  0.00  0.00    -0.032 A 
ATOM     10  C   UNL d   1      27.822 -12.163   5.942  0.00  0.00     0.009 A 
ATOM     11  C   UNL d   1      28.441 -11.827   7.153  0.00  0.00     0.001 A 
ATOM     12  C   UNL d   1      29.155 -12.786   7.869  0.00  0.00     0.000 A 
ATOM     13  C   UNL d   1      29.283 -14.073   7.355  0.00  0.00     0.001 A 
ATOM     14  C   UNL d   1      28.705 -14.398   6.122  0.00  0.00     0.009 A 
ENDBRANCH   8   9
ENDBRANCH   7   8
ENDBRANCH   3   7
BRANCH   4  15
ATOM     15  C   UNL d   1      27.549 -17.018  -0.378  0.00  0.00     0.120 A 
ATOM     16  C   UNL d   1      26.318 -17.858   0.099  0.00  0.00     0.035 A 
ATOM     17  C   UNL d   1      25.032 -17.336  -0.562  0.00  0.00     0.041 A 
ATOM     18  C   UNL d   1      25.513 -16.210  -1.404  0.00  0.00    -0.048 A 
ATOM     19  C   UNL d   1      24.715 -15.430  -2.231  0.00  0.00     0.031 A 
ATOM     20  C   UNL d   1      26.901 -16.048  -1.345  0.00  0.00    -0.029 A 
ATOM     21  C   UNL d   1      25.340 -14.520  -3.076  0.00  0.00     0.034 A 
ATOM     22 CL   UNL d   1      24.409 -13.699  -4.269  0.00  0.00    -0.084 Cl
ATOM     23  C   UNL d   1      26.726 -14.329  -3.019  0.00  0.00     0.024 A 
ATOM     24  C   UNL d   1      27.516 -15.098  -2.153  0.00  0.00     0.011 A 
ENDBRANCH   4  15
TORSDOF 4
ENDMDL
MODEL 6
REMARK VINA RESULT:    -7.166      4.891      9.082
REMARK INTER + INTRA:          -8.868
REMARK INTER:                  -8.359
REMARK INTRA:                  -0.509
REMARK CONF_INDEPENDENT:        1.193
REMARK UNBOUND:                -0.509
REMARK  4 active torsions:
REMARK  status: ('A' for Active; 'I' for Inactive)
REMARK       I    between atoms: C_2  and  N_3 
REMARK       I    between atoms: C_2  and  N_12 
REMARK    1  A    between atoms: N_3  and  O_4 
REMARK    2  A    between atoms: O_4  and  C_5 
REMARK    3  A    between atoms: C_5  and  C_6 
REMARK    4  A    between atoms: C_13  and  N_12 
ROOT
ATOM      1  O   UNL d   1      27.103 -15.210  -5.295  0.00  0.00    -0.245 OA
ATOM      2  C   UNL d   1      28.155 -15.225  -4.653  0.00  0.00     0.340 C 
ATOM      3  N   UNL d   1      29.384 -15.539  -5.212  0.00  0.00    -0.216 N 
ATOM      4  N   UNL d   1      28.183 -14.983  -3.293  0.00  0.00    -0.333 N 
ATOM      5  H   UNL d   1      30.284 -15.428  -4.766  0.00  0.00     0.199 HD
ATOM      6  H   UNL d   1      29.081 -14.699  -2.931  0.00  0.00     0.165 HD
ENDROOT
BRANCH   3   7
ATOM      7  O   UNL d   1      29.342 -15.904  -6.595  0.00  0.00    -0.272 OA
BRANCH   7   8
ATOM      8  C   UNL d   1      30.621 -16.329  -7.089  0.00  0.00     0.240 C 
BRANCH   8   9
ATOM      9  C   UNL d   1      30.779 -17.833  -6.936  0.00  0.00    -0.032 A 
ATOM     10  C   UNL d   1      31.153 -18.642  -8.021  0.00  0.00     0.009 A 
ATOM     11  C   UNL d   1      31.203 -20.036  -7.890  0.00  0.00     0.001 A 
ATOM     12  C   UNL d   1      30.958 -20.636  -6.656  0.00  0.00     0.000 A 
ATOM     13  C   UNL d   1      30.627 -19.845  -5.560  0.00  0.00     0.001 A 
ATOM     14  C   UNL d   1      30.530 -18.456  -5.701  0.00  0.00     0.009 A 
ENDBRANCH   8   9
ENDBRANCH   7   8
ENDBRANCH   3   7
BRANCH   4  15
ATOM     15  C   UNL d   1      27.027 -14.457  -2.536  0.00  0.00     0.120 A 
ATOM     16  C   UNL d   1      25.876 -13.730  -3.307  0.00  0.00     0.035 A 
ATOM     17  C   UNL d   1      24.539 -14.451  -3.068  0.00  0.00     0.041 A 
ATOM     18  C   UNL d   1      24.915 -15.579  -2.175  0.00  0.00    -0.048 A 
ATOM     19  C   UNL d   1      24.030 -16.512  -1.649  0.00  0.00     0.031 A 
ATOM     20  C   UNL d   1      26.272 -15.572  -1.841  0.00  0.00    -0.029 A 
ATOM     21  C   UNL d   1      24.512 -17.409  -0.703  0.00  0.00     0.034 A 
ATOM     22 CL   UNL d   1      23.405 -18.429   0.134  0.00  0.00    -0.084 Cl
ATOM     23  C   UNL d   1      25.871 -17.431  -0.368  0.00  0.00     0.024 A 
ATOM     24  C   UNL d   1      26.760 -16.507  -0.935  0.00  0.00     0.011 A 
ENDBRANCH   4  15
TORSDOF 4
ENDMDL
MODEL 7
REMARK VINA RESULT:    -7.155      4.822      8.120
REMARK INTER + INTRA:          -8.965
REMARK INTER:                  -8.349
REMARK INTRA:                  -0.617
REMARK CONF_INDEPENDENT:        1.193
REMARK UNBOUND:                -0.617
REMARK  4 active torsions:
REMARK  status: ('A' for Active; 'I' for Inactive)
REMARK       I    between atoms: C_2  and  N_3 
REMARK       I    between atoms: C_2  and  N_12 
REMARK    1  A    between atoms: N_3  and  O_4 
REMARK    2  A    between atoms: O_4  and  C_5 
REMARK    3  A    between atoms: C_5  and  C_6 
REMARK    4  A    between atoms: C_13  and  N_12 
ROOT
ATOM      1  O   UNL d   1      27.588 -15.259   1.403  0.00  0.00    -0.245 OA
ATOM      2  C   UNL d   1      27.303 -14.429   0.538  0.00  0.00     0.340 C 
ATOM      3  N   UNL d   1      27.499 -13.065   0.695  0.00  0.00    -0.216 N 
ATOM      4  N   UNL d   1      26.701 -14.793  -0.652  0.00  0.00    -0.333 N 
ATOM      5  H   UNL d   1      27.415 -12.367  -0.030  0.00  0.00     0.199 HD
ATOM      6  H   UNL d   1      26.804 -14.126  -1.401  0.00  0.00     0.165 HD
ENDROOT
BRANCH   3   7
ATOM      7  O   UNL d   1      28.014 -12.674   1.971  0.00  0.00    -0.272 OA
BRANCH   7   8
ATOM      8  C   UNL d   1      27.049 -12.829   3.023  0.00  0.00     0.240 C 
BRANCH   8   9
ATOM      9  C   UNL d   1      27.727 -13.272   4.309  0.00  0.00    -0.032 A 
ATOM     10  C   UNL d   1      27.995 -14.627   4.563  0.00  0.00     0.009 A 
ATOM     11  C   UNL d   1      28.533 -15.031   5.792  0.00  0.00     0.001 A 
ATOM     12  C   UNL d   1      28.884 -14.084   6.752  0.00  0.00     0.000 A 
ATOM     13  C   UNL d   1      28.663 -12.733   6.499  0.00  0.00     0.001 A 
ATOM     14  C   UNL d   1      28.081 -12.332   5.291  0.00  0.00     0.009 A 
ENDBRANCH   8   9
ENDBRANCH   7   8
ENDBRANCH   3   7
BRANCH   4  15
ATOM     15  C   UNL d   1      26.565 -16.195  -1.099  0.00  0.00     0.120 A 
ATOM     16  C   UNL d   1      27.467 -17.296  -0.447  0.00  0.00     0.035 A 
ATOM     17  C   UNL d   1      26.592 -18.380   0.205  0.00  0.00     0.041 A 
ATOM     18  C   UNL d   1      25.208 -17.909  -0.064  0.00  0.00    -0.048 A 
ATOM     19  C   UNL d   1      24.049 -18.579   0.307  0.00  0.00     0.031 A 
ATOM     20  C   UNL d   1      25.176 -16.731  -0.815  0.00  0.00    -0.029 A 
ATOM     21  C   UNL d   1      22.834 -18.090  -0.158  0.00  0.00     0.034 A 
ATOM     22 CL   UNL d   1      21.402 -19.013   0.092  0.00  0.00    -0.084 Cl
ATOM     23  C   UNL d   1      22.778 -16.901  -0.895  0.00  0.00     0.024 A 
ATOM     24  C   UNL d   1      23.954 -16.216  -1.232  0.00  0.00     0.011 A 
ENDBRANCH   4  15
TORSDOF 4
ENDMDL
MODEL 8
REMARK VINA RESULT:    -7.006      5.386      7.479
REMARK INTER + INTRA:          -8.737
REMARK INTER:                  -8.200
REMARK INTRA:                  -0.538
REMARK CONF_INDEPENDENT:        1.193
REMARK UNBOUND:                -0.538
REMARK  4 active torsions:
REMARK  status: ('A' for Active; 'I' for Inactive)
REMARK       I    between atoms: C_2  and  N_3 
REMARK       I    between atoms: C_2  and  N_12 
REMARK    1  A    between atoms: N_3  and  O_4 
REMARK    2  A    between atoms: O_4  and  C_5 
REMARK    3  A    between atoms: C_5  and  C_6 
REMARK    4  A    between atoms: C_13  and  N_12 
ROOT
ATOM      1  O   UNL d   1      26.916 -13.157  -4.101  0.00  0.00    -0.245 OA
ATOM      2  C   UNL d   1      25.821 -13.053  -4.657  0.00  0.00     0.340 C 
ATOM      3  N   UNL d   1      24.814 -13.999  -4.540  0.00  0.00    -0.216 N 
ATOM      4  N   UNL d   1      25.530 -11.998  -5.501  0.00  0.00    -0.333 N 
ATOM      5  H   UNL d   1      23.861 -13.891  -4.857  0.00  0.00     0.199 HD
ATOM      6  H   UNL d   1      24.545 -11.825  -5.640  0.00  0.00     0.165 HD
ENDROOT
BRANCH   3   7
ATOM      7  O   UNL d   1      25.155 -15.149  -3.762  0.00  0.00    -0.272 OA
BRANCH   7   8
ATOM      8  C   UNL d   1      25.261 -14.852  -2.361  0.00  0.00     0.240 C 
BRANCH   8   9
ATOM      9  C   UNL d   1      24.874 -16.063  -1.528  0.00  0.00    -0.032 A 
ATOM     10  C   UNL d   1      23.529 -16.372  -1.270  0.00  0.00     0.009 A 
ATOM     11  C   UNL d   1      23.189 -17.435  -0.422  0.00  0.00     0.001 A 
ATOM     12  C   UNL d   1      24.182 -18.251   0.115  0.00  0.00     0.000 A 
ATOM     13  C   UNL d   1      25.519 -17.983  -0.164  0.00  0.00     0.001 A 
ATOM     14  C   UNL d   1      25.862 -16.893  -0.972  0.00  0.00     0.009 A 
ENDBRANCH   8   9
ENDBRANCH   7   8
ENDBRANCH   3   7
BRANCH   4  15
ATOM     15  C   UNL d   1      26.382 -10.797  -5.626  0.00  0.00     0.120 A 
ATOM     16  C   UNL d   1      26.248  -9.893  -6.897  0.00  0.00     0.035 A 
ATOM     17  C   UNL d   1      25.867  -8.460  -6.491  0.00  0.00     0.041 A 
ATOM     18  C   UNL d   1      25.780  -8.537  -5.009  0.00  0.00    -0.048 A 
ATOM     19  C   UNL d   1      25.491  -7.470  -4.168  0.00  0.00     0.031 A 
ATOM     20  C   UNL d   1      26.100  -9.805  -4.516  0.00  0.00    -0.029 A 
ATOM     21  C   UNL d   1      25.605  -7.667  -2.797  0.00  0.00     0.034 A 
ATOM     22 CL   UNL d   1      25.473  -6.318  -1.735  0.00  0.00    -0.084 Cl
ATOM     23  C   UNL d   1      25.905  -8.934  -2.282  0.00  0.00     0.024 A 
ATOM     24  C   UNL d   1      26.160 -10.011  -3.142  0.00  0.00     0.011 A 
ENDBRANCH   4  15
TORSDOF 4
ENDMDL
MODEL 9
REMARK VINA RESULT:    -6.742      4.792      7.660
REMARK INTER + INTRA:          -8.706
REMARK INTER:                  -7.935
REMARK INTRA:                  -0.771
REMARK CONF_INDEPENDENT:        1.193
REMARK UNBOUND:                -0.771
REMARK  4 active torsions:
REMARK  status: ('A' for Active; 'I' for Inactive)
REMARK       I    between atoms: C_2  and  N_3 
REMARK       I    between atoms: C_2  and  N_12 
REMARK    1  A    between atoms: N_3  and  O_4 
REMARK    2  A    between atoms: O_4  and  C_5 
REMARK    3  A    between atoms: C_5  and  C_6 
REMARK    4  A    between atoms: C_13  and  N_12 
ROOT
ATOM      1  O   UNL d   1      28.357 -14.856  -0.042  0.00  0.00    -0.245 OA
ATOM      2  C   UNL d   1      29.104 -15.779   0.285  0.00  0.00     0.340 C 
ATOM      3  N   UNL d   1      30.285 -15.592   0.987  0.00  0.00    -0.216 N 
ATOM      4  N   UNL d   1      28.849 -17.088  -0.080  0.00  0.00    -0.333 N 
ATOM      5  H   UNL d   1      30.853 -16.321   1.396  0.00  0.00     0.199 HD
ATOM      6  H   UNL d   1      29.310 -17.784   0.487  0.00  0.00     0.165 HD
ENDROOT
BRANCH   3   7
ATOM      7  O   UNL d   1      30.612 -14.227   1.264  0.00  0.00    -0.272 OA
BRANCH   7   8
ATOM      8  C   UNL d   1      30.965 -14.016   2.639  0.00  0.00     0.240 C 
BRANCH   8   9
ATOM      9  C   UNL d   1      29.732 -14.090   3.524  0.00  0.00    -0.032 A 
ATOM     10  C   UNL d   1      29.781 -14.680   4.798  0.00  0.00     0.009 A 
ATOM     11  C   UNL d   1      28.617 -14.827   5.563  0.00  0.00     0.001 A 
ATOM     12  C   UNL d   1      27.404 -14.317   5.105  0.00  0.00     0.000 A 
ATOM     13  C   UNL d   1      27.346 -13.692   3.862  0.00  0.00     0.001 A 
ATOM     14  C   UNL d   1      28.498 -13.588   3.075  0.00  0.00     0.009 A 
ENDBRANCH   8   9
ENDBRANCH   7   8
ENDBRANCH   3   7
BRANCH   4  15
ATOM     15  C   UNL d   1      27.568 -17.533  -0.668  0.00  0.00     0.120 A 
ATOM     16  C   UNL d   1      26.340 -17.780   0.270  0.00  0.00     0.035 A 
ATOM     17  C   UNL d   1      25.166 -16.879  -0.145  0.00  0.00     0.041 A 
ATOM     18  C   UNL d   1      25.709 -16.120  -1.302  0.00  0.00    -0.048 A 
ATOM     19  C   UNL d   1      25.003 -15.187  -2.051  0.00  0.00     0.031 A 
ATOM     20  C   UNL d   1      27.016 -16.498  -1.628  0.00  0.00    -0.029 A 
ATOM     21  C   UNL d   1      25.600 -14.683  -3.200  0.00  0.00     0.034 A 
ATOM     22 CL   UNL d   1      24.676 -13.700  -4.270  0.00  0.00    -0.084 Cl
ATOM     23  C   UNL d   1      26.914 -15.033  -3.533  0.00  0.00     0.024 A 
ATOM     24  C   UNL d   1      27.628 -15.949  -2.749  0.00  0.00     0.011 A 
ENDBRANCH   4  15
TORSDOF 4
ENDMDL
