MODEL 1
REMARK VINA RESULT:   -10.398      0.000      0.000
REMARK INTER + INTRA:         -15.731
REMARK INTER:                 -13.082
REMARK INTRA:                  -2.648
REMARK CONF_INDEPENDENT:        2.685
REMARK UNBOUND:                -2.648
REMARK  9 active torsions:
REMARK  status: ('A' for Active; 'I' for Inactive)
REMARK    1  A    between atoms: C_2  and  C_3 
REMARK       I    between atoms: C_2  and  N_30 
REMARK    2  A    between atoms: C_3  and  S_4 
REMARK    3  A    between atoms: C_5  and  S_4 
REMARK    4  A    between atoms: N_15  and  N_16 
REMARK       I    between atoms: N_16  and  C_17 
REMARK    5  A    between atoms: C_17  and  C_19 
REMARK    6  A    between atoms: C_19  and  C_20 
REMARK    7  A    between atoms: C_20  and  C_21 
REMARK    8  A    between atoms: N_30  and  C_31 
REMARK    9  A    between atoms: C_32  and  C_31 
ROOT
ATOM      1  C   UNL d   1      26.730 -15.896  -1.388  0.00  0.00     0.274 C 
ATOM      2  N   UNL d   1      27.966 -16.273  -2.046  0.00  0.00    -0.358 N 
ATOM      3  C   UNL d   1      28.245 -15.752  -3.300  0.00  0.00     0.046 A 
ATOM      4  C   UNL d   1      29.537 -15.707  -3.824  0.00  0.00     0.030 A 
ATOM      5  C   UNL d   1      29.767 -15.218  -5.123  0.00  0.00     0.002 A 
ATOM      6  C   UNL d   1      28.711 -14.791  -5.924  0.00  0.00     0.001 A 
ATOM      7  C   UNL d   1      27.428 -14.809  -5.409  0.00  0.00     0.019 A 
ATOM      8  C   UNL d   1      27.216 -15.263  -4.104  0.00  0.00     0.060 A 
ATOM      9  C   UNL d   1      25.855 -15.232  -3.572  0.00  0.00     0.277 C 
ATOM     10  O   UNL d   1      25.021 -14.582  -4.208  0.00  0.00    -0.266 OA
ATOM     11  N   UNL d   1      25.648 -15.887  -2.362  0.00  0.00    -0.221 N 
ATOM     12  H   UNL d   1      28.714 -16.655  -1.483  0.00  0.00     0.162 HD
ENDROOT
BRANCH  11  13
ATOM     13  N   UNL d   1      24.309 -16.153  -1.873  0.00  0.00    -0.262 N 
ATOM     14  C   UNL d   1      24.142 -16.925  -0.727  0.00  0.00     0.236 C 
ATOM     15  O   UNL d   1      25.018 -17.504  -0.094  0.00  0.00    -0.272 OA
ATOM     16  H   UNL d   1      23.615 -15.443  -2.093  0.00  0.00     0.190 HD
BRANCH  14  17
ATOM     17  C   UNL d   1      22.739 -17.012  -0.195  0.00  0.00     0.109 C 
BRANCH  17  18
ATOM     18  C   UNL d   1      22.522 -18.475   0.243  0.00  0.00     0.046 C 
BRANCH  18  19
ATOM     19  C   UNL d   1      21.210 -19.045  -0.146  0.00  0.00    -0.050 A 
ATOM     20  C   UNL d   1      20.325 -19.611   0.678  0.00  0.00    -0.006 A 
ATOM     21  C   UNL d   1      20.284 -19.855   2.080  0.00  0.00     0.014 A 
ATOM     22  C   UNL d   1      19.212 -20.005  -0.204  0.00  0.00     0.038 A 
ATOM     23  C   UNL d   1      19.204 -20.471   2.585  0.00  0.00     0.001 A 
ATOM     24  C   UNL d   1      18.095 -20.885   1.736  0.00  0.00     0.002 A 
ATOM     25  C   UNL d   1      18.059 -20.683   0.404  0.00  0.00     0.030 A 
ATOM     26  N   UNL d   1      19.424 -19.691  -1.425  0.00  0.00    -0.385 N 
ATOM     27  C   UNL d   1      20.725 -19.024  -1.557  0.00  0.00     0.155 A 
ATOM     28  H   UNL d   1      18.776 -19.890  -2.182  0.00  0.00     0.160 HD
ENDBRANCH  18  19
ENDBRANCH  17  18
ENDBRANCH  14  17
ENDBRANCH  11  13
BRANCH   1  29
ATOM     29  S   UNL d   1      26.978 -14.378  -0.408  0.00  0.00    -0.112 SA
BRANCH  29  30
ATOM     30  C   UNL d   1      28.775 -14.031  -0.537  0.00  0.00     0.180 C 
BRANCH  30  31
ATOM     31  C   UNL d   1      29.594 -14.915   0.420  0.00  0.00     0.227 C 
ATOM     32  O   UNL d   1      30.245 -15.898   0.072  0.00  0.00    -0.273 OA
ATOM     33  N   UNL d   1      29.586 -14.586   1.754  0.00  0.00    -0.358 N 
ATOM     34  H   UNL d   1      30.113 -15.223   2.347  0.00  0.00     0.162 HD
BRANCH  33  35
ATOM     35  C   UNL d   1      28.860 -13.497   2.384  0.00  0.00     0.154 C 
BRANCH  35  36
ATOM     36  C   UNL d   1      29.189 -13.314   3.878  0.00  0.00     0.139 C 
ATOM     37  C   UNL d   1      27.954 -12.901   4.668  0.00  0.00     0.035 C 
ATOM     38  C   UNL d   1      27.395 -14.220   5.144  0.00  0.00     0.029 C 
ATOM     39  C   UNL d   1      28.639 -15.053   5.353  0.00  0.00     0.168 C 
ATOM     40  O   UNL d   1      29.627 -14.570   4.436  0.00  0.00    -0.384 OA
ENDBRANCH  35  36
ENDBRANCH  33  35
ENDBRANCH  30  31
ENDBRANCH  29  30
ENDBRANCH   1  29
TORSDOF 9
ENDMDL
MODEL 2
REMARK VINA RESULT:    -9.635      1.850      2.226
REMARK INTER + INTRA:         -14.310
REMARK INTER:                 -12.319
REMARK INTRA:                  -1.990
REMARK CONF_INDEPENDENT:        2.685
REMARK UNBOUND:                -1.990
REMARK  9 active torsions:
REMARK  status: ('A' for Active; 'I' for Inactive)
REMARK    1  A    between atoms: C_2  and  C_3 
REMARK       I    between atoms: C_2  and  N_30 
REMARK    2  A    between atoms: C_3  and  S_4 
REMARK    3  A    between atoms: C_5  and  S_4 
REMARK    4  A    between atoms: N_15  and  N_16 
REMARK       I    between atoms: N_16  and  C_17 
REMARK    5  A    between atoms: C_17  and  C_19 
REMARK    6  A    between atoms: C_19  and  C_20 
REMARK    7  A    between atoms: C_20  and  C_21 
REMARK    8  A    between atoms: N_30  and  C_31 
REMARK    9  A    between atoms: C_32  and  C_31 
ROOT
ATOM      1  C   UNL d   1      27.284 -15.405  -0.784  0.00  0.00     0.274 C 
ATOM      2  N   UNL d   1      28.287 -14.662  -1.521  0.00  0.00    -0.358 N 
ATOM      3  C   UNL d   1      27.911 -13.983  -2.669  0.00  0.00     0.046 A 
ATOM      4  C   UNL d   1      28.662 -12.936  -3.203  0.00  0.00     0.030 A 
ATOM      5  C   UNL d   1      28.271 -12.310  -4.401  0.00  0.00     0.002 A 
ATOM      6  C   UNL d   1      27.141 -12.736  -5.094  0.00  0.00     0.001 A 
ATOM      7  C   UNL d   1      26.375 -13.758  -4.566  0.00  0.00     0.019 A 
ATOM      8  C   UNL d   1      26.753 -14.349  -3.356  0.00  0.00     0.060 A 
ATOM      9  C   UNL d   1      25.901 -15.399  -2.801  0.00  0.00     0.277 C 
ATOM     10  O   UNL d   1      24.780 -15.530  -3.297  0.00  0.00    -0.266 OA
ATOM     11  N   UNL d   1      26.418 -16.107  -1.720  0.00  0.00    -0.221 N 
ATOM     12  H   UNL d   1      29.145 -14.413  -1.048  0.00  0.00     0.162 HD
ENDROOT
BRANCH  11  13
ATOM     13  N   UNL d   1      25.793 -17.332  -1.260  0.00  0.00    -0.262 N 
ATOM     14  C   UNL d   1      24.599 -17.261  -0.547  0.00  0.00     0.236 C 
ATOM     15  O   UNL d   1      24.024 -16.246  -0.171  0.00  0.00    -0.272 OA
ATOM     16  H   UNL d   1      25.981 -18.158  -1.823  0.00  0.00     0.190 HD
BRANCH  14  17
ATOM     17  C   UNL d   1      23.933 -18.576  -0.254  0.00  0.00     0.109 C 
BRANCH  17  18
ATOM     18  C   UNL d   1      22.637 -18.253   0.518  0.00  0.00     0.046 C 
BRANCH  18  19
ATOM     19  C   UNL d   1      21.423 -18.914  -0.016  0.00  0.00    -0.050 A 
ATOM     20  C   UNL d   1      20.478 -19.523   0.705  0.00  0.00    -0.006 A 
ATOM     21  C   UNL d   1      20.277 -19.745   2.097  0.00  0.00     0.014 A 
ATOM     22  C   UNL d   1      19.512 -20.004  -0.298  0.00  0.00     0.038 A 
ATOM     23  C   UNL d   1      19.183 -20.421   2.480  0.00  0.00     0.001 A 
ATOM     24  C   UNL d   1      18.217 -20.922   1.510  0.00  0.00     0.002 A 
ATOM     25  C   UNL d   1      18.336 -20.746   0.179  0.00  0.00     0.030 A 
ATOM     26  N   UNL d   1      19.856 -19.698  -1.491  0.00  0.00    -0.385 N 
ATOM     27  C   UNL d   1      21.118 -18.949  -1.477  0.00  0.00     0.155 A 
ATOM     28  H   UNL d   1      19.321 -19.953  -2.317  0.00  0.00     0.160 HD
ENDBRANCH  18  19
ENDBRANCH  17  18
ENDBRANCH  14  17
ENDBRANCH  11  13
BRANCH   1  29
ATOM     29  S   UNL d   1      26.476 -14.322   0.441  0.00  0.00    -0.112 SA
BRANCH  29  30
ATOM     30  C   UNL d   1      27.719 -14.125   1.777  0.00  0.00     0.180 C 
BRANCH  30  31
ATOM     31  C   UNL d   1      27.475 -12.846   2.597  0.00  0.00     0.227 C 
ATOM     32  O   UNL d   1      27.061 -11.788   2.126  0.00  0.00    -0.273 OA
ATOM     33  N   UNL d   1      27.749 -12.890   3.942  0.00  0.00    -0.358 N 
ATOM     34  H   UNL d   1      27.606 -12.009   4.429  0.00  0.00     0.162 HD
BRANCH  33  35
ATOM     35  C   UNL d   1      28.278 -14.016   4.692  0.00  0.00     0.154 C 
BRANCH  35  36
ATOM     36  C   UNL d   1      28.155 -13.856   6.219  0.00  0.00     0.139 C 
ATOM     37  C   UNL d   1      29.509 -14.008   6.901  0.00  0.00     0.035 C 
ATOM     38  C   UNL d   1      30.015 -12.589   6.980  0.00  0.00     0.029 C 
ATOM     39  C   UNL d   1      28.744 -11.791   7.167  0.00  0.00     0.168 C 
ATOM     40  O   UNL d   1      27.691 -12.527   6.532  0.00  0.00    -0.384 OA
ENDBRANCH  35  36
ENDBRANCH  33  35
ENDBRANCH  30  31
ENDBRANCH  29  30
ENDBRANCH   1  29
TORSDOF 9
ENDMDL
MODEL 3
REMARK VINA RESULT:    -9.250      2.503      5.339
REMARK INTER + INTRA:         -14.479
REMARK INTER:                 -11.934
REMARK INTRA:                  -2.545
REMARK CONF_INDEPENDENT:        2.685
REMARK UNBOUND:                -2.545
REMARK  9 active torsions:
REMARK  status: ('A' for Active; 'I' for Inactive)
REMARK    1  A    between atoms: C_2  and  C_3 
REMARK       I    between atoms: C_2  and  N_30 
REMARK    2  A    between atoms: C_3  and  S_4 
REMARK    3  A    between atoms: C_5  and  S_4 
REMARK    4  A    between atoms: N_15  and  N_16 
REMARK       I    between atoms: N_16  and  C_17 
REMARK    5  A    between atoms: C_17  and  C_19 
REMARK    6  A    between atoms: C_19  and  C_20 
REMARK    7  A    between atoms: C_20  and  C_21 
REMARK    8  A    between atoms: N_30  and  C_31 
REMARK    9  A    between atoms: C_32  and  C_31 
ROOT
ATOM      1  C   UNL d   1      25.519 -14.989  -1.910  0.00  0.00     0.274 C 
ATOM      2  N   UNL d   1      25.961 -13.650  -1.571  0.00  0.00    -0.358 N 
ATOM      3  C   UNL d   1      26.912 -13.489  -0.576  0.00  0.00     0.046 A 
ATOM      4  C   UNL d   1      27.691 -12.338  -0.460  0.00  0.00     0.030 A 
ATOM      5  C   UNL d   1      28.607 -12.195   0.598  0.00  0.00     0.002 A 
ATOM      6  C   UNL d   1      28.741 -13.186   1.568  0.00  0.00     0.001 A 
ATOM      7  C   UNL d   1      27.991 -14.342   1.453  0.00  0.00     0.019 A 
ATOM      8  C   UNL d   1      27.110 -14.489   0.378  0.00  0.00     0.060 A 
ATOM      9  C   UNL d   1      26.362 -15.739   0.259  0.00  0.00     0.277 C 
ATOM     10  O   UNL d   1      26.730 -16.679   0.967  0.00  0.00    -0.266 OA
ATOM     11  N   UNL d   1      25.344 -15.763  -0.690  0.00  0.00    -0.221 N 
ATOM     12  H   UNL d   1      25.800 -12.908  -2.238  0.00  0.00     0.162 HD
ENDROOT
BRANCH  11  13
ATOM     13  N   UNL d   1      24.370 -16.837  -0.715  0.00  0.00    -0.262 N 
ATOM     14  C   UNL d   1      24.796 -18.148  -0.528  0.00  0.00     0.236 C 
ATOM     15  O   UNL d   1      25.952 -18.540  -0.421  0.00  0.00    -0.272 OA
ATOM     16  H   UNL d   1      23.428 -16.580  -0.427  0.00  0.00     0.190 HD
BRANCH  14  17
ATOM     17  C   UNL d   1      23.708 -19.178  -0.401  0.00  0.00     0.109 C 
BRANCH  17  18
ATOM     18  C   UNL d   1      22.496 -18.464   0.233  0.00  0.00     0.046 C 
BRANCH  18  19
ATOM     19  C   UNL d   1      21.181 -19.040  -0.137  0.00  0.00    -0.050 A 
ATOM     20  C   UNL d   1      20.306 -19.602   0.700  0.00  0.00    -0.006 A 
ATOM     21  C   UNL d   1      20.282 -19.837   2.105  0.00  0.00     0.014 A 
ATOM     22  C   UNL d   1      19.185 -20.005  -0.166  0.00  0.00     0.038 A 
ATOM     23  C   UNL d   1      19.209 -20.451   2.626  0.00  0.00     0.001 A 
ATOM     24  C   UNL d   1      18.092 -20.874   1.792  0.00  0.00     0.002 A 
ATOM     25  C   UNL d   1      18.040 -20.682   0.459  0.00  0.00     0.030 A 
ATOM     26  N   UNL d   1      19.383 -19.700  -1.392  0.00  0.00    -0.385 N 
ATOM     27  C   UNL d   1      20.680 -19.030  -1.543  0.00  0.00     0.155 A 
ATOM     28  H   UNL d   1      18.727 -19.906  -2.141  0.00  0.00     0.160 HD
ENDBRANCH  18  19
ENDBRANCH  17  18
ENDBRANCH  14  17
ENDBRANCH  11  13
BRANCH   1  29
ATOM     29  S   UNL d   1      26.598 -15.700  -3.196  0.00  0.00    -0.112 SA
BRANCH  29  30
ATOM     30  C   UNL d   1      26.878 -14.324  -4.379  0.00  0.00     0.180 C 
BRANCH  30  31
ATOM     31  C   UNL d   1      25.568 -13.592  -4.718  0.00  0.00     0.227 C 
ATOM     32  O   UNL d   1      24.446 -14.071  -4.569  0.00  0.00    -0.273 OA
ATOM     33  N   UNL d   1      25.664 -12.322  -5.233  0.00  0.00    -0.358 N 
ATOM     34  H   UNL d   1      24.772 -11.897  -5.474  0.00  0.00     0.162 HD
BRANCH  33  35
ATOM     35  C   UNL d   1      26.881 -11.584  -5.525  0.00  0.00     0.154 C 
BRANCH  35  36
ATOM     36  C   UNL d   1      27.394 -10.742  -4.341  0.00  0.00     0.139 C 
ATOM     37  C   UNL d   1      27.172  -9.255  -4.586  0.00  0.00     0.035 C 
ATOM     38  C   UNL d   1      25.831  -8.998  -3.945  0.00  0.00     0.029 C 
ATOM     39  C   UNL d   1      25.829  -9.959  -2.778  0.00  0.00     0.168 C 
ATOM     40  O   UNL d   1      26.650 -11.072  -3.151  0.00  0.00    -0.384 OA
ENDBRANCH  35  36
ENDBRANCH  33  35
ENDBRANCH  30  31
ENDBRANCH  29  30
ENDBRANCH   1  29
TORSDOF 9
ENDMDL
MODEL 4
REMARK VINA RESULT:    -9.143      1.902      8.335
REMARK INTER + INTRA:         -14.509
REMARK INTER:                 -11.828
REMARK INTRA:                  -2.682
REMARK CONF_INDEPENDENT:        2.685
REMARK UNBOUND:                -2.682
REMARK  9 active torsions:
REMARK  status: ('A' for Active; 'I' for Inactive)
REMARK    1  A    between atoms: C_2  and  C_3 
REMARK       I    between atoms: C_2  and  N_30 
REMARK    2  A    between atoms: C_3  and  S_4 
REMARK    3  A    between atoms: C_5  and  S_4 
REMARK    4  A    between atoms: N_15  and  N_16 
REMARK       I    between atoms: N_16  and  C_17 
REMARK    5  A    between atoms: C_17  and  C_19 
REMARK    6  A    between atoms: C_19  and  C_20 
REMARK    7  A    between atoms: C_20  and  C_21 
REMARK    8  A    between atoms: N_30  and  C_31 
REMARK    9  A    between atoms: C_32  and  C_31 
ROOT
ATOM      1  C   UNL d   1      27.411 -16.155  -0.445  0.00  0.00     0.274 C 
ATOM      2  N   UNL d   1      26.602 -15.349  -1.338  0.00  0.00    -0.358 N 
ATOM      3  C   UNL d   1      26.929 -15.303  -2.684  0.00  0.00     0.046 A 
ATOM      4  C   UNL d   1      26.017 -14.921  -3.667  0.00  0.00     0.030 A 
ATOM      5  C   UNL d   1      26.408 -14.837  -5.016  0.00  0.00     0.002 A 
ATOM      6  C   UNL d   1      27.719 -15.109  -5.398  0.00  0.00     0.001 A 
ATOM      7  C   UNL d   1      28.628 -15.511  -4.438  0.00  0.00     0.019 A 
ATOM      8  C   UNL d   1      28.219 -15.626  -3.106  0.00  0.00     0.060 A 
ATOM      9  C   UNL d   1      29.192 -16.092  -2.119  0.00  0.00     0.277 C 
ATOM     10  O   UNL d   1      30.233 -16.590  -2.553  0.00  0.00    -0.266 OA
ATOM     11  N   UNL d   1      28.817 -15.986  -0.783  0.00  0.00    -0.221 N 
ATOM     12  H   UNL d   1      25.674 -15.082  -1.037  0.00  0.00     0.162 HD
ENDROOT
BRANCH  11  13
ATOM     13  N   UNL d   1      29.784 -16.162   0.282  0.00  0.00    -0.262 N 
ATOM     14  C   UNL d   1      31.029 -15.547   0.182  0.00  0.00     0.236 C 
ATOM     15  O   UNL d   1      31.462 -14.912  -0.773  0.00  0.00    -0.272 OA
ATOM     16  H   UNL d   1      29.392 -16.331   1.206  0.00  0.00     0.190 HD
BRANCH  14  17
ATOM     17  C   UNL d   1      31.906 -15.641   1.399  0.00  0.00     0.109 C 
BRANCH  17  18
ATOM     18  C   UNL d   1      31.757 -14.304   2.155  0.00  0.00     0.046 C 
BRANCH  18  19
ATOM     19  C   UNL d   1      30.359 -13.839   2.312  0.00  0.00    -0.050 A 
ATOM     20  C   UNL d   1      29.561 -14.085   3.354  0.00  0.00    -0.006 A 
ATOM     21  C   UNL d   1      29.715 -14.793   4.581  0.00  0.00     0.014 A 
ATOM     22  C   UNL d   1      28.299 -13.409   3.011  0.00  0.00     0.038 A 
ATOM     23  C   UNL d   1      28.670 -14.842   5.420  0.00  0.00     0.001 A 
ATOM     24  C   UNL d   1      27.404 -14.195   5.100  0.00  0.00     0.002 A 
ATOM     25  C   UNL d   1      27.184 -13.503   3.965  0.00  0.00     0.030 A 
ATOM     26  N   UNL d   1      28.356 -12.817   1.879  0.00  0.00    -0.385 N 
ATOM     27  C   UNL d   1      29.683 -12.999   1.280  0.00  0.00     0.155 A 
ATOM     28  H   UNL d   1      27.580 -12.304   1.467  0.00  0.00     0.160 HD
ENDBRANCH  18  19
ENDBRANCH  17  18
ENDBRANCH  14  17
ENDBRANCH  11  13
BRANCH   1  29
ATOM     29  S   UNL d   1      26.770 -17.861  -0.386  0.00  0.00    -0.112 SA
BRANCH  29  30
ATOM     30  C   UNL d   1      25.050 -17.690   0.231  0.00  0.00     0.180 C 
BRANCH  30  31
ATOM     31  C   UNL d   1      24.077 -17.308  -0.897  0.00  0.00     0.227 C 
ATOM     32  O   UNL d   1      24.386 -16.646  -1.887  0.00  0.00    -0.273 OA
ATOM     33  N   UNL d   1      22.774 -17.727  -0.783  0.00  0.00    -0.358 N 
ATOM     34  H   UNL d   1      22.165 -17.417  -1.537  0.00  0.00     0.162 HD
BRANCH  33  35
ATOM     35  C   UNL d   1      22.188 -18.480   0.312  0.00  0.00     0.154 C 
BRANCH  35  36
ATOM     36  C   UNL d   1      21.366 -19.700  -0.144  0.00  0.00     0.139 C 
ATOM     37  C   UNL d   1      20.404 -20.155   0.946  0.00  0.00     0.035 C 
ATOM     38  C   UNL d   1      19.134 -19.410   0.615  0.00  0.00     0.029 C 
ATOM     39  C   UNL d   1      19.172 -19.338  -0.894  0.00  0.00     0.168 C 
ATOM     40  O   UNL d   1      20.552 -19.340  -1.279  0.00  0.00    -0.384 OA
ENDBRANCH  35  36
ENDBRANCH  33  35
ENDBRANCH  30  31
ENDBRANCH  29  30
ENDBRANCH   1  29
TORSDOF 9
ENDMDL
MODEL 5
REMARK VINA RESULT:    -8.804      3.382      8.830
REMARK INTER + INTRA:         -14.863
REMARK INTER:                 -11.488
REMARK INTRA:                  -3.374
REMARK CONF_INDEPENDENT:        2.685
REMARK UNBOUND:                -3.374
REMARK  9 active torsions:
REMARK  status: ('A' for Active; 'I' for Inactive)
REMARK    1  A    between atoms: C_2  and  C_3 
REMARK       I    between atoms: C_2  and  N_30 
REMARK    2  A    between atoms: C_3  and  S_4 
REMARK    3  A    between atoms: C_5  and  S_4 
REMARK    4  A    between atoms: N_15  and  N_16 
REMARK       I    between atoms: N_16  and  C_17 
REMARK    5  A    between atoms: C_17  and  C_19 
REMARK    6  A    between atoms: C_19  and  C_20 
REMARK    7  A    between atoms: C_20  and  C_21 
REMARK    8  A    between atoms: N_30  and  C_31 
REMARK    9  A    between atoms: C_32  and  C_31 
ROOT
ATOM      1  C   UNL d   1      26.996 -15.843  -0.875  0.00  0.00     0.274 C 
ATOM      2  N   UNL d   1      25.670 -15.759  -1.454  0.00  0.00    -0.358 N 
ATOM      3  C   UNL d   1      24.668 -16.580  -0.959  0.00  0.00     0.046 A 
ATOM      4  C   UNL d   1      23.313 -16.302  -1.137  0.00  0.00     0.030 A 
ATOM      5  C   UNL d   1      22.330 -17.190  -0.663  0.00  0.00     0.002 A 
ATOM      6  C   UNL d   1      22.686 -18.378  -0.028  0.00  0.00     0.001 A 
ATOM      7  C   UNL d   1      24.025 -18.655   0.176  0.00  0.00     0.019 A 
ATOM      8  C   UNL d   1      24.992 -17.747  -0.267  0.00  0.00     0.060 A 
ATOM      9  C   UNL d   1      26.398 -18.046  -0.001  0.00  0.00     0.277 C 
ATOM     10  O   UNL d   1      26.634 -18.947   0.808  0.00  0.00    -0.266 OA
ATOM     11  N   UNL d   1      27.334 -17.240  -0.641  0.00  0.00    -0.221 N 
ATOM     12  H   UNL d   1      25.427 -14.932  -1.982  0.00  0.00     0.162 HD
ENDROOT
BRANCH  11  13
ATOM     13  N   UNL d   1      28.738 -17.600  -0.669  0.00  0.00    -0.262 N 
ATOM     14  C   UNL d   1      29.562 -17.057  -1.651  0.00  0.00     0.236 C 
ATOM     15  O   UNL d   1      29.221 -16.343  -2.587  0.00  0.00    -0.272 OA
ATOM     16  H   UNL d   1      29.144 -17.850   0.230  0.00  0.00     0.190 HD
BRANCH  14  17
ATOM     17  C   UNL d   1      31.029 -17.348  -1.508  0.00  0.00     0.109 C 
BRANCH  17  18
ATOM     18  C   UNL d   1      31.638 -17.256  -2.924  0.00  0.00     0.046 C 
BRANCH  18  19
ATOM     19  C   UNL d   1      31.334 -18.412  -3.799  0.00  0.00    -0.050 A 
ATOM     20  C   UNL d   1      31.201 -18.378  -5.128  0.00  0.00    -0.006 A 
ATOM     21  C   UNL d   1      31.296 -17.352  -6.112  0.00  0.00     0.014 A 
ATOM     22  C   UNL d   1      30.903 -19.772  -5.497  0.00  0.00     0.038 A 
ATOM     23  C   UNL d   1      31.093 -17.685  -7.395  0.00  0.00     0.001 A 
ATOM     24  C   UNL d   1      30.781 -19.053  -7.789  0.00  0.00     0.002 A 
ATOM     25  C   UNL d   1      30.682 -20.076  -6.918  0.00  0.00     0.030 A 
ATOM     26  N   UNL d   1      30.873 -20.549  -4.482  0.00  0.00    -0.385 N 
ATOM     27  C   UNL d   1      31.155 -19.791  -3.257  0.00  0.00     0.155 A 
ATOM     28  H   UNL d   1      30.673 -21.544  -4.536  0.00  0.00     0.160 HD
ENDBRANCH  18  19
ENDBRANCH  17  18
ENDBRANCH  14  17
ENDBRANCH  11  13
BRANCH   1  29
ATOM     29  S   UNL d   1      27.135 -14.706   0.544  0.00  0.00    -0.112 SA
BRANCH  29  30
ATOM     30  C   UNL d   1      27.011 -13.029  -0.191  0.00  0.00     0.180 C 
BRANCH  30  31
ATOM     31  C   UNL d   1      27.951 -12.867  -1.398  0.00  0.00     0.227 C 
ATOM     32  O   UNL d   1      29.179 -12.868  -1.327  0.00  0.00    -0.273 OA
ATOM     33  N   UNL d   1      27.377 -12.698  -2.635  0.00  0.00    -0.358 N 
ATOM     34  H   UNL d   1      28.043 -12.559  -3.391  0.00  0.00     0.162 HD
BRANCH  33  35
ATOM     35  C   UNL d   1      25.959 -12.627  -2.940  0.00  0.00     0.154 C 
BRANCH  35  36
ATOM     36  C   UNL d   1      25.584 -13.264  -4.291  0.00  0.00     0.139 C 
ATOM     37  C   UNL d   1      26.817 -13.483  -5.159  0.00  0.00     0.035 C 
ATOM     38  C   UNL d   1      27.229 -14.895  -4.820  0.00  0.00     0.029 C 
ATOM     39  C   UNL d   1      25.905 -15.574  -4.553  0.00  0.00     0.168 C 
ATOM     40  O   UNL d   1      25.008 -14.568  -4.070  0.00  0.00    -0.384 OA
ENDBRANCH  35  36
ENDBRANCH  33  35
ENDBRANCH  30  31
ENDBRANCH  29  30
ENDBRANCH   1  29
TORSDOF 9
ENDMDL
MODEL 6
REMARK VINA RESULT:    -8.479      3.632      7.077
REMARK INTER + INTRA:         -14.309
REMARK INTER:                 -11.164
REMARK INTRA:                  -3.146
REMARK CONF_INDEPENDENT:        2.685
REMARK UNBOUND:                -3.146
REMARK  9 active torsions:
REMARK  status: ('A' for Active; 'I' for Inactive)
REMARK    1  A    between atoms: C_2  and  C_3 
REMARK       I    between atoms: C_2  and  N_30 
REMARK    2  A    between atoms: C_3  and  S_4 
REMARK    3  A    between atoms: C_5  and  S_4 
REMARK    4  A    between atoms: N_15  and  N_16 
REMARK       I    between atoms: N_16  and  C_17 
REMARK    5  A    between atoms: C_17  and  C_19 
REMARK    6  A    between atoms: C_19  and  C_20 
REMARK    7  A    between atoms: C_20  and  C_21 
REMARK    8  A    between atoms: N_30  and  C_31 
REMARK    9  A    between atoms: C_32  and  C_31 
ROOT
ATOM      1  C   UNL d   1      28.743 -13.784   3.625  0.00  0.00     0.274 C 
ATOM      2  N   UNL d   1      29.047 -12.396   3.909  0.00  0.00    -0.358 N 
ATOM      3  C   UNL d   1      28.118 -11.423   3.576  0.00  0.00     0.046 A 
ATOM      4  C   UNL d   1      28.115 -10.156   4.159  0.00  0.00     0.030 A 
ATOM      5  C   UNL d   1      27.186  -9.181   3.752  0.00  0.00     0.002 A 
ATOM      6  C   UNL d   1      26.265  -9.448   2.741  0.00  0.00     0.001 A 
ATOM      7  C   UNL d   1      26.242 -10.707   2.170  0.00  0.00     0.019 A 
ATOM      8  C   UNL d   1      27.146 -11.679   2.608  0.00  0.00     0.060 A 
ATOM      9  C   UNL d   1      27.071 -13.013   2.015  0.00  0.00     0.277 C 
ATOM     10  O   UNL d   1      26.066 -13.273   1.350  0.00  0.00    -0.266 OA
ATOM     11  N   UNL d   1      28.116 -13.883   2.314  0.00  0.00    -0.221 N 
ATOM     12  H   UNL d   1      29.768 -12.191   4.588  0.00  0.00     0.162 HD
ENDROOT
BRANCH  11  13
ATOM     13  N   UNL d   1      28.291 -15.122   1.583  0.00  0.00    -0.262 N 
ATOM     14  C   UNL d   1      28.477 -15.080   0.204  0.00  0.00     0.236 C 
ATOM     15  O   UNL d   1      28.429 -14.089  -0.516  0.00  0.00    -0.272 OA
ATOM     16  H   UNL d   1      28.704 -15.887   2.111  0.00  0.00     0.190 HD
BRANCH  14  17
ATOM     17  C   UNL d   1      28.818 -16.389  -0.451  0.00  0.00     0.109 C 
BRANCH  17  18
ATOM     18  C   UNL d   1      28.156 -16.371  -1.845  0.00  0.00     0.046 C 
BRANCH  18  19
ATOM     19  C   UNL d   1      26.695 -16.124  -1.828  0.00  0.00    -0.050 A 
ATOM     20  C   UNL d   1      25.785 -16.833  -1.155  0.00  0.00    -0.006 A 
ATOM     21  C   UNL d   1      25.846 -17.960  -0.286  0.00  0.00     0.014 A 
ATOM     22  C   UNL d   1      24.505 -16.180  -1.479  0.00  0.00     0.038 A 
ATOM     23  C   UNL d   1      24.697 -18.427   0.226  0.00  0.00     0.001 A 
ATOM     24  C   UNL d   1      23.415 -17.811  -0.088  0.00  0.00     0.002 A 
ATOM     25  C   UNL d   1      23.278 -16.741  -0.895  0.00  0.00     0.030 A 
ATOM     26  N   UNL d   1      24.654 -15.179  -2.260  0.00  0.00    -0.385 N 
ATOM     27  C   UNL d   1      26.074 -14.996  -2.584  0.00  0.00     0.155 A 
ATOM     28  H   UNL d   1      23.885 -14.609  -2.603  0.00  0.00     0.160 HD
ENDBRANCH  18  19
ENDBRANCH  17  18
ENDBRANCH  14  17
ENDBRANCH  11  13
BRANCH   1  29
ATOM     29  S   UNL d   1      27.852 -14.533   5.029  0.00  0.00    -0.112 SA
BRANCH  29  30
ATOM     30  C   UNL d   1      29.038 -14.451   6.427  0.00  0.00     0.180 C 
BRANCH  30  31
ATOM     31  C   UNL d   1      28.923 -13.121   7.192  0.00  0.00     0.227 C 
ATOM     32  O   UNL d   1      29.049 -12.011   6.679  0.00  0.00    -0.273 OA
ATOM     33  N   UNL d   1      28.674 -13.182   8.542  0.00  0.00    -0.358 N 
ATOM     34  H   UNL d   1      28.644 -12.277   9.006  0.00  0.00     0.162 HD
BRANCH  33  35
ATOM     35  C   UNL d   1      28.530 -14.379   9.353  0.00  0.00     0.154 C 
BRANCH  35  36
ATOM     36  C   UNL d   1      27.888 -14.121  10.729  0.00  0.00     0.139 C 
ATOM     37  C   UNL d   1      28.819 -14.542  11.859  0.00  0.00     0.035 C 
ATOM     38  C   UNL d   1      29.567 -13.270  12.178  0.00  0.00     0.029 C 
ATOM     39  C   UNL d   1      28.535 -12.199  11.910  0.00  0.00     0.168 C 
ATOM     40  O   UNL d   1      27.656 -12.708  10.900  0.00  0.00    -0.384 OA
ENDBRANCH  35  36
ENDBRANCH  33  35
ENDBRANCH  30  31
ENDBRANCH  29  30
ENDBRANCH   1  29
TORSDOF 9
ENDMDL
