MODEL 1
REMARK VINA RESULT:    -6.683      0.000      0.000
REMARK INTER + INTRA:         -11.082
REMARK INTER:                  -9.070
REMARK INTRA:                  -2.012
REMARK CONF_INDEPENDENT:        2.386
REMARK UNBOUND:                -2.012
REMARK  8 active torsions:
REMARK  status: ('A' for Active; 'I' for Inactive)
REMARK    1  A    between atoms: C_2  and  C_4 
REMARK    2  A    between atoms: C_4  and  C_5 
REMARK       I    between atoms: C_5  and  N_7 
REMARK    3  A    between atoms: N_7  and  C_8 
REMARK    4  A    between atoms: C_8  and  N_10 
REMARK    5  A    between atoms: N_10  and  N_11 
REMARK       I    between atoms: N_11  and  C_12 
REMARK    6  A    between atoms: C_12  and  C_14 
REMARK    7  A    between atoms: C_14  and  O_15 
REMARK    8  A    between atoms: O_15  and  C_16 
ROOT
ATOM      1  N   UNL d   1      24.779 -16.088  -1.988  0.00  0.00    -0.273 N 
ATOM      2  H   UNL d   1      23.859 -15.652  -2.047  0.00  0.00     0.189 HD
ENDROOT
BRANCH   1   3
ATOM      3  C   UNL d   1      25.232 -16.957  -0.983  0.00  0.00     0.193 C 
ATOM      4  S   UNL d   1      26.689 -16.590  -0.199  0.00  0.00    -0.039 SA
BRANCH   3   5
ATOM      5  N   UNL d   1      24.413 -18.084  -0.720  0.00  0.00    -0.303 N 
ATOM      6  C   UNL d   1      23.012 -18.061  -0.672  0.00  0.00     0.224 C 
ATOM      7  O   UNL d   1      22.361 -17.059  -0.988  0.00  0.00    -0.273 OA
ATOM      8  H   UNL d   1      24.862 -18.977  -0.565  0.00  0.00     0.171 HD
BRANCH   6   9
ATOM      9  C   UNL d   1      22.226 -19.325  -0.277  0.00  0.00     0.107 C 
BRANCH   9  10
ATOM     10  C   UNL d   1      20.752 -18.950   0.108  0.00  0.00    -0.014 C 
ATOM     11  C   UNL d   1      19.750 -19.245  -1.013  0.00  0.00     0.010 C 
ATOM     12  C   UNL d   1      20.278 -19.686   1.373  0.00  0.00     0.010 C 
ENDBRANCH   9  10
ENDBRANCH   6   9
ENDBRANCH   3   5
ENDBRANCH   1   3
BRANCH   1  13
ATOM     13  N   UNL d   1      25.695 -15.723  -3.065  0.00  0.00    -0.266 N 
ATOM     14  C   UNL d   1      25.411 -14.685  -3.941  0.00  0.00     0.260 C 
ATOM     15  O   UNL d   1      24.360 -14.047  -3.837  0.00  0.00    -0.269 OA
ATOM     16  H   UNL d   1      26.551 -16.280  -3.110  0.00  0.00     0.190 HD
BRANCH  14  17
ATOM     17  C   UNL d   1      26.487 -14.410  -5.040  0.00  0.00     0.280 C 
BRANCH  17  18
ATOM     18  O   UNL d   1      27.296 -15.573  -5.254  0.00  0.00    -0.342 OA
BRANCH  18  19
ATOM     19  C   UNL d   1      28.618 -15.412  -5.577  0.00  0.00     0.069 A 
ATOM     20  C   UNL d   1      28.909 -14.360  -6.456  0.00  0.00     0.037 A 
ATOM     21  C   UNL d   1      30.201 -14.180  -6.963  0.00  0.00     0.003 A 
ATOM     22  C   UNL d   1      31.231 -15.021  -6.554  0.00  0.00     0.000 A 
ATOM     23  C   UNL d   1      30.953 -16.069  -5.677  0.00  0.00     0.003 A 
ATOM     24  C   UNL d   1      29.648 -16.273  -5.199  0.00  0.00     0.037 A 
ENDBRANCH  18  19
ENDBRANCH  17  18
ENDBRANCH  14  17
ENDBRANCH   1  13
TORSDOF 8
ENDMDL
MODEL 2
REMARK VINA RESULT:    -6.393      2.997      4.070
REMARK INTER + INTRA:         -11.338
REMARK INTER:                  -8.780
REMARK INTRA:                  -2.558
REMARK CONF_INDEPENDENT:        2.386
REMARK UNBOUND:                -2.558
REMARK  8 active torsions:
REMARK  status: ('A' for Active; 'I' for Inactive)
REMARK    1  A    between atoms: C_2  and  C_4 
REMARK    2  A    between atoms: C_4  and  C_5 
REMARK       I    between atoms: C_5  and  N_7 
REMARK    3  A    between atoms: N_7  and  C_8 
REMARK    4  A    between atoms: C_8  and  N_10 
REMARK    5  A    between atoms: N_10  and  N_11 
REMARK       I    between atoms: N_11  and  C_12 
REMARK    6  A    between atoms: C_12  and  C_14 
REMARK    7  A    between atoms: C_14  and  O_15 
REMARK    8  A    between atoms: O_15  and  C_16 
ROOT
ATOM      1  N   UNL d   1      23.496 -16.934  -1.253  0.00  0.00    -0.273 N 
ATOM      2  H   UNL d   1      22.653 -16.418  -1.506  0.00  0.00     0.189 HD
ENDROOT
BRANCH   1   3
ATOM      3  C   UNL d   1      23.572 -18.047  -0.401  0.00  0.00     0.193 C 
ATOM      4  S   UNL d   1      24.929 -18.199   0.604  0.00  0.00    -0.039 SA
BRANCH   3   5
ATOM      5  N   UNL d   1      22.488 -18.958  -0.469  0.00  0.00    -0.303 N 
ATOM      6  C   UNL d   1      21.179 -18.618  -0.839  0.00  0.00     0.224 C 
ATOM      7  O   UNL d   1      20.889 -17.496  -1.268  0.00  0.00    -0.273 OA
ATOM      8  H   UNL d   1      22.664 -19.930  -0.247  0.00  0.00     0.171 HD
BRANCH   6   9
ATOM      9  C   UNL d   1      20.056 -19.670  -0.781  0.00  0.00     0.107 C 
BRANCH   9  10
ATOM     10  C   UNL d   1      20.027 -20.357   0.629  0.00  0.00    -0.014 C 
ATOM     11  C   UNL d   1      20.151 -19.356   1.782  0.00  0.00     0.010 C 
ATOM     12  C   UNL d   1      18.743 -21.176   0.849  0.00  0.00     0.010 C 
ENDBRANCH   9  10
ENDBRANCH   6   9
ENDBRANCH   3   5
ENDBRANCH   1   3
BRANCH   1  13
ATOM     13  N   UNL d   1      24.727 -16.413  -1.838  0.00  0.00    -0.266 N 
ATOM     14  C   UNL d   1      24.742 -15.237  -2.573  0.00  0.00     0.260 C 
ATOM     15  O   UNL d   1      23.701 -14.603  -2.763  0.00  0.00    -0.269 OA
ATOM     16  H   UNL d   1      25.563 -16.973  -1.654  0.00  0.00     0.190 HD
BRANCH  14  17
ATOM     17  C   UNL d   1      26.135 -14.804  -3.134  0.00  0.00     0.280 C 
BRANCH  17  18
ATOM     18  O   UNL d   1      27.191 -15.435  -2.400  0.00  0.00    -0.342 OA
BRANCH  18  19
ATOM     19  C   UNL d   1      27.372 -15.107  -1.082  0.00  0.00     0.069 A 
ATOM     20  C   UNL d   1      27.567 -13.745  -0.813  0.00  0.00     0.037 A 
ATOM     21  C   UNL d   1      27.895 -13.303   0.474  0.00  0.00     0.003 A 
ATOM     22  C   UNL d   1      27.982 -14.217   1.520  0.00  0.00     0.000 A 
ATOM     23  C   UNL d   1      27.787 -15.574   1.263  0.00  0.00     0.003 A 
ATOM     24  C   UNL d   1      27.496 -16.020  -0.035  0.00  0.00     0.037 A 
ENDBRANCH  18  19
ENDBRANCH  17  18
ENDBRANCH  14  17
ENDBRANCH   1  13
TORSDOF 8
ENDMDL
MODEL 3
REMARK VINA RESULT:    -6.340      3.389      4.381
REMARK INTER + INTRA:         -10.532
REMARK INTER:                  -8.726
REMARK INTRA:                  -1.805
REMARK CONF_INDEPENDENT:        2.386
REMARK UNBOUND:                -1.805
REMARK  8 active torsions:
REMARK  status: ('A' for Active; 'I' for Inactive)
REMARK    1  A    between atoms: C_2  and  C_4 
REMARK    2  A    between atoms: C_4  and  C_5 
REMARK       I    between atoms: C_5  and  N_7 
REMARK    3  A    between atoms: N_7  and  C_8 
REMARK    4  A    between atoms: C_8  and  N_10 
REMARK    5  A    between atoms: N_10  and  N_11 
REMARK       I    between atoms: N_11  and  C_12 
REMARK    6  A    between atoms: C_12  and  C_14 
REMARK    7  A    between atoms: C_14  and  O_15 
REMARK    8  A    between atoms: O_15  and  C_16 
ROOT
ATOM      1  N   UNL d   1      24.062 -18.381  -0.190  0.00  0.00    -0.273 N 
ATOM      2  H   UNL d   1      24.343 -19.321   0.087  0.00  0.00     0.189 HD
ENDROOT
BRANCH   1   3
ATOM      3  C   UNL d   1      22.770 -17.964  -0.548  0.00  0.00     0.193 C 
ATOM      4  S   UNL d   1      22.496 -16.308  -0.788  0.00  0.00    -0.039 SA
BRANCH   3   5
ATOM      5  N   UNL d   1      21.797 -18.988  -0.671  0.00  0.00    -0.303 N 
ATOM      6  C   UNL d   1      21.011 -19.476   0.383  0.00  0.00     0.224 C 
ATOM      7  O   UNL d   1      21.015 -18.950   1.502  0.00  0.00    -0.273 OA
ATOM      8  H   UNL d   1      21.644 -19.396  -1.584  0.00  0.00     0.171 HD
BRANCH   6   9
ATOM      9  C   UNL d   1      20.056 -20.662   0.157  0.00  0.00     0.107 C 
BRANCH   9  10
ATOM     10  C   UNL d   1      18.725 -20.450   0.961  0.00  0.00    -0.014 C 
ATOM     11  C   UNL d   1      17.663 -21.508   0.646  0.00  0.00     0.010 C 
ATOM     12  C   UNL d   1      18.959 -20.450   2.481  0.00  0.00     0.010 C 
ENDBRANCH   9  10
ENDBRANCH   6   9
ENDBRANCH   3   5
ENDBRANCH   1   3
BRANCH   1  13
ATOM     13  N   UNL d   1      25.148 -17.407  -0.230  0.00  0.00    -0.266 N 
ATOM     14  C   UNL d   1      26.467 -17.779  -0.012  0.00  0.00     0.260 C 
ATOM     15  O   UNL d   1      26.754 -18.954   0.235  0.00  0.00    -0.269 OA
ATOM     16  H   UNL d   1      24.861 -16.448  -0.438  0.00  0.00     0.190 HD
BRANCH  14  17
ATOM     17  C   UNL d   1      27.520 -16.628  -0.090  0.00  0.00     0.280 C 
BRANCH  17  18
ATOM     18  O   UNL d   1      26.875 -15.371  -0.329  0.00  0.00    -0.342 OA
BRANCH  18  19
ATOM     19  C   UNL d   1      26.500 -15.050  -1.607  0.00  0.00     0.069 A 
ATOM     20  C   UNL d   1      26.067 -13.731  -1.804  0.00  0.00     0.037 A 
ATOM     21  C   UNL d   1      25.534 -13.322  -3.032  0.00  0.00     0.003 A 
ATOM     22  C   UNL d   1      25.475 -14.217  -4.096  0.00  0.00     0.000 A 
ATOM     23  C   UNL d   1      25.907 -15.530  -3.911  0.00  0.00     0.003 A 
ATOM     24  C   UNL d   1      26.405 -15.950  -2.668  0.00  0.00     0.037 A 
ENDBRANCH  18  19
ENDBRANCH  17  18
ENDBRANCH  14  17
ENDBRANCH   1  13
TORSDOF 8
ENDMDL
MODEL 4
REMARK VINA RESULT:    -5.619      2.491      3.694
REMARK INTER + INTRA:         -10.559
REMARK INTER:                  -8.005
REMARK INTRA:                  -2.554
REMARK CONF_INDEPENDENT:        2.386
REMARK UNBOUND:                -2.554
REMARK  8 active torsions:
REMARK  status: ('A' for Active; 'I' for Inactive)
REMARK    1  A    between atoms: C_2  and  C_4 
REMARK    2  A    between atoms: C_4  and  C_5 
REMARK       I    between atoms: C_5  and  N_7 
REMARK    3  A    between atoms: N_7  and  C_8 
REMARK    4  A    between atoms: C_8  and  N_10 
REMARK    5  A    between atoms: N_10  and  N_11 
REMARK       I    between atoms: N_11  and  C_12 
REMARK    6  A    between atoms: C_12  and  C_14 
REMARK    7  A    between atoms: C_14  and  O_15 
REMARK    8  A    between atoms: O_15  and  C_16 
ROOT
ATOM      1  N   UNL d   1      24.598 -17.629  -0.330  0.00  0.00    -0.273 N 
ATOM      2  H   UNL d   1      24.493 -18.500   0.189  0.00  0.00     0.189 HD
ENDROOT
BRANCH   1   3
ATOM      3  C   UNL d   1      23.588 -16.931  -1.010  0.00  0.00     0.193 C 
ATOM      4  S   UNL d   1      24.027 -15.591  -1.950  0.00  0.00    -0.039 SA
BRANCH   3   5
ATOM      5  N   UNL d   1      22.269 -17.422  -0.837  0.00  0.00    -0.303 N 
ATOM      6  C   UNL d   1      21.934 -18.772  -0.656  0.00  0.00     0.224 C 
ATOM      7  O   UNL d   1      22.795 -19.646  -0.503  0.00  0.00    -0.273 OA
ATOM      8  H   UNL d   1      21.507 -16.756  -0.831  0.00  0.00     0.171 HD
BRANCH   6   9
ATOM      9  C   UNL d   1      20.458 -19.204  -0.580  0.00  0.00     0.107 C 
BRANCH   9  10
ATOM     10  C   UNL d   1      20.226 -20.126   0.669  0.00  0.00    -0.014 C 
ATOM     11  C   UNL d   1      20.279 -19.359   1.994  0.00  0.00     0.010 C 
ATOM     12  C   UNL d   1      18.878 -20.865   0.601  0.00  0.00     0.010 C 
ENDBRANCH   9  10
ENDBRANCH   6   9
ENDBRANCH   3   5
ENDBRANCH   1   3
BRANCH   1  13
ATOM     13  N   UNL d   1      25.959 -17.101  -0.364  0.00  0.00    -0.266 N 
ATOM     14  C   UNL d   1      27.034 -17.830   0.123  0.00  0.00     0.260 C 
ATOM     15  O   UNL d   1      26.861 -18.950   0.615  0.00  0.00    -0.269 OA
ATOM     16  H   UNL d   1      26.051 -16.172  -0.780  0.00  0.00     0.190 HD
BRANCH  14  17
ATOM     17  C   UNL d   1      28.430 -17.137   0.016  0.00  0.00     0.280 C 
BRANCH  17  18
ATOM     18  O   UNL d   1      28.307 -15.852  -0.607  0.00  0.00    -0.342 OA
BRANCH  18  19
ATOM     19  C   UNL d   1      28.216 -15.783  -1.972  0.00  0.00     0.069 A 
ATOM     20  C   UNL d   1      29.274 -16.365  -2.685  0.00  0.00     0.037 A 
ATOM     21  C   UNL d   1      29.361 -16.240  -4.077  0.00  0.00     0.003 A 
ATOM     22  C   UNL d   1      28.361 -15.573  -4.778  0.00  0.00     0.000 A 
ATOM     23  C   UNL d   1      27.302 -14.994  -4.078  0.00  0.00     0.003 A 
ATOM     24  C   UNL d   1      27.236 -15.086  -2.679  0.00  0.00     0.037 A 
ENDBRANCH  18  19
ENDBRANCH  17  18
ENDBRANCH  14  17
ENDBRANCH   1  13
TORSDOF 8
ENDMDL
MODEL 5
REMARK VINA RESULT:    -5.451      1.538      2.260
REMARK INTER + INTRA:         -10.253
REMARK INTER:                  -7.838
REMARK INTRA:                  -2.415
REMARK CONF_INDEPENDENT:        2.386
REMARK UNBOUND:                -2.415
REMARK  8 active torsions:
REMARK  status: ('A' for Active; 'I' for Inactive)
REMARK    1  A    between atoms: C_2  and  C_4 
REMARK    2  A    between atoms: C_4  and  C_5 
REMARK       I    between atoms: C_5  and  N_7 
REMARK    3  A    between atoms: N_7  and  C_8 
REMARK    4  A    between atoms: C_8  and  N_10 
REMARK    5  A    between atoms: N_10  and  N_11 
REMARK       I    between atoms: N_11  and  C_12 
REMARK    6  A    between atoms: C_12  and  C_14 
REMARK    7  A    between atoms: C_14  and  O_15 
REMARK    8  A    between atoms: O_15  and  C_16 
ROOT
ATOM      1  N   UNL d   1      26.080 -15.972  -2.352  0.00  0.00    -0.273 N 
ATOM      2  H   UNL d   1      25.106 -15.842  -2.623  0.00  0.00     0.189 HD
ENDROOT
BRANCH   1   3
ATOM      3  C   UNL d   1      26.551 -16.464  -1.124  0.00  0.00     0.193 C 
ATOM      4  S   UNL d   1      28.069 -15.945  -0.578  0.00  0.00    -0.039 SA
BRANCH   3   5
ATOM      5  N   UNL d   1      25.695 -17.371  -0.449  0.00  0.00    -0.303 N 
ATOM      6  C   UNL d   1      24.547 -17.953  -1.005  0.00  0.00     0.224 C 
ATOM      7  O   UNL d   1      24.255 -17.817  -2.199  0.00  0.00    -0.273 OA
ATOM      8  H   UNL d   1      25.927 -17.632   0.501  0.00  0.00     0.171 HD
BRANCH   6   9
ATOM      9  C   UNL d   1      23.634 -18.847  -0.146  0.00  0.00     0.107 C 
BRANCH   9  10
ATOM     10  C   UNL d   1      22.205 -18.210  -0.028  0.00  0.00    -0.014 C 
ATOM     11  C   UNL d   1      22.156 -16.761  -0.521  0.00  0.00     0.010 C 
ATOM     12  C   UNL d   1      21.147 -19.011  -0.807  0.00  0.00     0.010 C 
ENDBRANCH   9  10
ENDBRANCH   6   9
ENDBRANCH   3   5
ENDBRANCH   1   3
BRANCH   1  13
ATOM     13  N   UNL d   1      27.052 -15.569  -3.364  0.00  0.00    -0.266 N 
ATOM     14  C   UNL d   1      26.655 -15.101  -4.608  0.00  0.00     0.260 C 
ATOM     15  O   UNL d   1      25.457 -15.025  -4.897  0.00  0.00    -0.269 OA
ATOM     16  H   UNL d   1      28.030 -15.649  -3.079  0.00  0.00     0.190 HD
BRANCH  14  17
ATOM     17  C   UNL d   1      27.808 -14.704  -5.585  0.00  0.00     0.280 C 
BRANCH  17  18
ATOM     18  O   UNL d   1      29.081 -15.060  -5.032  0.00  0.00    -0.342 OA
BRANCH  18  19
ATOM     19  C   UNL d   1      29.730 -16.166  -5.516  0.00  0.00     0.069 A 
ATOM     20  C   UNL d   1      30.014 -17.167  -4.577  0.00  0.00     0.037 A 
ATOM     21  C   UNL d   1      30.789 -18.281  -4.923  0.00  0.00     0.003 A 
ATOM     22  C   UNL d   1      31.247 -18.430  -6.229  0.00  0.00     0.000 A 
ATOM     23  C   UNL d   1      30.966 -17.441  -7.171  0.00  0.00     0.003 A 
ATOM     24  C   UNL d   1      30.222 -16.305  -6.814  0.00  0.00     0.037 A 
ENDBRANCH  18  19
ENDBRANCH  17  18
ENDBRANCH  14  17
ENDBRANCH   1  13
TORSDOF 8
ENDMDL
MODEL 6
REMARK VINA RESULT:    -5.430      3.992      8.407
REMARK INTER + INTRA:         -10.335
REMARK INTER:                  -7.816
REMARK INTRA:                  -2.518
REMARK CONF_INDEPENDENT:        2.386
REMARK UNBOUND:                -2.518
REMARK  8 active torsions:
REMARK  status: ('A' for Active; 'I' for Inactive)
REMARK    1  A    between atoms: C_2  and  C_4 
REMARK    2  A    between atoms: C_4  and  C_5 
REMARK       I    between atoms: C_5  and  N_7 
REMARK    3  A    between atoms: N_7  and  C_8 
REMARK    4  A    between atoms: C_8  and  N_10 
REMARK    5  A    between atoms: N_10  and  N_11 
REMARK       I    between atoms: N_11  and  C_12 
REMARK    6  A    between atoms: C_12  and  C_14 
REMARK    7  A    between atoms: C_14  and  O_15 
REMARK    8  A    between atoms: O_15  and  C_16 
ROOT
ATOM      1  N   UNL d   1      26.287 -13.148  -2.207  0.00  0.00    -0.273 N 
ATOM      2  H   UNL d   1      26.740 -12.409  -1.669  0.00  0.00     0.189 HD
ENDROOT
BRANCH   1   3
ATOM      3  C   UNL d   1      25.618 -13.002  -3.432  0.00  0.00     0.193 C 
ATOM      4  S   UNL d   1      25.170 -14.401  -4.277  0.00  0.00    -0.039 SA
BRANCH   3   5
ATOM      5  N   UNL d   1      25.381 -11.670  -3.856  0.00  0.00    -0.303 N 
ATOM      6  C   UNL d   1      25.933 -10.529  -3.256  0.00  0.00     0.224 C 
ATOM      7  O   UNL d   1      26.790 -10.603  -2.369  0.00  0.00    -0.273 OA
ATOM      8  H   UNL d   1      24.780 -11.521  -4.657  0.00  0.00     0.171 HD
BRANCH   6   9
ATOM      9  C   UNL d   1      25.527  -9.123  -3.737  0.00  0.00     0.107 C 
BRANCH   9  10
ATOM     10  C   UNL d   1      24.904  -9.199  -5.175  0.00  0.00    -0.014 C 
ATOM     11  C   UNL d   1      23.908  -8.069  -5.454  0.00  0.00     0.010 C 
ATOM     12  C   UNL d   1      25.979  -9.165  -6.275  0.00  0.00     0.010 C 
ENDBRANCH   9  10
ENDBRANCH   6   9
ENDBRANCH   3   5
ENDBRANCH   1   3
BRANCH   1  13
ATOM     13  N   UNL d   1      26.343 -14.470  -1.592  0.00  0.00    -0.266 N 
ATOM     14  C   UNL d   1      26.847 -14.657  -0.313  0.00  0.00     0.260 C 
ATOM     15  O   UNL d   1      27.277 -13.700   0.337  0.00  0.00    -0.269 OA
ATOM     16  H   UNL d   1      25.976 -15.230  -2.169  0.00  0.00     0.190 HD
BRANCH  14  17
ATOM     17  C   UNL d   1      26.839 -16.129   0.212  0.00  0.00     0.280 C 
BRANCH  17  18
ATOM     18  O   UNL d   1      26.202 -16.997  -0.733  0.00  0.00    -0.342 OA
BRANCH  18  19
ATOM     19  C   UNL d   1      24.858 -17.239  -0.612  0.00  0.00     0.069 A 
ATOM     20  C   UNL d   1      24.504 -18.546  -0.249  0.00  0.00     0.037 A 
ATOM     21  C   UNL d   1      23.163 -18.949  -0.225  0.00  0.00     0.003 A 
ATOM     22  C   UNL d   1      22.157 -18.032  -0.514  0.00  0.00     0.000 A 
ATOM     23  C   UNL d   1      22.500 -16.729  -0.872  0.00  0.00     0.003 A 
ATOM     24  C   UNL d   1      23.846 -16.336  -0.935  0.00  0.00     0.037 A 
ENDBRANCH  18  19
ENDBRANCH  17  18
ENDBRANCH  14  17
ENDBRANCH   1  13
TORSDOF 8
ENDMDL
MODEL 7
REMARK VINA RESULT:    -5.357      2.011      3.749
REMARK INTER + INTRA:         -10.586
REMARK INTER:                  -7.743
REMARK INTRA:                  -2.843
REMARK CONF_INDEPENDENT:        2.386
REMARK UNBOUND:                -2.843
REMARK  8 active torsions:
REMARK  status: ('A' for Active; 'I' for Inactive)
REMARK    1  A    between atoms: C_2  and  C_4 
REMARK    2  A    between atoms: C_4  and  C_5 
REMARK       I    between atoms: C_5  and  N_7 
REMARK    3  A    between atoms: N_7  and  C_8 
REMARK    4  A    between atoms: C_8  and  N_10 
REMARK    5  A    between atoms: N_10  and  N_11 
REMARK       I    between atoms: N_11  and  C_12 
REMARK    6  A    between atoms: C_12  and  C_14 
REMARK    7  A    between atoms: C_14  and  O_15 
REMARK    8  A    between atoms: O_15  and  C_16 
ROOT
ATOM      1  N   UNL d   1      28.175 -15.951  -1.217  0.00  0.00    -0.273 N 
ATOM      2  H   UNL d   1      29.113 -16.198  -0.905  0.00  0.00     0.189 HD
ENDROOT
BRANCH   1   3
ATOM      3  C   UNL d   1      27.066 -15.673  -0.401  0.00  0.00     0.193 C 
ATOM      4  S   UNL d   1      26.858 -14.088   0.162  0.00  0.00    -0.039 SA
BRANCH   3   5
ATOM      5  N   UNL d   1      26.213 -16.770  -0.117  0.00  0.00    -0.303 N 
ATOM      6  C   UNL d   1      25.284 -17.314  -1.015  0.00  0.00     0.224 C 
ATOM      7  O   UNL d   1      25.223 -16.953  -2.196  0.00  0.00    -0.273 OA
ATOM      8  H   UNL d   1      26.280 -17.206   0.793  0.00  0.00     0.171 HD
BRANCH   6   9
ATOM      9  C   UNL d   1      24.336 -18.442  -0.566  0.00  0.00     0.107 C 
BRANCH   9  10
ATOM     10  C   UNL d   1      22.847 -18.059  -0.881  0.00  0.00    -0.014 C 
ATOM     11  C   UNL d   1      21.836 -18.949  -0.153  0.00  0.00     0.010 C 
ATOM     12  C   UNL d   1      22.537 -16.595  -0.520  0.00  0.00     0.010 C 
ENDBRANCH   9  10
ENDBRANCH   6   9
ENDBRANCH   3   5
ENDBRANCH   1   3
BRANCH   1  13
ATOM     13  N   UNL d   1      28.004 -15.917  -2.666  0.00  0.00    -0.266 N 
ATOM     14  C   UNL d   1      29.065 -15.643  -3.517  0.00  0.00     0.260 C 
ATOM     15  O   UNL d   1      30.188 -15.405  -3.063  0.00  0.00    -0.269 OA
ATOM     16  H   UNL d   1      27.057 -16.120  -2.994  0.00  0.00     0.190 HD
BRANCH  14  17
ATOM     17  C   UNL d   1      28.730 -15.645  -5.043  0.00  0.00     0.280 C 
BRANCH  17  18
ATOM     18  O   UNL d   1      27.314 -15.578  -5.248  0.00  0.00    -0.342 OA
BRANCH  18  19
ATOM     19  C   UNL d   1      26.631 -14.473  -4.810  0.00  0.00     0.069 A 
ATOM     20  C   UNL d   1      27.207 -13.235  -5.127  0.00  0.00     0.037 A 
ATOM     21  C   UNL d   1      26.676 -12.042  -4.622  0.00  0.00     0.003 A 
ATOM     22  C   UNL d   1      25.530 -12.072  -3.833  0.00  0.00     0.000 A 
ATOM     23  C   UNL d   1      24.947 -13.299  -3.516  0.00  0.00     0.003 A 
ATOM     24  C   UNL d   1      25.503 -14.497  -3.991  0.00  0.00     0.037 A 
ENDBRANCH  18  19
ENDBRANCH  17  18
ENDBRANCH  14  17
ENDBRANCH   1  13
TORSDOF 8
ENDMDL
MODEL 8
REMARK VINA RESULT:    -5.279      2.722      7.389
REMARK INTER + INTRA:         -10.588
REMARK INTER:                  -7.665
REMARK INTRA:                  -2.923
REMARK CONF_INDEPENDENT:        2.386
REMARK UNBOUND:                -2.923
REMARK  8 active torsions:
REMARK  status: ('A' for Active; 'I' for Inactive)
REMARK    1  A    between atoms: C_2  and  C_4 
REMARK    2  A    between atoms: C_4  and  C_5 
REMARK       I    between atoms: C_5  and  N_7 
REMARK    3  A    between atoms: N_7  and  C_8 
REMARK    4  A    between atoms: C_8  and  N_10 
REMARK    5  A    between atoms: N_10  and  N_11 
REMARK       I    between atoms: N_11  and  C_12 
REMARK    6  A    between atoms: C_12  and  C_14 
REMARK    7  A    between atoms: C_14  and  O_15 
REMARK    8  A    between atoms: O_15  and  C_16 
ROOT
ATOM      1  N   UNL d   1      28.819 -16.097  -3.622  0.00  0.00    -0.273 N 
ATOM      2  H   UNL d   1      29.709 -16.571  -3.470  0.00  0.00     0.189 HD
ENDROOT
BRANCH   1   3
ATOM      3  C   UNL d   1      28.471 -15.302  -4.725  0.00  0.00     0.193 C 
ATOM      4  S   UNL d   1      29.265 -15.575  -6.197  0.00  0.00    -0.039 SA
BRANCH   3   5
ATOM      5  N   UNL d   1      27.471 -14.322  -4.495  0.00  0.00    -0.303 N 
ATOM      6  C   UNL d   1      26.094 -14.581  -4.444  0.00  0.00     0.224 C 
ATOM      7  O   UNL d   1      25.641 -15.731  -4.470  0.00  0.00    -0.273 OA
ATOM      8  H   UNL d   1      27.764 -13.366  -4.344  0.00  0.00     0.171 HD
BRANCH   6   9
ATOM      9  C   UNL d   1      25.090 -13.424  -4.288  0.00  0.00     0.107 C 
BRANCH   9  10
ATOM     10  C   UNL d   1      25.530 -12.476  -3.117  0.00  0.00    -0.014 C 
ATOM     11  C   UNL d   1      26.279 -13.214  -2.003  0.00  0.00     0.010 C 
ATOM     12  C   UNL d   1      26.424 -11.325  -3.609  0.00  0.00     0.010 C 
ENDBRANCH   9  10
ENDBRANCH   6   9
ENDBRANCH   3   5
ENDBRANCH   1   3
BRANCH   1  13
ATOM     13  N   UNL d   1      27.847 -16.269  -2.547  0.00  0.00    -0.266 N 
ATOM     14  C   UNL d   1      28.181 -16.903  -1.359  0.00  0.00     0.260 C 
ATOM     15  O   UNL d   1      29.318 -17.351  -1.186  0.00  0.00    -0.269 OA
ATOM     16  H   UNL d   1      26.920 -15.882  -2.738  0.00  0.00     0.190 HD
BRANCH  14  17
ATOM     17  C   UNL d   1      27.036 -17.010  -0.301  0.00  0.00     0.280 C 
BRANCH  17  18
ATOM     18  O   UNL d   1      25.843 -16.382  -0.785  0.00  0.00    -0.342 OA
BRANCH  18  19
ATOM     19  C   UNL d   1      24.668 -17.087  -0.769  0.00  0.00     0.069 A 
ATOM     20  C   UNL d   1      23.497 -16.325  -0.895  0.00  0.00     0.037 A 
ATOM     21  C   UNL d   1      22.235 -16.915  -0.758  0.00  0.00     0.003 A 
ATOM     22  C   UNL d   1      22.129 -18.286  -0.545  0.00  0.00     0.000 A 
ATOM     23  C   UNL d   1      23.288 -19.053  -0.422  0.00  0.00     0.003 A 
ATOM     24  C   UNL d   1      24.554 -18.454  -0.520  0.00  0.00     0.037 A 
ENDBRANCH  18  19
ENDBRANCH  17  18
ENDBRANCH  14  17
ENDBRANCH   1  13
TORSDOF 8
ENDMDL
MODEL 9
REMARK VINA RESULT:    -4.983      2.833      7.542
REMARK INTER + INTRA:         -10.257
REMARK INTER:                  -7.369
REMARK INTRA:                  -2.888
REMARK CONF_INDEPENDENT:        2.386
REMARK UNBOUND:                -2.888
REMARK  8 active torsions:
REMARK  status: ('A' for Active; 'I' for Inactive)
REMARK    1  A    between atoms: C_2  and  C_4 
REMARK    2  A    between atoms: C_4  and  C_5 
REMARK       I    between atoms: C_5  and  N_7 
REMARK    3  A    between atoms: N_7  and  C_8 
REMARK    4  A    between atoms: C_8  and  N_10 
REMARK    5  A    between atoms: N_10  and  N_11 
REMARK       I    between atoms: N_11  and  C_12 
REMARK    6  A    between atoms: C_12  and  C_14 
REMARK    7  A    between atoms: C_14  and  O_15 
REMARK    8  A    between atoms: O_15  and  C_16 
ROOT
ATOM      1  N   UNL d   1      26.647 -12.200  -1.866  0.00  0.00    -0.273 N 
ATOM      2  H   UNL d   1      26.996 -11.571  -1.143  0.00  0.00     0.189 HD
ENDROOT
BRANCH   1   3
ATOM      3  C   UNL d   1      26.401 -11.877  -3.210  0.00  0.00     0.193 C 
ATOM      4  S   UNL d   1      25.782 -10.340  -3.568  0.00  0.00    -0.039 SA
BRANCH   3   5
ATOM      5  N   UNL d   1      26.694 -12.890  -4.157  0.00  0.00    -0.303 N 
ATOM      6  C   UNL d   1      25.895 -14.018  -4.396  0.00  0.00     0.224 C 
ATOM      7  O   UNL d   1      24.782 -14.155  -3.876  0.00  0.00    -0.273 OA
ATOM      8  H   UNL d   1      27.533 -12.797  -4.715  0.00  0.00     0.171 HD
BRANCH   6   9
ATOM      9  C   UNL d   1      26.362 -15.109  -5.377  0.00  0.00     0.107 C 
BRANCH   9  10
ATOM     10  C   UNL d   1      27.817 -15.576  -5.020  0.00  0.00    -0.014 C 
ATOM     11  C   UNL d   1      28.898 -14.722  -5.690  0.00  0.00     0.010 C 
ATOM     12  C   UNL d   1      28.074 -15.561  -3.503  0.00  0.00     0.010 C 
ENDBRANCH   9  10
ENDBRANCH   6   9
ENDBRANCH   3   5
ENDBRANCH   1   3
BRANCH   1  13
ATOM     13  N   UNL d   1      26.364 -13.556  -1.408  0.00  0.00    -0.266 N 
ATOM     14  C   UNL d   1      26.656 -13.963  -0.114  0.00  0.00     0.260 C 
ATOM     15  O   UNL d   1      27.180 -13.182   0.685  0.00  0.00    -0.269 OA
ATOM     16  H   UNL d   1      25.931 -14.165  -2.106  0.00  0.00     0.190 HD
BRANCH  14  17
ATOM     17  C   UNL d   1      26.293 -15.443   0.231  0.00  0.00     0.280 C 
BRANCH  17  18
ATOM     18  O   UNL d   1      25.714 -16.097  -0.905  0.00  0.00    -0.342 OA
BRANCH  18  19
ATOM     19  C   UNL d   1      24.565 -16.825  -0.737  0.00  0.00     0.069 A 
ATOM     20  C   UNL d   1      24.740 -18.198  -0.508  0.00  0.00     0.037 A 
ATOM     21  C   UNL d   1      23.643 -19.066  -0.455  0.00  0.00     0.003 A 
ATOM     22  C   UNL d   1      22.352 -18.561  -0.580  0.00  0.00     0.000 A 
ATOM     23  C   UNL d   1      22.168 -17.197  -0.804  0.00  0.00     0.003 A 
ATOM     24  C   UNL d   1      23.271 -16.333  -0.896  0.00  0.00     0.037 A 
ENDBRANCH  18  19
ENDBRANCH  17  18
ENDBRANCH  14  17
ENDBRANCH   1  13
TORSDOF 8
ENDMDL
