MODEL 1
REMARK VINA RESULT:    -8.582      0.000      0.000
REMARK INTER + INTRA:         -10.705
REMARK INTER:                  -9.775
REMARK INTRA:                  -0.929
REMARK CONF_INDEPENDENT:        1.193
REMARK UNBOUND:                -0.929
REMARK  4 active torsions:
REMARK  status: ('A' for Active; 'I' for Inactive)
REMARK    1  A    between atoms: C_6  and  N_7 
REMARK       I    between atoms: N_7  and  C_8 
REMARK    2  A    between atoms: C_10  and  C_8 
REMARK    3  A    between atoms: C_10  and  N_12 
REMARK       I    between atoms: N_12  and  C_13 
REMARK    4  A    between atoms: C_13  and  C_15 
ROOT
ATOM      1  C   UNL d   1      25.073 -17.595   0.113  0.00  0.00     0.173 C 
ATOM      2  C   UNL d   1      26.281 -18.533   0.268  0.00  0.00     0.042 C 
ENDROOT
BRANCH   1   3
ATOM      3  N   UNL d   1      23.821 -18.307   0.409  0.00  0.00    -0.344 N 
ATOM      4  C   UNL d   1      22.595 -17.809   0.037  0.00  0.00     0.252 C 
ATOM      5  O   UNL d   1      22.456 -16.728  -0.534  0.00  0.00    -0.268 OA
ATOM      6  H   UNL d   1      23.881 -19.200   0.884  0.00  0.00     0.163 HD
BRANCH   4   7
ATOM      7  C   UNL d   1      21.405 -18.643   0.276  0.00  0.00     0.032 A 
ATOM      8  C   UNL d   1      20.740 -19.211  -0.810  0.00  0.00     0.018 A 
ATOM      9  C   UNL d   1      19.669 -20.075  -0.584  0.00  0.00     0.025 A 
ATOM     10  C   UNL d   1      19.265 -20.365   0.721  0.00  0.00     0.034 A 
ATOM     11 CL   UNL d   1      17.930 -21.419   0.980  0.00  0.00    -0.084 Cl
ATOM     12  C   UNL d   1      19.936 -19.811   1.811  0.00  0.00     0.025 A 
ATOM     13  C   UNL d   1      21.015 -18.950   1.590  0.00  0.00     0.018 A 
ENDBRANCH   4   7
ENDBRANCH   1   3
BRANCH   1  14
ATOM     14  C   UNL d   1      25.130 -17.037  -1.335  0.00  0.00     0.244 C 
ATOM     15  N   UNL d   1      25.872 -15.877  -1.509  0.00  0.00    -0.325 N 
ATOM     16  H   UNL d   1      26.375 -15.546  -0.688  0.00  0.00     0.169 HD
ATOM     17  O   UNL d   1      24.594 -17.677  -2.241  0.00  0.00    -0.271 OA
BRANCH  15  18
ATOM     18  C   UNL d   1      25.985 -15.113  -2.697  0.00  0.00     0.041 A 
ATOM     19  C   UNL d   1      24.920 -14.294  -3.093  0.00  0.00     0.030 A 
ATOM     20  C   UNL d   1      24.973 -13.505  -4.229  0.00  0.00     0.003 A 
ATOM     21  C   UNL d   1      26.103 -13.531  -5.020  0.00  0.00     0.007 A 
ATOM     22  C   UNL d   1      27.195 -14.341  -4.674  0.00  0.00    -0.054 A 
ATOM     23  C   UNL d   1      28.386 -14.334  -5.596  0.00  0.00     0.049 C 
ATOM     24  C   UNL d   1      27.158 -15.136  -3.494  0.00  0.00    -0.029 A 
ATOM     25  C   UNL d   1      28.388 -15.944  -3.156  0.00  0.00     0.051 C 
ENDBRANCH  15  18
ENDBRANCH   1  14
TORSDOF 4
ENDMDL
MODEL 2
REMARK VINA RESULT:    -8.136      4.829      6.188
REMARK INTER + INTRA:         -10.084
REMARK INTER:                  -9.330
REMARK INTRA:                  -0.755
REMARK CONF_INDEPENDENT:        1.193
REMARK UNBOUND:                -0.755
REMARK  4 active torsions:
REMARK  status: ('A' for Active; 'I' for Inactive)
REMARK    1  A    between atoms: C_6  and  N_7 
REMARK       I    between atoms: N_7  and  C_8 
REMARK    2  A    between atoms: C_10  and  C_8 
REMARK    3  A    between atoms: C_10  and  N_12 
REMARK       I    between atoms: N_12  and  C_13 
REMARK    4  A    between atoms: C_13  and  C_15 
ROOT
ATOM      1  C   UNL d   1      27.834 -16.301   0.350  0.00  0.00     0.173 C 
ATOM      2  C   UNL d   1      28.420 -16.103  -1.058  0.00  0.00     0.042 C 
ENDROOT
BRANCH   1   3
ATOM      3  N   UNL d   1      26.517 -16.950   0.278  0.00  0.00    -0.344 N 
ATOM      4  C   UNL d   1      25.493 -16.438  -0.483  0.00  0.00     0.252 C 
ATOM      5  O   UNL d   1      25.594 -15.393  -1.125  0.00  0.00    -0.268 OA
ATOM      6  H   UNL d   1      26.382 -17.811   0.793  0.00  0.00     0.163 HD
BRANCH   4   7
ATOM      7  C   UNL d   1      24.247 -17.215  -0.585  0.00  0.00     0.032 A 
ATOM      8  C   UNL d   1      24.263 -18.574  -0.276  0.00  0.00     0.018 A 
ATOM      9  C   UNL d   1      23.068 -19.293  -0.281  0.00  0.00     0.025 A 
ATOM     10  C   UNL d   1      21.866 -18.656  -0.598  0.00  0.00     0.034 A 
ATOM     11 CL   UNL d   1      20.405 -19.563  -0.617  0.00  0.00    -0.084 Cl
ATOM     12  C   UNL d   1      21.843 -17.293  -0.893  0.00  0.00     0.025 A 
ATOM     13  C   UNL d   1      23.037 -16.566  -0.882  0.00  0.00     0.018 A 
ENDBRANCH   4   7
ENDBRANCH   1   3
BRANCH   1  14
ATOM     14  C   UNL d   1      27.788 -14.897   1.011  0.00  0.00     0.244 C 
ATOM     15  N   UNL d   1      28.120 -14.849   2.358  0.00  0.00    -0.325 N 
ATOM     16  H   UNL d   1      28.439 -15.725   2.766  0.00  0.00     0.169 HD
ATOM     17  O   UNL d   1      27.544 -13.916   0.306  0.00  0.00    -0.271 OA
BRANCH  15  18
ATOM     18  C   UNL d   1      28.044 -13.719   3.209  0.00  0.00     0.041 A 
ATOM     19  C   UNL d   1      27.854 -12.448   2.652  0.00  0.00     0.030 A 
ATOM     20  C   UNL d   1      27.748 -11.306   3.427  0.00  0.00     0.003 A 
ATOM     21  C   UNL d   1      27.852 -11.406   4.800  0.00  0.00     0.007 A 
ATOM     22  C   UNL d   1      28.052 -12.654   5.408  0.00  0.00    -0.054 A 
ATOM     23  C   UNL d   1      28.177 -12.683   6.909  0.00  0.00     0.049 C 
ATOM     24  C   UNL d   1      28.136 -13.836   4.619  0.00  0.00    -0.029 A 
ATOM     25  C   UNL d   1      28.302 -15.151   5.344  0.00  0.00     0.051 C 
ENDBRANCH  15  18
ENDBRANCH   1  14
TORSDOF 4
ENDMDL
MODEL 3
REMARK VINA RESULT:    -8.087      5.213      6.660
REMARK INTER + INTRA:         -10.151
REMARK INTER:                  -9.280
REMARK INTRA:                  -0.871
REMARK CONF_INDEPENDENT:        1.193
REMARK UNBOUND:                -0.871
REMARK  4 active torsions:
REMARK  status: ('A' for Active; 'I' for Inactive)
REMARK    1  A    between atoms: C_6  and  N_7 
REMARK       I    between atoms: N_7  and  C_8 
REMARK    2  A    between atoms: C_10  and  C_8 
REMARK    3  A    between atoms: C_10  and  N_12 
REMARK       I    between atoms: N_12  and  C_13 
REMARK    4  A    between atoms: C_13  and  C_15 
ROOT
ATOM      1  C   UNL d   1      27.391 -15.288   0.486  0.00  0.00     0.173 C 
ATOM      2  C   UNL d   1      28.144 -14.816  -0.768  0.00  0.00     0.042 C 
ENDROOT
BRANCH   1   3
ATOM      3  N   UNL d   1      26.057 -15.796   0.132  0.00  0.00    -0.344 N 
ATOM      4  C   UNL d   1      25.850 -17.107  -0.228  0.00  0.00     0.252 C 
ATOM      5  O   UNL d   1      26.760 -17.931  -0.312  0.00  0.00    -0.268 OA
ATOM      6  H   UNL d   1      25.275 -15.155   0.180  0.00  0.00     0.163 HD
BRANCH   4   7
ATOM      7  C   UNL d   1      24.466 -17.554  -0.457  0.00  0.00     0.032 A 
ATOM      8  C   UNL d   1      24.169 -18.914  -0.396  0.00  0.00     0.018 A 
ATOM      9  C   UNL d   1      22.845 -19.334  -0.520  0.00  0.00     0.025 A 
ATOM     10  C   UNL d   1      21.826 -18.397  -0.709  0.00  0.00     0.034 A 
ATOM     11 CL   UNL d   1      20.201 -18.935  -0.879  0.00  0.00    -0.084 Cl
ATOM     12  C   UNL d   1      22.117 -17.034  -0.757  0.00  0.00     0.025 A 
ATOM     13  C   UNL d   1      23.442 -16.607  -0.624  0.00  0.00     0.018 A 
ENDBRANCH   4   7
ENDBRANCH   1   3
BRANCH   1  14
ATOM     14  C   UNL d   1      27.345 -14.077   1.456  0.00  0.00     0.244 C 
ATOM     15  N   UNL d   1      28.043 -14.226   2.647  0.00  0.00    -0.325 N 
ATOM     16  H   UNL d   1      28.584 -15.083   2.738  0.00  0.00     0.169 HD
ATOM     17  O   UNL d   1      26.775 -13.046   1.094  0.00  0.00    -0.271 OA
BRANCH  15  18
ATOM     18  C   UNL d   1      28.063 -13.321   3.737  0.00  0.00     0.041 A 
ATOM     19  C   UNL d   1      27.845 -11.957   3.503  0.00  0.00     0.030 A 
ATOM     20  C   UNL d   1      27.827 -11.022   4.524  0.00  0.00     0.003 A 
ATOM     21  C   UNL d   1      28.052 -11.433   5.823  0.00  0.00     0.007 A 
ATOM     22  C   UNL d   1      28.284 -12.786   6.110  0.00  0.00    -0.054 A 
ATOM     23  C   UNL d   1      28.542 -13.157   7.547  0.00  0.00     0.049 C 
ATOM     24  C   UNL d   1      28.278 -13.757   5.069  0.00  0.00    -0.029 A 
ATOM     25  C   UNL d   1      28.486 -15.201   5.457  0.00  0.00     0.051 C 
ENDBRANCH  15  18
ENDBRANCH   1  14
TORSDOF 4
ENDMDL
MODEL 4
REMARK VINA RESULT:    -8.034      5.199      6.732
REMARK INTER + INTRA:         -10.103
REMARK INTER:                  -9.227
REMARK INTRA:                  -0.876
REMARK CONF_INDEPENDENT:        1.193
REMARK UNBOUND:                -0.876
REMARK  4 active torsions:
REMARK  status: ('A' for Active; 'I' for Inactive)
REMARK    1  A    between atoms: C_6  and  N_7 
REMARK       I    between atoms: N_7  and  C_8 
REMARK    2  A    between atoms: C_10  and  C_8 
REMARK    3  A    between atoms: C_10  and  N_12 
REMARK       I    between atoms: N_12  and  C_13 
REMARK    4  A    between atoms: C_13  and  C_15 
ROOT
ATOM      1  C   UNL d   1      27.402 -15.169   0.447  0.00  0.00     0.173 C 
ATOM      2  C   UNL d   1      27.954 -14.273  -0.674  0.00  0.00     0.042 C 
ENDROOT
BRANCH   1   3
ATOM      3  N   UNL d   1      26.085 -15.710   0.079  0.00  0.00    -0.344 N 
ATOM      4  C   UNL d   1      25.886 -17.052  -0.144  0.00  0.00     0.252 C 
ATOM      5  O   UNL d   1      26.792 -17.882  -0.086  0.00  0.00    -0.268 OA
ATOM      6  H   UNL d   1      25.307 -15.065   0.012  0.00  0.00     0.163 HD
BRANCH   4   7
ATOM      7  C   UNL d   1      24.513 -17.518  -0.398  0.00  0.00     0.032 A 
ATOM      8  C   UNL d   1      24.240 -18.885  -0.372  0.00  0.00     0.018 A 
ATOM      9  C   UNL d   1      22.924 -19.325  -0.519  0.00  0.00     0.025 A 
ATOM     10  C   UNL d   1      21.891 -18.402  -0.696  0.00  0.00     0.034 A 
ATOM     11 CL   UNL d   1      20.278 -18.965  -0.895  0.00  0.00    -0.084 Cl
ATOM     12  C   UNL d   1      22.157 -17.033  -0.709  0.00  0.00     0.025 A 
ATOM     13  C   UNL d   1      23.473 -16.586  -0.553  0.00  0.00     0.018 A 
ENDBRANCH   4   7
ENDBRANCH   1   3
BRANCH   1  14
ATOM     14  C   UNL d   1      27.367 -14.299   1.732  0.00  0.00     0.244 C 
ATOM     15  N   UNL d   1      28.303 -14.617   2.706  0.00  0.00    -0.325 N 
ATOM     16  H   UNL d   1      28.976 -15.338   2.454  0.00  0.00     0.169 HD
ATOM     17  O   UNL d   1      26.586 -13.347   1.784  0.00  0.00    -0.271 OA
BRANCH  15  18
ATOM     18  C   UNL d   1      28.403 -14.053   4.002  0.00  0.00     0.041 A 
ATOM     19  C   UNL d   1      28.452 -14.898   5.118  0.00  0.00     0.030 A 
ATOM     20  C   UNL d   1      28.572 -14.415   6.410  0.00  0.00     0.003 A 
ATOM     21  C   UNL d   1      28.628 -13.053   6.622  0.00  0.00     0.007 A 
ATOM     22  C   UNL d   1      28.574 -12.162   5.540  0.00  0.00    -0.054 A 
ATOM     23  C   UNL d   1      28.619 -10.689   5.849  0.00  0.00     0.049 C 
ATOM     24  C   UNL d   1      28.476 -12.652   4.206  0.00  0.00    -0.029 A 
ATOM     25  C   UNL d   1      28.473 -11.638   3.087  0.00  0.00     0.051 C 
ENDBRANCH  15  18
ENDBRANCH   1  14
TORSDOF 4
ENDMDL
MODEL 5
REMARK VINA RESULT:    -7.336      2.489      3.959
REMARK INTER + INTRA:          -9.796
REMARK INTER:                  -8.529
REMARK INTRA:                  -1.267
REMARK CONF_INDEPENDENT:        1.193
REMARK UNBOUND:                -1.267
REMARK  4 active torsions:
REMARK  status: ('A' for Active; 'I' for Inactive)
REMARK    1  A    between atoms: C_6  and  N_7 
REMARK       I    between atoms: N_7  and  C_8 
REMARK    2  A    between atoms: C_10  and  C_8 
REMARK    3  A    between atoms: C_10  and  N_12 
REMARK       I    between atoms: N_12  and  C_13 
REMARK    4  A    between atoms: C_13  and  C_15 
ROOT
ATOM      1  C   UNL d   1      26.346 -14.699  -2.700  0.00  0.00     0.173 C 
ATOM      2  C   UNL d   1      27.713 -15.401  -2.741  0.00  0.00     0.042 C 
ENDROOT
BRANCH   1   3
ATOM      3  N   UNL d   1      25.288 -15.645  -2.312  0.00  0.00    -0.344 N 
ATOM      4  C   UNL d   1      25.324 -16.326  -1.119  0.00  0.00     0.252 C 
ATOM      5  O   UNL d   1      26.249 -16.222  -0.315  0.00  0.00    -0.268 OA
ATOM      6  H   UNL d   1      24.506 -15.770  -2.943  0.00  0.00     0.163 HD
BRANCH   4   7
ATOM      7  C   UNL d   1      24.167 -17.166  -0.764  0.00  0.00     0.032 A 
ATOM      8  C   UNL d   1      22.881 -16.645  -0.892  0.00  0.00     0.018 A 
ATOM      9  C   UNL d   1      21.781 -17.465  -0.645  0.00  0.00     0.025 A 
ATOM     10  C   UNL d   1      21.968 -18.797  -0.269  0.00  0.00     0.034 A 
ATOM     11 CL   UNL d   1      20.599 -19.789   0.049  0.00  0.00    -0.084 Cl
ATOM     12  C   UNL d   1      23.253 -19.327  -0.153  0.00  0.00     0.025 A 
ATOM     13  C   UNL d   1      24.359 -18.511  -0.407  0.00  0.00     0.018 A 
ENDBRANCH   4   7
ENDBRANCH   1   3
BRANCH   1  14
ATOM     14  C   UNL d   1      26.125 -14.080  -4.106  0.00  0.00     0.244 C 
ATOM     15  N   UNL d   1      27.118 -13.218  -4.552  0.00  0.00    -0.325 N 
ATOM     16  H   UNL d   1      27.935 -13.135  -3.950  0.00  0.00     0.169 HD
ATOM     17  O   UNL d   1      25.149 -14.437  -4.767  0.00  0.00    -0.271 OA
BRANCH  15  18
ATOM     18  C   UNL d   1      27.098 -12.444  -5.739  0.00  0.00     0.041 A 
ATOM     19  C   UNL d   1      26.251 -11.331  -5.821  0.00  0.00     0.030 A 
ATOM     20  C   UNL d   1      26.199 -10.519  -6.940  0.00  0.00     0.003 A 
ATOM     21  C   UNL d   1      26.991 -10.815  -8.030  0.00  0.00     0.007 A 
ATOM     22  C   UNL d   1      27.851 -11.923  -8.004  0.00  0.00    -0.054 A 
ATOM     23  C   UNL d   1      28.671 -12.196  -9.238  0.00  0.00     0.049 C 
ATOM     24  C   UNL d   1      27.929 -12.748  -6.846  0.00  0.00    -0.029 A 
ATOM     25  C   UNL d   1      28.913 -13.894  -6.869  0.00  0.00     0.051 C 
ENDBRANCH  15  18
ENDBRANCH   1  14
TORSDOF 4
ENDMDL
MODEL 6
REMARK VINA RESULT:    -6.960      2.179      3.365
REMARK INTER + INTRA:          -9.787
REMARK INTER:                  -8.153
REMARK INTRA:                  -1.634
REMARK CONF_INDEPENDENT:        1.193
REMARK UNBOUND:                -1.634
REMARK  4 active torsions:
REMARK  status: ('A' for Active; 'I' for Inactive)
REMARK    1  A    between atoms: C_6  and  N_7 
REMARK       I    between atoms: N_7  and  C_8 
REMARK    2  A    between atoms: C_10  and  C_8 
REMARK    3  A    between atoms: C_10  and  N_12 
REMARK       I    between atoms: N_12  and  C_13 
REMARK    4  A    between atoms: C_13  and  C_15 
ROOT
ATOM      1  C   UNL d   1      27.985 -16.709  -0.802  0.00  0.00     0.173 C 
ATOM      2  C   UNL d   1      29.081 -17.750  -0.520  0.00  0.00     0.042 C 
ENDROOT
BRANCH   1   3
ATOM      3  N   UNL d   1      26.650 -17.310  -0.668  0.00  0.00    -0.344 N 
ATOM      4  C   UNL d   1      25.510 -16.545  -0.614  0.00  0.00     0.252 C 
ATOM      5  O   UNL d   1      25.526 -15.315  -0.639  0.00  0.00    -0.268 OA
ATOM      6  H   UNL d   1      26.583 -18.320  -0.637  0.00  0.00     0.163 HD
BRANCH   4   7
ATOM      7  C   UNL d   1      24.210 -17.236  -0.594  0.00  0.00     0.032 A 
ATOM      8  C   UNL d   1      23.044 -16.506  -0.822  0.00  0.00     0.018 A 
ATOM      9  C   UNL d   1      21.821 -17.172  -0.895  0.00  0.00     0.025 A 
ATOM     10  C   UNL d   1      21.765 -18.558  -0.735  0.00  0.00     0.034 A 
ATOM     11 CL   UNL d   1      20.245 -19.359  -0.809  0.00  0.00    -0.084 Cl
ATOM     12  C   UNL d   1      22.929 -19.294  -0.520  0.00  0.00     0.025 A 
ATOM     13  C   UNL d   1      24.160 -18.633  -0.454  0.00  0.00     0.018 A 
ENDBRANCH   4   7
ENDBRANCH   1   3
BRANCH   1  14
ATOM     14  C   UNL d   1      28.264 -16.148  -2.222  0.00  0.00     0.244 C 
ATOM     15  N   UNL d   1      27.650 -14.942  -2.530  0.00  0.00    -0.325 N 
ATOM     16  H   UNL d   1      27.140 -14.499  -1.768  0.00  0.00     0.169 HD
ATOM     17  O   UNL d   1      29.056 -16.746  -2.953  0.00  0.00    -0.271 OA
BRANCH  15  18
ATOM     18  C   UNL d   1      27.653 -14.285  -3.785  0.00  0.00     0.041 A 
ATOM     19  C   UNL d   1      28.557 -14.693  -4.774  0.00  0.00     0.030 A 
ATOM     20  C   UNL d   1      28.598 -14.110  -6.029  0.00  0.00     0.003 A 
ATOM     21  C   UNL d   1      27.734 -13.075  -6.324  0.00  0.00     0.007 A 
ATOM     22  C   UNL d   1      26.814 -12.622  -5.366  0.00  0.00    -0.054 A 
ATOM     23  C   UNL d   1      25.918 -11.475  -5.753  0.00  0.00     0.049 C 
ATOM     24  C   UNL d   1      26.749 -13.233  -4.082  0.00  0.00    -0.029 A 
ATOM     25  C   UNL d   1      25.702 -12.728  -3.119  0.00  0.00     0.051 C 
ENDBRANCH  15  18
ENDBRANCH   1  14
TORSDOF 4
ENDMDL
MODEL 7
REMARK VINA RESULT:    -6.924      4.786      8.994
REMARK INTER + INTRA:          -9.819
REMARK INTER:                  -8.117
REMARK INTRA:                  -1.702
REMARK CONF_INDEPENDENT:        1.193
REMARK UNBOUND:                -1.702
REMARK  4 active torsions:
REMARK  status: ('A' for Active; 'I' for Inactive)
REMARK    1  A    between atoms: C_6  and  N_7 
REMARK       I    between atoms: N_7  and  C_8 
REMARK    2  A    between atoms: C_10  and  C_8 
REMARK    3  A    between atoms: C_10  and  N_12 
REMARK       I    between atoms: N_12  and  C_13 
REMARK    4  A    between atoms: C_13  and  C_15 
ROOT
ATOM      1  C   UNL d   1      26.383 -13.205  -3.743  0.00  0.00     0.173 C 
ATOM      2  C   UNL d   1      25.146 -13.386  -4.638  0.00  0.00     0.042 C 
ENDROOT
BRANCH   1   3
ATOM      3  N   UNL d   1      27.607 -13.579  -4.467  0.00  0.00    -0.344 N 
ATOM      4  C   UNL d   1      27.704 -14.753  -5.174  0.00  0.00     0.252 C 
ATOM      5  O   UNL d   1      26.796 -15.582  -5.225  0.00  0.00    -0.268 OA
ATOM      6  H   UNL d   1      28.386 -12.932  -4.451  0.00  0.00     0.163 HD
BRANCH   4   7
ATOM      7  C   UNL d   1      28.927 -14.992  -5.959  0.00  0.00     0.032 A 
ATOM      8  C   UNL d   1      29.435 -13.970  -6.760  0.00  0.00     0.018 A 
ATOM      9  C   UNL d   1      30.642 -14.160  -7.432  0.00  0.00     0.025 A 
ATOM     10  C   UNL d   1      31.332 -15.368  -7.308  0.00  0.00     0.034 A 
ATOM     11 CL   UNL d   1      32.810 -15.591  -8.159  0.00  0.00    -0.084 Cl
ATOM     12  C   UNL d   1      30.835 -16.388  -6.497  0.00  0.00     0.025 A 
ATOM     13  C   UNL d   1      29.630 -16.199  -5.814  0.00  0.00     0.018 A 
ENDBRANCH   4   7
ENDBRANCH   1   3
BRANCH   1  14
ATOM     14  C   UNL d   1      26.138 -14.063  -2.473  0.00  0.00     0.244 C 
ATOM     15  N   UNL d   1      25.681 -15.355  -2.692  0.00  0.00    -0.325 N 
ATOM     16  H   UNL d   1      25.626 -15.645  -3.666  0.00  0.00     0.169 HD
ATOM     17  O   UNL d   1      26.429 -13.592  -1.372  0.00  0.00    -0.271 OA
BRANCH  15  18
ATOM     18  C   UNL d   1      25.278 -16.290  -1.706  0.00  0.00     0.041 A 
ATOM     19  C   UNL d   1      23.918 -16.599  -1.566  0.00  0.00     0.030 A 
ATOM     20  C   UNL d   1      23.458 -17.520  -0.640  0.00  0.00     0.003 A 
ATOM     21  C   UNL d   1      24.359 -18.149   0.195  0.00  0.00     0.007 A 
ATOM     22  C   UNL d   1      25.730 -17.869   0.102  0.00  0.00    -0.054 A 
ATOM     23  C   UNL d   1      26.650 -18.580   1.060  0.00  0.00     0.049 C 
ATOM     24  C   UNL d   1      26.214 -16.943  -0.865  0.00  0.00    -0.029 A 
ATOM     25  C   UNL d   1      27.706 -16.728  -0.943  0.00  0.00     0.051 C 
ENDBRANCH  15  18
ENDBRANCH   1  14
TORSDOF 4
ENDMDL
MODEL 8
REMARK VINA RESULT:    -6.901      4.246      5.637
REMARK INTER + INTRA:          -9.692
REMARK INTER:                  -8.094
REMARK INTRA:                  -1.598
REMARK CONF_INDEPENDENT:        1.193
REMARK UNBOUND:                -1.598
REMARK  4 active torsions:
REMARK  status: ('A' for Active; 'I' for Inactive)
REMARK    1  A    between atoms: C_6  and  N_7 
REMARK       I    between atoms: N_7  and  C_8 
REMARK    2  A    between atoms: C_10  and  C_8 
REMARK    3  A    between atoms: C_10  and  N_12 
REMARK       I    between atoms: N_12  and  C_13 
REMARK    4  A    between atoms: C_13  and  C_15 
ROOT
ATOM      1  C   UNL d   1      28.325 -16.727  -0.576  0.00  0.00     0.173 C 
ATOM      2  C   UNL d   1      28.461 -15.976  -1.911  0.00  0.00     0.042 C 
ENDROOT
BRANCH   1   3
ATOM      3  N   UNL d   1      26.978 -17.299  -0.436  0.00  0.00    -0.344 N 
ATOM      4  C   UNL d   1      25.846 -16.525  -0.527  0.00  0.00     0.252 C 
ATOM      5  O   UNL d   1      25.879 -15.307  -0.696  0.00  0.00    -0.268 OA
ATOM      6  H   UNL d   1      26.898 -18.298  -0.290  0.00  0.00     0.163 HD
BRANCH   4   7
ATOM      7  C   UNL d   1      24.538 -17.200  -0.487  0.00  0.00     0.032 A 
ATOM      8  C   UNL d   1      23.391 -16.488  -0.835  0.00  0.00     0.018 A 
ATOM      9  C   UNL d   1      22.163 -17.148  -0.888  0.00  0.00     0.025 A 
ATOM     10  C   UNL d   1      22.085 -18.510  -0.588  0.00  0.00     0.034 A 
ATOM     11 CL   UNL d   1      20.559 -19.302  -0.639  0.00  0.00    -0.084 Cl
ATOM     12  C   UNL d   1      23.231 -19.229  -0.252  0.00  0.00     0.025 A 
ATOM     13  C   UNL d   1      24.466 -18.574  -0.206  0.00  0.00     0.018 A 
ENDBRANCH   4   7
ENDBRANCH   1   3
BRANCH   1  14
ATOM     14  C   UNL d   1      28.676 -15.708   0.541  0.00  0.00     0.244 C 
ATOM     15  N   UNL d   1      27.637 -15.361   1.394  0.00  0.00    -0.325 N 
ATOM     16  H   UNL d   1      26.764 -15.866   1.255  0.00  0.00     0.169 HD
ATOM     17  O   UNL d   1      29.843 -15.333   0.659  0.00  0.00    -0.271 OA
BRANCH  15  18
ATOM     18  C   UNL d   1      27.669 -14.376   2.412  0.00  0.00     0.041 A 
ATOM     19  C   UNL d   1      28.024 -14.745   3.716  0.00  0.00     0.030 A 
ATOM     20  C   UNL d   1      28.098 -13.831   4.752  0.00  0.00     0.003 A 
ATOM     21  C   UNL d   1      27.794 -12.507   4.510  0.00  0.00     0.007 A 
ATOM     22  C   UNL d   1      27.424 -12.085   3.225  0.00  0.00    -0.054 A 
ATOM     23  C   UNL d   1      27.087 -10.629   3.041  0.00  0.00     0.049 C 
ATOM     24  C   UNL d   1      27.371 -13.016   2.148  0.00  0.00    -0.029 A 
ATOM     25  C   UNL d   1      27.014 -12.483   0.781  0.00  0.00     0.051 C 
ENDBRANCH  15  18
ENDBRANCH   1  14
TORSDOF 4
ENDMDL
MODEL 9
REMARK VINA RESULT:    -6.824      2.371      3.503
REMARK INTER + INTRA:          -9.642
REMARK INTER:                  -8.017
REMARK INTRA:                  -1.625
REMARK CONF_INDEPENDENT:        1.193
REMARK UNBOUND:                -1.625
REMARK  4 active torsions:
REMARK  status: ('A' for Active; 'I' for Inactive)
REMARK    1  A    between atoms: C_6  and  N_7 
REMARK       I    between atoms: N_7  and  C_8 
REMARK    2  A    between atoms: C_10  and  C_8 
REMARK    3  A    between atoms: C_10  and  N_12 
REMARK       I    between atoms: N_12  and  C_13 
REMARK    4  A    between atoms: C_13  and  C_15 
ROOT
ATOM      1  C   UNL d   1      27.200 -14.738  -0.072  0.00  0.00     0.173 C 
ATOM      2  C   UNL d   1      28.197 -15.624   0.693  0.00  0.00     0.042 C 
ENDROOT
BRANCH   1   3
ATOM      3  N   UNL d   1      25.896 -15.407  -0.194  0.00  0.00    -0.344 N 
ATOM      4  C   UNL d   1      25.785 -16.716  -0.599  0.00  0.00     0.252 C 
ATOM      5  O   UNL d   1      26.755 -17.404  -0.917  0.00  0.00    -0.268 OA
ATOM      6  H   UNL d   1      25.066 -14.882   0.051  0.00  0.00     0.163 HD
BRANCH   4   7
ATOM      7  C   UNL d   1      24.451 -17.337  -0.584  0.00  0.00     0.032 A 
ATOM      8  C   UNL d   1      23.327 -16.546  -0.817  0.00  0.00     0.018 A 
ATOM      9  C   UNL d   1      22.070 -17.145  -0.895  0.00  0.00     0.025 A 
ATOM     10  C   UNL d   1      21.939 -18.527  -0.735  0.00  0.00     0.034 A 
ATOM     11 CL   UNL d   1      20.379 -19.245  -0.817  0.00  0.00    -0.084 Cl
ATOM     12  C   UNL d   1      23.062 -19.324  -0.516  0.00  0.00     0.025 A 
ATOM     13  C   UNL d   1      24.326 -18.729  -0.445  0.00  0.00     0.018 A 
ENDBRANCH   4   7
ENDBRANCH   1   3
BRANCH   1  14
ATOM     14  C   UNL d   1      27.854 -14.419  -1.444  0.00  0.00     0.244 C 
ATOM     15  N   UNL d   1      27.387 -15.156  -2.524  0.00  0.00    -0.325 N 
ATOM     16  H   UNL d   1      26.606 -15.779  -2.330  0.00  0.00     0.169 HD
ATOM     17  O   UNL d   1      28.671 -13.500  -1.513  0.00  0.00    -0.271 OA
BRANCH  15  18
ATOM     18  C   UNL d   1      27.896 -15.135  -3.846  0.00  0.00     0.041 A 
ATOM     19  C   UNL d   1      27.318 -14.279  -4.793  0.00  0.00     0.030 A 
ATOM     20  C   UNL d   1      27.780 -14.191  -6.094  0.00  0.00     0.003 A 
ATOM     21  C   UNL d   1      28.835 -14.986  -6.494  0.00  0.00     0.007 A 
ATOM     22  C   UNL d   1      29.444 -15.868  -5.589  0.00  0.00    -0.054 A 
ATOM     23  C   UNL d   1      30.576 -16.718  -6.101  0.00  0.00     0.049 C 
ATOM     24  C   UNL d   1      28.991 -15.944  -4.241  0.00  0.00    -0.029 A 
ATOM     25  C   UNL d   1      29.725 -16.878  -3.308  0.00  0.00     0.051 C 
ENDBRANCH  15  18
ENDBRANCH   1  14
TORSDOF 4
ENDMDL
