MODEL 1
REMARK VINA RESULT:   -11.055      0.000      0.000
REMARK INTER + INTRA:         -14.304
REMARK INTER:                 -12.547
REMARK INTRA:                  -1.757
REMARK CONF_INDEPENDENT:        1.492
REMARK UNBOUND:                -1.757
REMARK  5 active torsions:
REMARK  status: ('A' for Active; 'I' for Inactive)
REMARK    1  A    between atoms: C_5  and  N_6 
REMARK       I    between atoms: N_6  and  C_7 
REMARK       I    between atoms: C_7  and  N_9 
REMARK    2  A    between atoms: N_9  and  C_10 
REMARK    3  A    between atoms: C_12  and  N_13 
REMARK       I    between atoms: N_13  and  C_14 
REMARK    4  A    between atoms: C_14  and  C_16 
REMARK    5  A    between atoms: C_25  and  N_26 
ROOT
ATOM      1  C   UNL d   1      24.707 -15.949  -1.578  0.00  0.00     0.065 A 
ATOM      2  C   UNL d   1      23.640 -16.858  -1.271  0.00  0.00     0.061 A 
ATOM      3  C   UNL d   1      23.847 -17.979  -0.425  0.00  0.00     0.037 A 
ATOM      4  C   UNL d   1      25.150 -18.242  -0.019  0.00  0.00     0.032 A 
ATOM      5  C   UNL d   1      26.189 -17.369  -0.307  0.00  0.00     0.034 A 
ATOM      6  C   UNL d   1      26.007 -16.202  -1.056  0.00  0.00     0.057 A 
ENDROOT
BRANCH   1   7
ATOM      7  N   UNL d   1      24.460 -14.774  -2.395  0.00  0.00    -0.306 N 
ATOM      8  C   UNL d   1      25.253 -14.538  -3.519  0.00  0.00     0.325 C 
ATOM      9  N   UNL d   1      25.163 -13.260  -4.091  0.00  0.00    -0.309 N 
ATOM     10  O   UNL d   1      26.002 -15.413  -3.955  0.00  0.00    -0.247 OA
ATOM     11  H   UNL d   1      24.408 -12.650  -3.811  0.00  0.00     0.170 HD
ATOM     12  H   UNL d   1      23.544 -14.356  -2.346  0.00  0.00     0.170 HD
BRANCH   9  13
ATOM     13  C   UNL d   1      26.083 -12.765  -5.101  0.00  0.00     0.038 A 
ATOM     14  C   UNL d   1      25.876 -11.542  -5.760  0.00  0.00     0.030 A 
ATOM     15  C   UNL d   1      26.698 -11.063  -6.782  0.00  0.00     0.011 A 
ATOM     16  C   UNL d   1      27.824 -11.774  -7.168  0.00  0.00    -0.040 A 
ATOM     17  C   UNL d   1      28.717 -11.179  -8.220  0.00  0.00     0.050 C 
ATOM     18  C   UNL d   1      28.062 -13.002  -6.527  0.00  0.00     0.042 A 
ATOM     19  C   UNL d   1      27.194 -13.506  -5.520  0.00  0.00     0.054 A 
ATOM     20 CL   UNL d   1      29.454 -13.939  -6.955  0.00  0.00    -0.084 Cl
ENDBRANCH   9  13
ENDBRANCH   1   7
BRANCH   6  21
ATOM     21  N   UNL d   1      27.120 -15.393  -1.160  0.00  0.00    -0.379 N 
ATOM     22  C   UNL d   1      27.193 -13.993  -0.800  0.00  0.00     0.123 C 
ATOM     23  C   UNL d   1      27.998 -13.373  -1.926  0.00  0.00     0.021 C 
ATOM     24  C   UNL d   1      28.930 -14.479  -2.391  0.00  0.00     0.021 C 
ATOM     25  C   UNL d   1      28.203 -15.786  -2.062  0.00  0.00     0.123 C 
ENDBRANCH   6  21
BRANCH   3  26
ATOM     26  N   UNL d   1      22.771 -18.797   0.059  0.00  0.00    -0.323 N 
ATOM     27  C   UNL d   1      21.418 -18.587  -0.245  0.00  0.00     0.256 C 
ATOM     28  O   UNL d   1      20.940 -17.665  -0.917  0.00  0.00    -0.267 OA
ATOM     29  H   UNL d   1      23.023 -19.664   0.517  0.00  0.00     0.169 HD
BRANCH  27  30
ATOM     30  C   UNL d   1      20.402 -19.533   0.274  0.00  0.00     0.032 A 
ATOM     31  C   UNL d   1      19.431 -20.049  -0.612  0.00  0.00     0.020 A 
ATOM     32  C   UNL d   1      18.313 -20.724  -0.118  0.00  0.00     0.043 A 
ATOM     33  C   UNL d   1      18.204 -20.936   1.250  0.00  0.00     0.116 A 
ATOM     34  F   UNL d   1      17.157 -21.621   1.730  0.00  0.00    -0.206 F 
ATOM     35  C   UNL d   1      19.165 -20.447   2.132  0.00  0.00     0.043 A 
ATOM     36  C   UNL d   1      20.265 -19.735   1.648  0.00  0.00     0.020 A 
ENDBRANCH  27  30
ENDBRANCH   3  26
TORSDOF 5
ENDMDL
MODEL 2
REMARK VINA RESULT:   -10.161      2.727      4.820
REMARK INTER + INTRA:         -12.557
REMARK INTER:                 -11.652
REMARK INTRA:                  -0.905
REMARK CONF_INDEPENDENT:        1.492
REMARK UNBOUND:                -0.905
REMARK  5 active torsions:
REMARK  status: ('A' for Active; 'I' for Inactive)
REMARK    1  A    between atoms: C_5  and  N_6 
REMARK       I    between atoms: N_6  and  C_7 
REMARK       I    between atoms: C_7  and  N_9 
REMARK    2  A    between atoms: N_9  and  C_10 
REMARK    3  A    between atoms: C_12  and  N_13 
REMARK       I    between atoms: N_13  and  C_14 
REMARK    4  A    between atoms: C_14  and  C_16 
REMARK    5  A    between atoms: C_25  and  N_26 
ROOT
ATOM      1  C   UNL d   1      25.900 -17.006  -0.350  0.00  0.00     0.065 A 
ATOM      2  C   UNL d   1      24.871 -17.807   0.247  0.00  0.00     0.061 A 
ATOM      3  C   UNL d   1      23.516 -17.690  -0.162  0.00  0.00     0.037 A 
ATOM      4  C   UNL d   1      23.204 -16.677  -1.059  0.00  0.00     0.032 A 
ATOM      5  C   UNL d   1      24.191 -15.898  -1.645  0.00  0.00     0.034 A 
ATOM      6  C   UNL d   1      25.548 -16.047  -1.341  0.00  0.00     0.057 A 
ENDROOT
BRANCH   1   7
ATOM      7  N   UNL d   1      27.289 -17.183   0.039  0.00  0.00    -0.306 N 
ATOM      8  C   UNL d   1      28.267 -17.322  -0.947  0.00  0.00     0.325 C 
ATOM      9  N   UNL d   1      29.524 -17.777  -0.520  0.00  0.00    -0.309 N 
ATOM     10  O   UNL d   1      28.011 -17.075  -2.125  0.00  0.00    -0.247 OA
ATOM     11  H   UNL d   1      29.732 -17.788   0.468  0.00  0.00     0.170 HD
ATOM     12  H   UNL d   1      27.560 -16.867   0.957  0.00  0.00     0.170 HD
BRANCH   9  13
ATOM     13  C   UNL d   1      30.573 -18.208  -1.428  0.00  0.00     0.038 A 
ATOM     14  C   UNL d   1      31.776 -18.766  -0.965  0.00  0.00     0.030 A 
ATOM     15  C   UNL d   1      32.834 -19.131  -1.799  0.00  0.00     0.011 A 
ATOM     16  C   UNL d   1      32.719 -19.002  -3.175  0.00  0.00    -0.040 A 
ATOM     17  C   UNL d   1      33.857 -19.479  -4.033  0.00  0.00     0.050 C 
ATOM     18  C   UNL d   1      31.527 -18.449  -3.673  0.00  0.00     0.042 A 
ATOM     19  C   UNL d   1      30.472 -18.036  -2.814  0.00  0.00     0.054 A 
ATOM     20 CL   UNL d   1      31.313 -18.266  -5.383  0.00  0.00    -0.084 Cl
ENDBRANCH   9  13
ENDBRANCH   1   7
BRANCH   6  21
ATOM     21  N   UNL d   1      26.406 -15.268  -2.090  0.00  0.00    -0.379 N 
ATOM     22  C   UNL d   1      27.227 -14.185  -1.594  0.00  0.00     0.123 C 
ATOM     23  C   UNL d   1      27.090 -13.112  -2.656  0.00  0.00     0.021 C 
ATOM     24  C   UNL d   1      26.876 -13.875  -3.952  0.00  0.00     0.021 C 
ATOM     25  C   UNL d   1      26.220 -15.197  -3.540  0.00  0.00     0.123 C 
ENDBRANCH   6  21
BRANCH   3  26
ATOM     26  N   UNL d   1      22.493 -18.601   0.269  0.00  0.00    -0.323 N 
ATOM     27  C   UNL d   1      21.173 -18.592  -0.204  0.00  0.00     0.256 C 
ATOM     28  O   UNL d   1      20.675 -17.793  -1.007  0.00  0.00    -0.267 OA
ATOM     29  H   UNL d   1      22.788 -19.391   0.830  0.00  0.00     0.169 HD
BRANCH  27  30
ATOM     30  C   UNL d   1      20.221 -19.618   0.281  0.00  0.00     0.032 A 
ATOM     31  C   UNL d   1      19.199 -20.066  -0.584  0.00  0.00     0.020 A 
ATOM     32  C   UNL d   1      18.136 -20.825  -0.088  0.00  0.00     0.043 A 
ATOM     33  C   UNL d   1      18.135 -21.186   1.253  0.00  0.00     0.116 A 
ATOM     34  F   UNL d   1      17.143 -21.950   1.730  0.00  0.00    -0.206 F 
ATOM     35  C   UNL d   1      19.148 -20.765   2.113  0.00  0.00     0.043 A 
ATOM     36  C   UNL d   1      20.191 -19.970   1.631  0.00  0.00     0.020 A 
ENDBRANCH  27  30
ENDBRANCH   3  26
TORSDOF 5
ENDMDL
MODEL 3
REMARK VINA RESULT:   -10.010      2.038      2.596
REMARK INTER + INTRA:         -12.840
REMARK INTER:                 -11.502
REMARK INTRA:                  -1.338
REMARK CONF_INDEPENDENT:        1.492
REMARK UNBOUND:                -1.338
REMARK  5 active torsions:
REMARK  status: ('A' for Active; 'I' for Inactive)
REMARK    1  A    between atoms: C_5  and  N_6 
REMARK       I    between atoms: N_6  and  C_7 
REMARK       I    between atoms: C_7  and  N_9 
REMARK    2  A    between atoms: N_9  and  C_10 
REMARK    3  A    between atoms: C_12  and  N_13 
REMARK       I    between atoms: N_13  and  C_14 
REMARK    4  A    between atoms: C_14  and  C_16 
REMARK    5  A    between atoms: C_25  and  N_26 
ROOT
ATOM      1  C   UNL d   1      25.581 -16.559  -1.923  0.00  0.00     0.065 A 
ATOM      2  C   UNL d   1      24.314 -17.129  -1.565  0.00  0.00     0.061 A 
ATOM      3  C   UNL d   1      24.133 -17.803  -0.328  0.00  0.00     0.037 A 
ATOM      4  C   UNL d   1      25.259 -18.011   0.458  0.00  0.00     0.032 A 
ATOM      5  C   UNL d   1      26.488 -17.462   0.123  0.00  0.00     0.034 A 
ATOM      6  C   UNL d   1      26.686 -16.709  -1.038  0.00  0.00     0.057 A 
ENDROOT
BRANCH   1   7
ATOM      7  N   UNL d   1      25.730 -15.820  -3.165  0.00  0.00    -0.306 N 
ATOM      8  C   UNL d   1      25.975 -14.447  -3.123  0.00  0.00     0.325 C 
ATOM      9  N   UNL d   1      25.820 -13.748  -4.331  0.00  0.00    -0.309 N 
ATOM     10  O   UNL d   1      26.287 -13.896  -2.068  0.00  0.00    -0.247 OA
ATOM     11  H   UNL d   1      25.745 -14.269  -5.193  0.00  0.00     0.170 HD
ATOM     12  H   UNL d   1      25.993 -16.340  -3.987  0.00  0.00     0.170 HD
BRANCH   9  13
ATOM     13  C   UNL d   1      25.795 -12.298  -4.421  0.00  0.00     0.038 A 
ATOM     14  C   UNL d   1      25.582 -11.632  -5.639  0.00  0.00     0.030 A 
ATOM     15  C   UNL d   1      25.616 -10.244  -5.782  0.00  0.00     0.011 A 
ATOM     16  C   UNL d   1      25.816  -9.431  -4.676  0.00  0.00    -0.040 A 
ATOM     17  C   UNL d   1      25.770  -7.941  -4.869  0.00  0.00     0.050 C 
ATOM     18  C   UNL d   1      26.030 -10.064  -3.440  0.00  0.00     0.042 A 
ATOM     19  C   UNL d   1      26.041 -11.480  -3.312  0.00  0.00     0.054 A 
ATOM     20 CL   UNL d   1      26.280  -9.109  -2.017  0.00  0.00    -0.084 Cl
ENDBRANCH   9  13
ENDBRANCH   1   7
BRANCH   6  21
ATOM     21  N   UNL d   1      27.940 -16.148  -1.167  0.00  0.00    -0.379 N 
ATOM     22  C   UNL d   1      28.857 -16.351  -2.268  0.00  0.00     0.123 C 
ATOM     23  C   UNL d   1      30.204 -16.509  -1.592  0.00  0.00     0.021 C 
ATOM     24  C   UNL d   1      30.107 -15.663  -0.333  0.00  0.00     0.021 C 
ATOM     25  C   UNL d   1      28.619 -15.642   0.027  0.00  0.00     0.123 C 
ENDBRANCH   6  21
BRANCH   3  26
ATOM     26  N   UNL d   1      22.843 -18.216   0.150  0.00  0.00    -0.323 N 
ATOM     27  C   UNL d   1      21.905 -18.924  -0.614  0.00  0.00     0.256 C 
ATOM     28  O   UNL d   1      22.008 -19.256  -1.801  0.00  0.00    -0.267 OA
ATOM     29  H   UNL d   1      22.671 -18.124   1.144  0.00  0.00     0.169 HD
BRANCH  27  30
ATOM     30  C   UNL d   1      20.626 -19.339   0.009  0.00  0.00     0.032 A 
ATOM     31  C   UNL d   1      20.586 -19.570   1.402  0.00  0.00     0.020 A 
ATOM     32  C   UNL d   1      19.487 -20.208   1.980  0.00  0.00     0.043 A 
ATOM     33  C   UNL d   1      18.408 -20.552   1.177  0.00  0.00     0.116 A 
ATOM     34  F   UNL d   1      17.330 -21.125   1.729  0.00  0.00    -0.206 F 
ATOM     35  C   UNL d   1      18.428 -20.313  -0.196  0.00  0.00     0.043 A 
ATOM     36  C   UNL d   1      19.543 -19.713  -0.787  0.00  0.00     0.020 A 
ENDBRANCH  27  30
ENDBRANCH   3  26
TORSDOF 5
ENDMDL
MODEL 4
REMARK VINA RESULT:    -9.757      3.477      5.460
REMARK INTER + INTRA:         -12.643
REMARK INTER:                 -11.248
REMARK INTRA:                  -1.395
REMARK CONF_INDEPENDENT:        1.492
REMARK UNBOUND:                -1.395
REMARK  5 active torsions:
REMARK  status: ('A' for Active; 'I' for Inactive)
REMARK    1  A    between atoms: C_5  and  N_6 
REMARK       I    between atoms: N_6  and  C_7 
REMARK       I    between atoms: C_7  and  N_9 
REMARK    2  A    between atoms: N_9  and  C_10 
REMARK    3  A    between atoms: C_12  and  N_13 
REMARK       I    between atoms: N_13  and  C_14 
REMARK    4  A    between atoms: C_14  and  C_16 
REMARK    5  A    between atoms: C_25  and  N_26 
ROOT
ATOM      1  C   UNL d   1      26.354 -16.752  -0.265  0.00  0.00     0.065 A 
ATOM      2  C   UNL d   1      25.210 -17.409   0.298  0.00  0.00     0.061 A 
ATOM      3  C   UNL d   1      24.097 -17.770  -0.506  0.00  0.00     0.037 A 
ATOM      4  C   UNL d   1      24.096 -17.341  -1.827  0.00  0.00     0.032 A 
ATOM      5  C   UNL d   1      25.198 -16.708  -2.384  0.00  0.00     0.034 A 
ATOM      6  C   UNL d   1      26.353 -16.421  -1.650  0.00  0.00     0.057 A 
ENDROOT
BRANCH   1   7
ATOM      7  N   UNL d   1      27.508 -16.445   0.562  0.00  0.00    -0.306 N 
ATOM      8  C   UNL d   1      27.617 -15.185   1.151  0.00  0.00     0.325 C 
ATOM      9  N   UNL d   1      28.871 -14.852   1.686  0.00  0.00    -0.309 N 
ATOM     10  O   UNL d   1      26.658 -14.413   1.167  0.00  0.00    -0.247 OA
ATOM     11  H   UNL d   1      29.560 -15.580   1.810  0.00  0.00     0.170 HD
ATOM     12  H   UNL d   1      28.010 -17.220   0.966  0.00  0.00     0.170 HD
BRANCH   9  13
ATOM     13  C   UNL d   1      29.232 -13.511   2.112  0.00  0.00     0.038 A 
ATOM     14  C   UNL d   1      30.409 -12.882   1.673  0.00  0.00     0.030 A 
ATOM     15  C   UNL d   1      30.825 -11.623   2.109  0.00  0.00     0.011 A 
ATOM     16  C   UNL d   1      30.040 -10.890   2.986  0.00  0.00    -0.040 A 
ATOM     17  C   UNL d   1      30.495  -9.509   3.367  0.00  0.00     0.050 C 
ATOM     18  C   UNL d   1      28.854 -11.489   3.445  0.00  0.00     0.042 A 
ATOM     19  C   UNL d   1      28.460 -12.791   3.033  0.00  0.00     0.054 A 
ATOM     20 CL   UNL d   1      27.823 -10.626   4.537  0.00  0.00    -0.084 Cl
ENDBRANCH   9  13
ENDBRANCH   1   7
BRANCH   6  21
ATOM     21  N   UNL d   1      27.394 -15.885  -2.380  0.00  0.00    -0.379 N 
ATOM     22  C   UNL d   1      27.276 -14.925  -3.456  0.00  0.00     0.123 C 
ATOM     23  C   UNL d   1      28.257 -15.425  -4.497  0.00  0.00     0.021 C 
ATOM     24  C   UNL d   1      29.354 -16.109  -3.697  0.00  0.00     0.021 C 
ATOM     25  C   UNL d   1      28.678 -16.587  -2.409  0.00  0.00     0.123 C 
ENDBRANCH   6  21
BRANCH   3  26
ATOM     26  N   UNL d   1      23.025 -18.594  -0.023  0.00  0.00    -0.323 N 
ATOM     27  C   UNL d   1      21.669 -18.375  -0.304  0.00  0.00     0.256 C 
ATOM     28  O   UNL d   1      21.184 -17.439  -0.952  0.00  0.00    -0.267 OA
ATOM     29  H   UNL d   1      23.280 -19.471   0.415  0.00  0.00     0.169 HD
BRANCH  27  30
ATOM     30  C   UNL d   1      20.657 -19.327   0.211  0.00  0.00     0.032 A 
ATOM     31  C   UNL d   1      19.629 -19.767  -0.651  0.00  0.00     0.020 A 
ATOM     32  C   UNL d   1      18.521 -20.446  -0.140  0.00  0.00     0.043 A 
ATOM     33  C   UNL d   1      18.477 -20.739   1.217  0.00  0.00     0.116 A 
ATOM     34  F   UNL d   1      17.439 -21.428   1.710  0.00  0.00    -0.206 F 
ATOM     35  C   UNL d   1      19.494 -20.326   2.075  0.00  0.00     0.043 A 
ATOM     36  C   UNL d   1      20.585 -19.610   1.576  0.00  0.00     0.020 A 
ENDBRANCH  27  30
ENDBRANCH   3  26
TORSDOF 5
ENDMDL
MODEL 5
REMARK VINA RESULT:    -9.756      3.103      5.034
REMARK INTER + INTRA:         -12.605
REMARK INTER:                 -11.248
REMARK INTRA:                  -1.357
REMARK CONF_INDEPENDENT:        1.492
REMARK UNBOUND:                -1.357
REMARK  5 active torsions:
REMARK  status: ('A' for Active; 'I' for Inactive)
REMARK    1  A    between atoms: C_5  and  N_6 
REMARK       I    between atoms: N_6  and  C_7 
REMARK       I    between atoms: C_7  and  N_9 
REMARK    2  A    between atoms: N_9  and  C_10 
REMARK    3  A    between atoms: C_12  and  N_13 
REMARK       I    between atoms: N_13  and  C_14 
REMARK    4  A    between atoms: C_14  and  C_16 
REMARK    5  A    between atoms: C_25  and  N_26 
ROOT
ATOM      1  C   UNL d   1      26.218 -17.304  -0.478  0.00  0.00     0.065 A 
ATOM      2  C   UNL d   1      25.150 -18.030   0.148  0.00  0.00     0.061 A 
ATOM      3  C   UNL d   1      23.795 -17.799  -0.207  0.00  0.00     0.037 A 
ATOM      4  C   UNL d   1      23.532 -16.750  -1.079  0.00  0.00     0.032 A 
ATOM      5  C   UNL d   1      24.556 -16.044  -1.693  0.00  0.00     0.034 A 
ATOM      6  C   UNL d   1      25.907 -16.305  -1.444  0.00  0.00     0.057 A 
ENDROOT
BRANCH   1   7
ATOM      7  N   UNL d   1      27.601 -17.598  -0.146  0.00  0.00    -0.306 N 
ATOM      8  C   UNL d   1      28.461 -16.556   0.206  0.00  0.00     0.325 C 
ATOM      9  N   UNL d   1      29.831 -16.858   0.230  0.00  0.00    -0.309 N 
ATOM     10  O   UNL d   1      28.020 -15.435   0.456  0.00  0.00    -0.247 OA
ATOM     11  H   UNL d   1      30.121 -17.825   0.198  0.00  0.00     0.170 HD
ATOM     12  H   UNL d   1      27.819 -18.535   0.154  0.00  0.00     0.170 HD
BRANCH   9  13
ATOM     13  C   UNL d   1      30.873 -15.851   0.334  0.00  0.00     0.038 A 
ATOM     14  C   UNL d   1      30.841 -14.666  -0.421  0.00  0.00     0.030 A 
ATOM     15  C   UNL d   1      31.853 -13.705  -0.401  0.00  0.00     0.011 A 
ATOM     16  C   UNL d   1      32.948 -13.858   0.435  0.00  0.00    -0.040 A 
ATOM     17  C   UNL d   1      33.973 -12.760   0.476  0.00  0.00     0.050 C 
ATOM     18  C   UNL d   1      33.012 -15.032   1.206  0.00  0.00     0.042 A 
ATOM     19  C   UNL d   1      32.000 -16.029   1.145  0.00  0.00     0.054 A 
ATOM     20 CL   UNL d   1      34.350 -15.285   2.277  0.00  0.00    -0.084 Cl
ENDBRANCH   9  13
ENDBRANCH   1   7
BRANCH   6  21
ATOM     21  N   UNL d   1      26.796 -15.585  -2.216  0.00  0.00    -0.379 N 
ATOM     22  C   UNL d   1      26.521 -14.335  -2.890  0.00  0.00     0.123 C 
ATOM     23  C   UNL d   1      27.186 -14.502  -4.243  0.00  0.00     0.021 C 
ATOM     24  C   UNL d   1      28.369 -15.418  -3.982  0.00  0.00     0.021 C 
ATOM     25  C   UNL d   1      27.968 -16.264  -2.770  0.00  0.00     0.123 C 
ENDBRANCH   6  21
BRANCH   3  26
ATOM     26  N   UNL d   1      22.719 -18.632   0.252  0.00  0.00    -0.323 N 
ATOM     27  C   UNL d   1      21.411 -18.584  -0.250  0.00  0.00     0.256 C 
ATOM     28  O   UNL d   1      20.969 -17.809  -1.107  0.00  0.00    -0.267 OA
ATOM     29  H   UNL d   1      22.963 -19.402   0.863  0.00  0.00     0.169 HD
BRANCH  27  30
ATOM     30  C   UNL d   1      20.399 -19.533   0.271  0.00  0.00     0.032 A 
ATOM     31  C   UNL d   1      19.430 -20.054  -0.614  0.00  0.00     0.020 A 
ATOM     32  C   UNL d   1      18.314 -20.733  -0.120  0.00  0.00     0.043 A 
ATOM     33  C   UNL d   1      18.206 -20.944   1.249  0.00  0.00     0.116 A 
ATOM     34  F   UNL d   1      17.162 -21.632   1.730  0.00  0.00    -0.206 F 
ATOM     35  C   UNL d   1      19.165 -20.450   2.131  0.00  0.00     0.043 A 
ATOM     36  C   UNL d   1      20.262 -19.733   1.645  0.00  0.00     0.020 A 
ENDBRANCH  27  30
ENDBRANCH   3  26
TORSDOF 5
ENDMDL
MODEL 6
REMARK VINA RESULT:    -9.076      5.161     10.354
REMARK INTER + INTRA:         -11.980
REMARK INTER:                 -10.568
REMARK INTRA:                  -1.412
REMARK CONF_INDEPENDENT:        1.492
REMARK UNBOUND:                -1.412
REMARK  5 active torsions:
REMARK  status: ('A' for Active; 'I' for Inactive)
REMARK    1  A    between atoms: C_5  and  N_6 
REMARK       I    between atoms: N_6  and  C_7 
REMARK       I    between atoms: C_7  and  N_9 
REMARK    2  A    between atoms: N_9  and  C_10 
REMARK    3  A    between atoms: C_12  and  N_13 
REMARK       I    between atoms: N_13  and  C_14 
REMARK    4  A    between atoms: C_14  and  C_16 
REMARK    5  A    between atoms: C_25  and  N_26 
ROOT
ATOM      1  C   UNL d   1      27.056 -15.628  -1.440  0.00  0.00     0.065 A 
ATOM      2  C   UNL d   1      27.748 -14.910  -2.471  0.00  0.00     0.061 A 
ATOM      3  C   UNL d   1      27.116 -14.599  -3.704  0.00  0.00     0.037 A 
ATOM      4  C   UNL d   1      25.855 -15.134  -3.929  0.00  0.00     0.032 A 
ATOM      5  C   UNL d   1      25.174 -15.827  -2.938  0.00  0.00     0.034 A 
ATOM      6  C   UNL d   1      25.724 -16.071  -1.676  0.00  0.00     0.057 A 
ENDROOT
BRANCH   1   7
ATOM      7  N   UNL d   1      27.699 -15.883  -0.162  0.00  0.00    -0.306 N 
ATOM      8  C   UNL d   1      27.371 -15.095   0.942  0.00  0.00     0.325 C 
ATOM      9  N   UNL d   1      28.223 -15.193   2.053  0.00  0.00    -0.309 N 
ATOM     10  O   UNL d   1      26.396 -14.344   0.912  0.00  0.00    -0.247 OA
ATOM     11  H   UNL d   1      28.890 -15.950   2.094  0.00  0.00     0.170 HD
ATOM     12  H   UNL d   1      28.088 -16.800  -0.012  0.00  0.00     0.170 HD
BRANCH   9  13
ATOM     13  C   UNL d   1      28.177 -14.279   3.182  0.00  0.00     0.038 A 
ATOM     14  C   UNL d   1      28.362 -14.719   4.503  0.00  0.00     0.030 A 
ATOM     15  C   UNL d   1      28.261 -13.887   5.620  0.00  0.00     0.011 A 
ATOM     16  C   UNL d   1      28.017 -12.531   5.463  0.00  0.00    -0.040 A 
ATOM     17  C   UNL d   1      27.992 -11.665   6.692  0.00  0.00     0.050 C 
ATOM     18  C   UNL d   1      27.829 -12.056   4.154  0.00  0.00     0.042 A 
ATOM     19  C   UNL d   1      27.887 -12.919   3.025  0.00  0.00     0.054 A 
ATOM     20 CL   UNL d   1      27.527 -10.372   3.886  0.00  0.00    -0.084 Cl
ENDBRANCH   9  13
ENDBRANCH   1   7
BRANCH   6  21
ATOM     21  N   UNL d   1      24.875 -16.680  -0.774  0.00  0.00    -0.379 N 
ATOM     22  C   UNL d   1      25.124 -17.920  -0.072  0.00  0.00     0.123 C 
ATOM     23  C   UNL d   1      23.794 -18.643  -0.134  0.00  0.00     0.021 C 
ATOM     24  C   UNL d   1      22.752 -17.537  -0.155  0.00  0.00     0.021 C 
ATOM     25  C   UNL d   1      23.453 -16.333  -0.790  0.00  0.00     0.123 C 
ENDBRANCH   6  21
BRANCH   3  26
ATOM     26  N   UNL d   1      27.703 -13.723  -4.678  0.00  0.00    -0.323 N 
ATOM     27  C   UNL d   1      27.987 -14.086  -6.002  0.00  0.00     0.256 C 
ATOM     28  O   UNL d   1      27.830 -15.199  -6.519  0.00  0.00    -0.267 OA
ATOM     29  H   UNL d   1      27.769 -12.742  -4.434  0.00  0.00     0.169 HD
BRANCH  27  30
ATOM     30  C   UNL d   1      28.547 -13.075  -6.929  0.00  0.00     0.032 A 
ATOM     31  C   UNL d   1      27.760 -11.955  -7.278  0.00  0.00     0.020 A 
ATOM     32  C   UNL d   1      28.139 -11.128  -8.337  0.00  0.00     0.043 A 
ATOM     33  C   UNL d   1      29.333 -11.385  -8.999  0.00  0.00     0.116 A 
ATOM     34  F   UNL d   1      29.727 -10.571  -9.987  0.00  0.00    -0.206 F 
ATOM     35  C   UNL d   1      30.127 -12.476  -8.652  0.00  0.00     0.043 A 
ATOM     36  C   UNL d   1      29.732 -13.332  -7.621  0.00  0.00     0.020 A 
ENDBRANCH  27  30
ENDBRANCH   3  26
TORSDOF 5
ENDMDL
MODEL 7
REMARK VINA RESULT:    -8.802      4.197      6.469
REMARK INTER + INTRA:         -11.513
REMARK INTER:                 -10.293
REMARK INTRA:                  -1.219
REMARK CONF_INDEPENDENT:        1.492
REMARK UNBOUND:                -1.219
REMARK  5 active torsions:
REMARK  status: ('A' for Active; 'I' for Inactive)
REMARK    1  A    between atoms: C_5  and  N_6 
REMARK       I    between atoms: N_6  and  C_7 
REMARK       I    between atoms: C_7  and  N_9 
REMARK    2  A    between atoms: N_9  and  C_10 
REMARK    3  A    between atoms: C_12  and  N_13 
REMARK       I    between atoms: N_13  and  C_14 
REMARK    4  A    between atoms: C_14  and  C_16 
REMARK    5  A    between atoms: C_25  and  N_26 
ROOT
ATOM      1  C   UNL d   1      26.980 -16.075  -0.431  0.00  0.00     0.065 A 
ATOM      2  C   UNL d   1      25.616 -16.410  -0.138  0.00  0.00     0.061 A 
ATOM      3  C   UNL d   1      24.649 -16.531  -1.171  0.00  0.00     0.037 A 
ATOM      4  C   UNL d   1      25.038 -16.177  -2.456  0.00  0.00     0.032 A 
ATOM      5  C   UNL d   1      26.354 -15.855  -2.752  0.00  0.00     0.034 A 
ATOM      6  C   UNL d   1      27.358 -15.819  -1.779  0.00  0.00     0.057 A 
ENDROOT
BRANCH   1   7
ATOM      7  N   UNL d   1      27.967 -16.017   0.633  0.00  0.00    -0.306 N 
ATOM      8  C   UNL d   1      27.891 -15.001   1.587  0.00  0.00     0.325 C 
ATOM      9  N   UNL d   1      29.020 -14.825   2.402  0.00  0.00    -0.309 N 
ATOM     10  O   UNL d   1      26.887 -14.296   1.676  0.00  0.00    -0.247 OA
ATOM     11  H   UNL d   1      29.734 -15.539   2.413  0.00  0.00     0.170 HD
ATOM     12  H   UNL d   1      28.457 -16.867   0.860  0.00  0.00     0.170 HD
BRANCH   9  13
ATOM     13  C   UNL d   1      29.211 -13.676   3.271  0.00  0.00     0.038 A 
ATOM     14  C   UNL d   1      29.996 -12.576   2.889  0.00  0.00     0.030 A 
ATOM     15  C   UNL d   1      30.258 -11.484   3.718  0.00  0.00     0.011 A 
ATOM     16  C   UNL d   1      29.692 -11.411   4.981  0.00  0.00    -0.040 A 
ATOM     17  C   UNL d   1      29.944 -10.180   5.806  0.00  0.00     0.050 C 
ATOM     18  C   UNL d   1      28.898 -12.494   5.396  0.00  0.00     0.042 A 
ATOM     19  C   UNL d   1      28.674 -13.625   4.563  0.00  0.00     0.054 A 
ATOM     20 CL   UNL d   1      28.154 -12.466   6.960  0.00  0.00    -0.084 Cl
ENDBRANCH   9  13
ENDBRANCH   1   7
BRANCH   6  21
ATOM     21  N   UNL d   1      28.631 -15.584  -2.258  0.00  0.00    -0.379 N 
ATOM     22  C   UNL d   1      28.990 -15.329  -3.636  0.00  0.00     0.123 C 
ATOM     23  C   UNL d   1      30.254 -16.141  -3.837  0.00  0.00     0.021 C 
ATOM     24  C   UNL d   1      30.922 -16.162  -2.472  0.00  0.00     0.021 C 
ATOM     25  C   UNL d   1      29.781 -16.013  -1.460  0.00  0.00     0.123 C 
ENDBRANCH   6  21
BRANCH   3  26
ATOM     26  N   UNL d   1      23.329 -17.049  -0.943  0.00  0.00    -0.323 N 
ATOM     27  C   UNL d   1      23.057 -18.333  -0.448  0.00  0.00     0.256 C 
ATOM     28  O   UNL d   1      23.878 -19.219  -0.183  0.00  0.00    -0.267 OA
ATOM     29  H   UNL d   1      22.562 -16.391  -0.995  0.00  0.00     0.169 HD
BRANCH  27  30
ATOM     30  C   UNL d   1      21.651 -18.734  -0.206  0.00  0.00     0.032 A 
ATOM     31  C   UNL d   1      21.219 -18.950   1.121  0.00  0.00     0.020 A 
ATOM     32  C   UNL d   1      19.996 -19.576   1.373  0.00  0.00     0.043 A 
ATOM     33  C   UNL d   1      19.184 -19.923   0.301  0.00  0.00     0.116 A 
ATOM     34  F   UNL d   1      17.990 -20.485   0.533  0.00  0.00    -0.206 F 
ATOM     35  C   UNL d   1      19.592 -19.699  -1.012  0.00  0.00     0.043 A 
ATOM     36  C   UNL d   1      20.832 -19.112  -1.271  0.00  0.00     0.020 A 
ENDBRANCH  27  30
ENDBRANCH   3  26
TORSDOF 5
ENDMDL
MODEL 8
REMARK VINA RESULT:    -8.502      1.576      2.014
REMARK INTER + INTRA:         -11.772
REMARK INTER:                  -9.993
REMARK INTRA:                  -1.778
REMARK CONF_INDEPENDENT:        1.492
REMARK UNBOUND:                -1.778
REMARK  5 active torsions:
REMARK  status: ('A' for Active; 'I' for Inactive)
REMARK    1  A    between atoms: C_5  and  N_6 
REMARK       I    between atoms: N_6  and  C_7 
REMARK       I    between atoms: C_7  and  N_9 
REMARK    2  A    between atoms: N_9  and  C_10 
REMARK    3  A    between atoms: C_12  and  N_13 
REMARK       I    between atoms: N_13  and  C_14 
REMARK    4  A    between atoms: C_14  and  C_16 
REMARK    5  A    between atoms: C_25  and  N_26 
ROOT
ATOM      1  C   UNL d   1      25.364 -15.481  -2.196  0.00  0.00     0.065 A 
ATOM      2  C   UNL d   1      24.108 -16.140  -1.982  0.00  0.00     0.061 A 
ATOM      3  C   UNL d   1      23.880 -16.936  -0.829  0.00  0.00     0.037 A 
ATOM      4  C   UNL d   1      24.961 -17.166   0.013  0.00  0.00     0.032 A 
ATOM      5  C   UNL d   1      26.179 -16.533  -0.182  0.00  0.00     0.034 A 
ATOM      6  C   UNL d   1      26.414 -15.664  -1.252  0.00  0.00     0.057 A 
ENDROOT
BRANCH   1   7
ATOM      7  N   UNL d   1      25.557 -14.621  -3.351  0.00  0.00    -0.306 N 
ATOM      8  C   UNL d   1      26.639 -14.846  -4.203  0.00  0.00     0.325 C 
ATOM      9  N   UNL d   1      26.937 -13.824  -5.117  0.00  0.00    -0.309 N 
ATOM     10  O   UNL d   1      27.297 -15.883  -4.123  0.00  0.00    -0.247 OA
ATOM     11  H   UNL d   1      26.264 -13.086  -5.264  0.00  0.00     0.170 HD
ATOM     12  H   UNL d   1      24.753 -14.124  -3.701  0.00  0.00     0.170 HD
BRANCH   9  13
ATOM     13  C   UNL d   1      28.159 -13.780  -5.902  0.00  0.00     0.038 A 
ATOM     14  C   UNL d   1      28.631 -12.589  -6.478  0.00  0.00     0.030 A 
ATOM     15  C   UNL d   1      29.763 -12.516  -7.293  0.00  0.00     0.011 A 
ATOM     16  C   UNL d   1      30.526 -13.647  -7.534  0.00  0.00    -0.040 A 
ATOM     17  C   UNL d   1      31.777 -13.501  -8.356  0.00  0.00     0.050 C 
ATOM     18  C   UNL d   1      30.084 -14.857  -6.971  0.00  0.00     0.042 A 
ATOM     19  C   UNL d   1      28.905 -14.932  -6.181  0.00  0.00     0.054 A 
ATOM     20 CL   UNL d   1      30.995 -16.308  -7.227  0.00  0.00    -0.084 Cl
ENDBRANCH   9  13
ENDBRANCH   1   7
BRANCH   6  21
ATOM     21  N   UNL d   1      27.644 -15.037  -1.240  0.00  0.00    -0.379 N 
ATOM     22  C   UNL d   1      27.874 -13.610  -1.320  0.00  0.00     0.123 C 
ATOM     23  C   UNL d   1      29.053 -13.488  -2.265  0.00  0.00     0.021 C 
ATOM     24  C   UNL d   1      29.856 -14.760  -2.049  0.00  0.00     0.021 C 
ATOM     25  C   UNL d   1      28.839 -15.807  -1.586  0.00  0.00     0.123 C 
ENDBRANCH   6  21
BRANCH   3  26
ATOM     26  N   UNL d   1      22.585 -17.450  -0.483  0.00  0.00    -0.323 N 
ATOM     27  C   UNL d   1      22.286 -18.812  -0.339  0.00  0.00     0.256 C 
ATOM     28  O   UNL d   1      23.050 -19.767  -0.528  0.00  0.00    -0.267 OA
ATOM     29  H   UNL d   1      21.891 -16.779  -0.175  0.00  0.00     0.169 HD
BRANCH  27  30
ATOM     30  C   UNL d   1      20.921 -19.217   0.071  0.00  0.00     0.032 A 
ATOM     31  C   UNL d   1      20.655 -19.440   1.440  0.00  0.00     0.020 A 
ATOM     32  C   UNL d   1      19.473 -20.068   1.837  0.00  0.00     0.043 A 
ATOM     33  C   UNL d   1      18.535 -20.412   0.871  0.00  0.00     0.116 A 
ATOM     34  F   UNL d   1      17.379 -20.975   1.245  0.00  0.00    -0.206 F 
ATOM     35  C   UNL d   1      18.779 -20.180  -0.481  0.00  0.00     0.043 A 
ATOM     36  C   UNL d   1      19.978 -19.590  -0.887  0.00  0.00     0.020 A 
ENDBRANCH  27  30
ENDBRANCH   3  26
TORSDOF 5
ENDMDL
MODEL 9
REMARK VINA RESULT:    -8.463      5.579      9.410
REMARK INTER + INTRA:         -11.538
REMARK INTER:                  -9.955
REMARK INTRA:                  -1.583
REMARK CONF_INDEPENDENT:        1.492
REMARK UNBOUND:                -1.583
REMARK  5 active torsions:
REMARK  status: ('A' for Active; 'I' for Inactive)
REMARK    1  A    between atoms: C_5  and  N_6 
REMARK       I    between atoms: N_6  and  C_7 
REMARK       I    between atoms: C_7  and  N_9 
REMARK    2  A    between atoms: N_9  and  C_10 
REMARK    3  A    between atoms: C_12  and  N_13 
REMARK       I    between atoms: N_13  and  C_14 
REMARK    4  A    between atoms: C_14  and  C_16 
REMARK    5  A    between atoms: C_25  and  N_26 
ROOT
ATOM      1  C   UNL d   1      27.016 -15.660  -0.247  0.00  0.00     0.065 A 
ATOM      2  C   UNL d   1      27.513 -15.696   1.099  0.00  0.00     0.061 A 
ATOM      3  C   UNL d   1      28.105 -14.553   1.696  0.00  0.00     0.037 A 
ATOM      4  C   UNL d   1      28.311 -13.443   0.887  0.00  0.00     0.032 A 
ATOM      5  C   UNL d   1      27.832 -13.395  -0.414  0.00  0.00     0.034 A 
ATOM      6  C   UNL d   1      27.157 -14.466  -1.008  0.00  0.00     0.057 A 
ENDROOT
BRANCH   1   7
ATOM      7  N   UNL d   1      26.358 -16.822  -0.819  0.00  0.00    -0.306 N 
ATOM      8  C   UNL d   1      24.973 -16.955  -0.704  0.00  0.00     0.325 C 
ATOM      9  N   UNL d   1      24.439 -18.216  -1.011  0.00  0.00    -0.309 N 
ATOM     10  O   UNL d   1      24.280 -16.010  -0.328  0.00  0.00    -0.247 OA
ATOM     11  H   UNL d   1      25.021 -18.892  -1.485  0.00  0.00     0.170 HD
ATOM     12  H   UNL d   1      26.837 -17.311  -1.559  0.00  0.00     0.170 HD
BRANCH   9  13
ATOM     13  C   UNL d   1      23.070 -18.601  -0.716  0.00  0.00     0.038 A 
ATOM     14  C   UNL d   1      22.161 -18.950  -1.728  0.00  0.00     0.030 A 
ATOM     15  C   UNL d   1      20.820 -19.262  -1.494  0.00  0.00     0.011 A 
ATOM     16  C   UNL d   1      20.324 -19.293  -0.200  0.00  0.00    -0.040 A 
ATOM     17  C   UNL d   1      18.893 -19.707   0.005  0.00  0.00     0.050 C 
ATOM     18  C   UNL d   1      21.207 -18.951   0.838  0.00  0.00     0.042 A 
ATOM     19  C   UNL d   1      22.559 -18.588   0.587  0.00  0.00     0.054 A 
ATOM     20 CL   UNL d   1      20.655 -18.974   2.480  0.00  0.00    -0.084 Cl
ENDBRANCH   9  13
ENDBRANCH   1   7
BRANCH   6  21
ATOM     21  N   UNL d   1      26.655 -14.215  -2.269  0.00  0.00    -0.379 N 
ATOM     22  C   UNL d   1      25.482 -13.426  -2.578  0.00  0.00     0.123 C 
ATOM     23  C   UNL d   1      24.784 -14.226  -3.660  0.00  0.00     0.021 C 
ATOM     24  C   UNL d   1      25.904 -14.937  -4.399  0.00  0.00     0.021 C 
ATOM     25  C   UNL d   1      27.028 -15.102  -3.372  0.00  0.00     0.123 C 
ENDBRANCH   6  21
BRANCH   3  26
ATOM     26  N   UNL d   1      28.437 -14.490   3.092  0.00  0.00    -0.323 N 
ATOM     27  C   UNL d   1      28.090 -13.430   3.942  0.00  0.00     0.256 C 
ATOM     28  O   UNL d   1      27.503 -12.387   3.631  0.00  0.00    -0.267 OA
ATOM     29  H   UNL d   1      28.807 -15.333   3.515  0.00  0.00     0.169 HD
BRANCH  27  30
ATOM     30  C   UNL d   1      28.446 -13.505   5.379  0.00  0.00     0.032 A 
ATOM     31  C   UNL d   1      27.712 -12.735   6.307  0.00  0.00     0.020 A 
ATOM     32  C   UNL d   1      28.176 -12.574   7.614  0.00  0.00     0.043 A 
ATOM     33  C   UNL d   1      29.334 -13.235   8.004  0.00  0.00     0.116 A 
ATOM     34  F   UNL d   1      29.764 -13.122   9.268  0.00  0.00    -0.206 F 
ATOM     35  C   UNL d   1      30.056 -14.013   7.102  0.00  0.00     0.043 A 
ATOM     36  C   UNL d   1      29.619 -14.143   5.782  0.00  0.00     0.020 A 
ENDBRANCH  27  30
ENDBRANCH   3  26
TORSDOF 5
ENDMDL
