MODEL 1
REMARK VINA RESULT:   -24.247      0.000      0.000
REMARK INTER + INTRA:         -29.155
REMARK INTER:                 -27.826
REMARK INTRA:                  -1.329
REMARK CONF_INDEPENDENT:        3.580
REMARK UNBOUND:                -1.329
REMARK  12 active torsions:
REMARK  status: ('A' for Active; 'I' for Inactive)
REMARK    1  A    between atoms: C_2  and  O_3 
REMARK    2  A    between atoms: O_3  and  C_4 
REMARK    3  A    between atoms: C_7  and  O_8 
REMARK    4  A    between atoms: O_8  and  C_9 
REMARK    5  A    between atoms: C_11  and  N_12 
REMARK       I    between atoms: N_12  and  C_13 
REMARK    6  A    between atoms: C_13  and  C_15 
REMARK    7  A    between atoms: C_15  and  C_16 
REMARK    8  A    between atoms: C_16  and  S_17 
REMARK    9  A    between atoms: S_17  and  C_18 
REMARK   10  A    between atoms: C_20  and  C_21 
REMARK   11  A    between atoms: C_21  and  C_22 
REMARK   12  A    between atoms: C_26  and  N_27 
ROOT
ATOM      1  C   UNL d   1      24.477 -14.549  -2.749  0.00  0.00     0.090 C 
ENDROOT
BRANCH   1   2
ATOM      2  C   UNL d   1      24.408 -13.894  -4.139  0.00  0.00     0.113 C 
BRANCH   2   3
ATOM      3  C   UNL d   1      25.566 -14.419  -4.965  0.00  0.00     0.223 C 
ATOM      4  N   UNL d   1      26.596 -13.514  -5.139  0.00  0.00    -0.325 N 
ATOM      5  H   UNL d   1      26.454 -12.648  -4.658  0.00  0.00     0.169 HD
ATOM      6  O   UNL d   1      25.512 -15.565  -5.418  0.00  0.00    -0.273 OA
BRANCH   4   7
ATOM      7  C   UNL d   1      27.823 -13.712  -5.850  0.00  0.00     0.071 A 
ATOM      8  C   UNL d   1      28.753 -14.748  -5.600  0.00  0.00     0.095 A 
ATOM      9  C   UNL d   1      29.873 -14.872  -6.460  0.00  0.00     0.042 A 
ATOM     10  C   UNL d   1      30.125 -13.952  -7.492  0.00  0.00     0.039 A 
ATOM     11  C   UNL d   1      29.233 -12.920  -7.718  0.00  0.00     0.071 A 
ATOM     12  C   UNL d   1      28.110 -12.832  -6.907  0.00  0.00     0.069 A 
BRANCH   8  13
ATOM     13  O   UNL d   1      28.764 -15.704  -4.601  0.00  0.00    -0.349 OA
BRANCH  13  14
ATOM     14  C   UNL d   1      28.970 -15.262  -3.270  0.00  0.00     0.171 C 
ATOM     15  C   UNL d   1      30.204 -15.838  -2.618  0.00  0.00     0.034 C 
ENDBRANCH  13  14
ENDBRANCH   8  13
BRANCH  11  16
ATOM     16  O   UNL d   1      29.441 -12.101  -8.797  0.00  0.00    -0.351 OA
BRANCH  16  17
ATOM     17  C   UNL d   1      28.308 -11.327  -9.222  0.00  0.00     0.171 C 
ATOM     18  C   UNL d   1      28.015 -10.266  -8.177  0.00  0.00     0.034 C 
ENDBRANCH  16  17
ENDBRANCH  11  16
ENDBRANCH   4   7
ENDBRANCH   2   3
ENDBRANCH   1   2
BRANCH   1  19
ATOM     19  S   UNL d   1      22.785 -14.829  -2.090  0.00  0.00    -0.109 SA
BRANCH  19  20
ATOM     20  C   UNL d   1      22.940 -16.401  -1.246  0.00  0.00     0.114 C 
ATOM     21  C   UNL d   1      24.165 -16.994  -1.104  0.00  0.00     0.067 C 
ATOM     22  C   UNL d   1      24.256 -18.189  -0.403  0.00  0.00     0.057 C 
ATOM     23  N   UNL d   1      23.155 -18.799   0.063  0.00  0.00    -0.065 NA
ATOM     24  C   UNL d   1      21.969 -18.207  -0.224  0.00  0.00     0.751 C 
ATOM     25  N   UNL d   1      21.818 -17.028  -0.880  0.00  0.00    -0.054 NA
BRANCH  22  26
ATOM     26  C   UNL d   1      25.589 -18.858  -0.124  0.00  0.00     0.064 C 
BRANCH  26  27
ATOM     27  C   UNL d   1      26.786 -17.888  -0.179  0.00  0.00    -0.017 C 
ATOM     28  C   UNL d   1      26.849 -17.138  -1.522  0.00  0.00     0.010 C 
ATOM     29  C   UNL d   1      26.733 -16.854   0.939  0.00  0.00     0.010 C 
ENDBRANCH  26  27
ENDBRANCH  22  26
BRANCH  24  30
ATOM     30  N   UNL d   1      20.779 -18.941   0.076  0.00  0.00    -0.064 N 
ATOM     31  N   UNL d   1      19.900 -19.324  -0.895  0.00  0.00    -0.158 NA
ATOM     32  C   UNL d   1      18.971 -20.033  -0.243  0.00  0.00     0.054 A 
ATOM     33  C   UNL d   1      17.865 -20.704  -0.963  0.00  0.00     0.072 C 
ATOM     34  C   UNL d   1      19.176 -20.017   1.149  0.00  0.00     0.056 A 
ATOM     35  C   UNL d   1      20.351 -19.325   1.338  0.00  0.00     0.052 A 
ATOM     36  C   UNL d   1      21.031 -18.935   2.595  0.00  0.00     0.071 C 
ENDBRANCH  24  30
ENDBRANCH  19  20
ENDBRANCH   1  19
TORSDOF 12
ENDMDL
MODEL 2
REMARK VINA RESULT:   -23.840      1.091      3.049
REMARK INTER + INTRA:         -29.261
REMARK INTER:                 -27.419
REMARK INTRA:                  -1.841
REMARK CONF_INDEPENDENT:        3.580
REMARK UNBOUND:                -1.841
REMARK  12 active torsions:
REMARK  status: ('A' for Active; 'I' for Inactive)
REMARK    1  A    between atoms: C_2  and  O_3 
REMARK    2  A    between atoms: O_3  and  C_4 
REMARK    3  A    between atoms: C_7  and  O_8 
REMARK    4  A    between atoms: O_8  and  C_9 
REMARK    5  A    between atoms: C_11  and  N_12 
REMARK       I    between atoms: N_12  and  C_13 
REMARK    6  A    between atoms: C_13  and  C_15 
REMARK    7  A    between atoms: C_15  and  C_16 
REMARK    8  A    between atoms: C_16  and  S_17 
REMARK    9  A    between atoms: S_17  and  C_18 
REMARK   10  A    between atoms: C_20  and  C_21 
REMARK   11  A    between atoms: C_21  and  C_22 
REMARK   12  A    between atoms: C_26  and  N_27 
ROOT
ATOM      1  C   UNL d   1      24.425 -14.266  -2.396  0.00  0.00     0.090 C 
ENDROOT
BRANCH   1   2
ATOM      2  C   UNL d   1      24.589 -13.546  -3.746  0.00  0.00     0.113 C 
BRANCH   2   3
ATOM      3  C   UNL d   1      25.598 -14.318  -4.571  0.00  0.00     0.223 C 
ATOM      4  N   UNL d   1      26.838 -13.715  -4.663  0.00  0.00    -0.325 N 
ATOM      5  H   UNL d   1      26.912 -12.869  -4.135  0.00  0.00     0.169 HD
ATOM      6  O   UNL d   1      25.260 -15.383  -5.095  0.00  0.00    -0.273 OA
BRANCH   4   7
ATOM      7  C   UNL d   1      27.997 -14.197  -5.353  0.00  0.00     0.071 A 
ATOM      8  C   UNL d   1      28.753 -13.460  -6.294  0.00  0.00     0.095 A 
ATOM      9  C   UNL d   1      29.936 -14.042  -6.815  0.00  0.00     0.042 A 
ATOM     10  C   UNL d   1      30.328 -15.351  -6.487  0.00  0.00     0.039 A 
ATOM     11  C   UNL d   1      29.574 -16.085  -5.591  0.00  0.00     0.071 A 
ATOM     12  C   UNL d   1      28.444 -15.493  -5.043  0.00  0.00     0.069 A 
BRANCH   8  13
ATOM     13  O   UNL d   1      28.517 -12.208  -6.832  0.00  0.00    -0.349 OA
BRANCH  13  14
ATOM     14  C   UNL d   1      27.954 -11.223  -5.982  0.00  0.00     0.171 C 
ATOM     15  C   UNL d   1      26.445 -11.261  -5.916  0.00  0.00     0.034 C 
ENDBRANCH  13  14
ENDBRANCH   8  13
BRANCH  11  16
ATOM     16  O   UNL d   1      30.035 -17.316  -5.202  0.00  0.00    -0.351 OA
BRANCH  16  17
ATOM     17  C   UNL d   1      30.958 -17.319  -4.102  0.00  0.00     0.171 C 
ATOM     18  C   UNL d   1      30.179 -17.451  -2.805  0.00  0.00     0.034 C 
ENDBRANCH  16  17
ENDBRANCH  11  16
ENDBRANCH   4   7
ENDBRANCH   2   3
ENDBRANCH   1   2
BRANCH   1  19
ATOM     19  S   UNL d   1      22.690 -14.828  -2.179  0.00  0.00    -0.109 SA
BRANCH  19  20
ATOM     20  C   UNL d   1      22.876 -16.358  -1.266  0.00  0.00     0.114 C 
ATOM     21  C   UNL d   1      24.119 -16.894  -1.058  0.00  0.00     0.067 C 
ATOM     22  C   UNL d   1      24.231 -18.056  -0.306  0.00  0.00     0.057 C 
ATOM     23  N   UNL d   1      23.139 -18.692   0.146  0.00  0.00    -0.065 NA
ATOM     24  C   UNL d   1      21.942 -18.161  -0.206  0.00  0.00     0.751 C 
ATOM     25  N   UNL d   1      21.768 -17.017  -0.914  0.00  0.00    -0.054 NA
BRANCH  22  26
ATOM     26  C   UNL d   1      25.579 -18.657   0.047  0.00  0.00     0.064 C 
BRANCH  26  27
ATOM     27  C   UNL d   1      26.774 -17.804  -0.423  0.00  0.00    -0.017 C 
ATOM     28  C   UNL d   1      26.786 -16.421   0.253  0.00  0.00     0.010 C 
ATOM     29  C   UNL d   1      28.106 -18.484  -0.134  0.00  0.00     0.010 C 
ENDBRANCH  26  27
ENDBRANCH  22  26
BRANCH  24  30
ATOM     30  N   UNL d   1      20.772 -18.931   0.082  0.00  0.00    -0.064 N 
ATOM     31  N   UNL d   1      19.904 -19.324  -0.895  0.00  0.00    -0.158 NA
ATOM     32  C   UNL d   1      18.995 -20.067  -0.254  0.00  0.00     0.054 A 
ATOM     33  C   UNL d   1      17.907 -20.757  -0.985  0.00  0.00     0.072 C 
ATOM     34  C   UNL d   1      19.199 -20.066   1.138  0.00  0.00     0.056 A 
ATOM     35  C   UNL d   1      20.354 -19.345   1.339  0.00  0.00     0.052 A 
ATOM     36  C   UNL d   1      21.023 -18.956   2.602  0.00  0.00     0.071 C 
ENDBRANCH  24  30
ENDBRANCH  19  20
ENDBRANCH   1  19
TORSDOF 12
ENDMDL
MODEL 3
REMARK VINA RESULT:   -23.815      1.404      3.451
REMARK INTER + INTRA:         -29.039
REMARK INTER:                 -27.394
REMARK INTRA:                  -1.644
REMARK CONF_INDEPENDENT:        3.580
REMARK UNBOUND:                -1.644
REMARK  12 active torsions:
REMARK  status: ('A' for Active; 'I' for Inactive)
REMARK    1  A    between atoms: C_2  and  O_3 
REMARK    2  A    between atoms: O_3  and  C_4 
REMARK    3  A    between atoms: C_7  and  O_8 
REMARK    4  A    between atoms: O_8  and  C_9 
REMARK    5  A    between atoms: C_11  and  N_12 
REMARK       I    between atoms: N_12  and  C_13 
REMARK    6  A    between atoms: C_13  and  C_15 
REMARK    7  A    between atoms: C_15  and  C_16 
REMARK    8  A    between atoms: C_16  and  S_17 
REMARK    9  A    between atoms: S_17  and  C_18 
REMARK   10  A    between atoms: C_20  and  C_21 
REMARK   11  A    between atoms: C_21  and  C_22 
REMARK   12  A    between atoms: C_26  and  N_27 
ROOT
ATOM      1  C   UNL d   1      24.374 -14.338  -2.441  0.00  0.00     0.090 C 
ENDROOT
BRANCH   1   2
ATOM      2  C   UNL d   1      24.540 -14.108  -3.953  0.00  0.00     0.113 C 
BRANCH   2   3
ATOM      3  C   UNL d   1      25.719 -14.934  -4.428  0.00  0.00     0.223 C 
ATOM      4  N   UNL d   1      26.839 -14.842  -3.623  0.00  0.00    -0.325 N 
ATOM      5  H   UNL d   1      26.703 -14.274  -2.811  0.00  0.00     0.169 HD
ATOM      6  O   UNL d   1      25.612 -15.597  -5.463  0.00  0.00    -0.273 OA
BRANCH   4   7
ATOM      7  C   UNL d   1      28.095 -15.508  -3.793  0.00  0.00     0.071 A 
ATOM      8  C   UNL d   1      28.800 -15.620  -5.015  0.00  0.00     0.095 A 
ATOM      9  C   UNL d   1      30.084 -16.221  -5.000  0.00  0.00     0.042 A 
ATOM     10  C   UNL d   1      30.634 -16.776  -3.832  0.00  0.00     0.039 A 
ATOM     11  C   UNL d   1      29.932 -16.694  -2.643  0.00  0.00     0.071 A 
ATOM     12  C   UNL d   1      28.698 -16.059  -2.650  0.00  0.00     0.069 A 
BRANCH   8  13
ATOM     13  O   UNL d   1      28.427 -15.236  -6.289  0.00  0.00    -0.349 OA
BRANCH  13  14
ATOM     14  C   UNL d   1      28.727 -13.910  -6.692  0.00  0.00     0.171 C 
ATOM     15  C   UNL d   1      30.096 -13.754  -7.310  0.00  0.00     0.034 C 
ENDBRANCH  13  14
ENDBRANCH   8  13
BRANCH  11  16
ATOM     16  O   UNL d   1      30.535 -17.143  -1.497  0.00  0.00    -0.351 OA
BRANCH  16  17
ATOM     17  C   UNL d   1      31.410 -16.210  -0.843  0.00  0.00     0.171 C 
ATOM     18  C   UNL d   1      31.561 -14.979  -1.719  0.00  0.00     0.034 C 
ENDBRANCH  16  17
ENDBRANCH  11  16
ENDBRANCH   4   7
ENDBRANCH   2   3
ENDBRANCH   1   2
BRANCH   1  19
ATOM     19  S   UNL d   1      22.638 -14.795  -2.051  0.00  0.00    -0.109 SA
BRANCH  19  20
ATOM     20  C   UNL d   1      22.810 -16.402  -1.279  0.00  0.00     0.114 C 
ATOM     21  C   UNL d   1      24.032 -17.017  -1.223  0.00  0.00     0.067 C 
ATOM     22  C   UNL d   1      24.139 -18.240  -0.576  0.00  0.00     0.057 C 
ATOM     23  N   UNL d   1      23.054 -18.854  -0.079  0.00  0.00    -0.065 NA
ATOM     24  C   UNL d   1      21.864 -18.234  -0.282  0.00  0.00     0.751 C 
ATOM     25  N   UNL d   1      21.699 -17.028  -0.882  0.00  0.00    -0.054 NA
BRANCH  22  26
ATOM     26  C   UNL d   1      25.474 -18.937  -0.391  0.00  0.00     0.064 C 
BRANCH  26  27
ATOM     27  C   UNL d   1      26.492 -18.111   0.419  0.00  0.00    -0.017 C 
ATOM     28  C   UNL d   1      27.879 -18.103  -0.250  0.00  0.00     0.010 C 
ATOM     29  C   UNL d   1      26.043 -16.666   0.593  0.00  0.00     0.010 C 
ENDBRANCH  26  27
ENDBRANCH  22  26
BRANCH  24  30
ATOM     30  N   UNL d   1      20.680 -18.964   0.050  0.00  0.00    -0.064 N 
ATOM     31  N   UNL d   1      19.763 -19.325  -0.895  0.00  0.00    -0.158 NA
ATOM     32  C   UNL d   1      18.853 -20.036  -0.221  0.00  0.00     0.054 A 
ATOM     33  C   UNL d   1      17.716 -20.688  -0.912  0.00  0.00     0.072 C 
ATOM     34  C   UNL d   1      19.108 -20.044   1.162  0.00  0.00     0.056 A 
ATOM     35  C   UNL d   1      20.293 -19.364   1.321  0.00  0.00     0.052 A 
ATOM     36  C   UNL d   1      21.021 -18.999   2.558  0.00  0.00     0.071 C 
ENDBRANCH  24  30
ENDBRANCH  19  20
ENDBRANCH   1  19
TORSDOF 12
ENDMDL
MODEL 4
REMARK VINA RESULT:   -23.486      1.999      2.627
REMARK INTER + INTRA:         -29.616
REMARK INTER:                 -27.066
REMARK INTRA:                  -2.550
REMARK CONF_INDEPENDENT:        3.580
REMARK UNBOUND:                -2.550
REMARK  12 active torsions:
REMARK  status: ('A' for Active; 'I' for Inactive)
REMARK    1  A    between atoms: C_2  and  O_3 
REMARK    2  A    between atoms: O_3  and  C_4 
REMARK    3  A    between atoms: C_7  and  O_8 
REMARK    4  A    between atoms: O_8  and  C_9 
REMARK    5  A    between atoms: C_11  and  N_12 
REMARK       I    between atoms: N_12  and  C_13 
REMARK    6  A    between atoms: C_13  and  C_15 
REMARK    7  A    between atoms: C_15  and  C_16 
REMARK    8  A    between atoms: C_16  and  S_17 
REMARK    9  A    between atoms: S_17  and  C_18 
REMARK   10  A    between atoms: C_20  and  C_21 
REMARK   11  A    between atoms: C_21  and  C_22 
REMARK   12  A    between atoms: C_26  and  N_27 
ROOT
ATOM      1  C   UNL d   1      24.454 -14.317  -2.411  0.00  0.00     0.090 C 
ENDROOT
BRANCH   1   2
ATOM      2  C   UNL d   1      24.731 -14.166  -3.917  0.00  0.00     0.113 C 
BRANCH   2   3
ATOM      3  C   UNL d   1      25.915 -15.044  -4.269  0.00  0.00     0.223 C 
ATOM      4  N   UNL d   1      27.023 -14.852  -3.464  0.00  0.00    -0.325 N 
ATOM      5  H   UNL d   1      26.875 -14.188  -2.731  0.00  0.00     0.169 HD
ATOM      6  O   UNL d   1      25.823 -15.829  -5.215  0.00  0.00    -0.273 OA
BRANCH   4   7
ATOM      7  C   UNL d   1      28.281 -15.533  -3.532  0.00  0.00     0.071 A 
ATOM      8  C   UNL d   1      29.053 -15.934  -2.417  0.00  0.00     0.095 A 
ATOM      9  C   UNL d   1      30.229 -16.692  -2.648  0.00  0.00     0.042 A 
ATOM     10  C   UNL d   1      30.686 -16.981  -3.944  0.00  0.00     0.039 A 
ATOM     11  C   UNL d   1      29.948 -16.563  -5.036  0.00  0.00     0.071 A 
ATOM     12  C   UNL d   1      28.771 -15.866  -4.806  0.00  0.00     0.069 A 
BRANCH   8  13
ATOM     13  O   UNL d   1      28.855 -15.690  -1.071  0.00  0.00    -0.349 OA
BRANCH  13  14
ATOM     14  C   UNL d   1      29.939 -15.149  -0.334  0.00  0.00     0.171 C 
ATOM     15  C   UNL d   1      29.518 -14.231   0.789  0.00  0.00     0.034 C 
ENDBRANCH  13  14
ENDBRANCH   8  13
BRANCH  11  16
ATOM     16  O   UNL d   1      30.355 -16.951  -6.287  0.00  0.00    -0.351 OA
BRANCH  16  17
ATOM     17  C   UNL d   1      30.430 -15.908  -7.271  0.00  0.00     0.171 C 
ATOM     18  C   UNL d   1      31.183 -14.728  -6.684  0.00  0.00     0.034 C 
ENDBRANCH  16  17
ENDBRANCH  11  16
ENDBRANCH   4   7
ENDBRANCH   2   3
ENDBRANCH   1   2
BRANCH   1  19
ATOM     19  S   UNL d   1      22.711 -14.825  -2.130  0.00  0.00    -0.109 SA
BRANCH  19  20
ATOM     20  C   UNL d   1      22.884 -16.376  -1.251  0.00  0.00     0.114 C 
ATOM     21  C   UNL d   1      24.119 -16.938  -1.072  0.00  0.00     0.067 C 
ATOM     22  C   UNL d   1      24.222 -18.116  -0.345  0.00  0.00     0.057 C 
ATOM     23  N   UNL d   1      23.126 -18.742   0.112  0.00  0.00    -0.065 NA
ATOM     24  C   UNL d   1      21.933 -18.183  -0.211  0.00  0.00     0.751 C 
ATOM     25  N   UNL d   1      21.769 -17.021  -0.894  0.00  0.00    -0.054 NA
BRANCH  22  26
ATOM     26  C   UNL d   1      25.564 -18.748  -0.025  0.00  0.00     0.064 C 
BRANCH  26  27
ATOM     27  C   UNL d   1      26.764 -17.831  -0.331  0.00  0.00    -0.017 C 
ATOM     28  C   UNL d   1      26.767 -16.580   0.567  0.00  0.00     0.010 C 
ATOM     29  C   UNL d   1      28.093 -18.551  -0.144  0.00  0.00     0.010 C 
ENDBRANCH  26  27
ENDBRANCH  22  26
BRANCH  24  30
ATOM     30  N   UNL d   1      20.754 -18.937   0.081  0.00  0.00    -0.064 N 
ATOM     31  N   UNL d   1      19.882 -19.325  -0.895  0.00  0.00    -0.158 NA
ATOM     32  C   UNL d   1      18.964 -20.053  -0.251  0.00  0.00     0.054 A 
ATOM     33  C   UNL d   1      17.869 -20.735  -0.979  0.00  0.00     0.072 C 
ATOM     34  C   UNL d   1      19.167 -20.047   1.141  0.00  0.00     0.056 A 
ATOM     35  C   UNL d   1      20.330 -19.339   1.339  0.00  0.00     0.052 A 
ATOM     36  C   UNL d   1      21.002 -18.950   2.600  0.00  0.00     0.071 C 
ENDBRANCH  24  30
ENDBRANCH  19  20
ENDBRANCH   1  19
TORSDOF 12
ENDMDL
MODEL 5
REMARK VINA RESULT:   -23.171      3.670      6.489
REMARK INTER + INTRA:         -28.046
REMARK INTER:                 -26.751
REMARK INTRA:                  -1.296
REMARK CONF_INDEPENDENT:        3.580
REMARK UNBOUND:                -1.296
REMARK  12 active torsions:
REMARK  status: ('A' for Active; 'I' for Inactive)
REMARK    1  A    between atoms: C_2  and  O_3 
REMARK    2  A    between atoms: O_3  and  C_4 
REMARK    3  A    between atoms: C_7  and  O_8 
REMARK    4  A    between atoms: O_8  and  C_9 
REMARK    5  A    between atoms: C_11  and  N_12 
REMARK       I    between atoms: N_12  and  C_13 
REMARK    6  A    between atoms: C_13  and  C_15 
REMARK    7  A    between atoms: C_15  and  C_16 
REMARK    8  A    between atoms: C_16  and  S_17 
REMARK    9  A    between atoms: S_17  and  C_18 
REMARK   10  A    between atoms: C_20  and  C_21 
REMARK   11  A    between atoms: C_21  and  C_22 
REMARK   12  A    between atoms: C_26  and  N_27 
ROOT
ATOM      1  C   UNL d   1      26.904 -17.450   0.759  0.00  0.00     0.090 C 
ENDROOT
BRANCH   1   2
ATOM      2  C   UNL d   1      27.174 -16.652  -0.528  0.00  0.00     0.113 C 
BRANCH   2   3
ATOM      3  C   UNL d   1      27.711 -15.290  -0.133  0.00  0.00     0.223 C 
ATOM      4  N   UNL d   1      28.690 -15.326   0.842  0.00  0.00    -0.325 N 
ATOM      5  H   UNL d   1      28.941 -16.253   1.124  0.00  0.00     0.169 HD
ATOM      6  O   UNL d   1      27.252 -14.281  -0.675  0.00  0.00    -0.273 OA
BRANCH   4   7
ATOM      7  C   UNL d   1      29.398 -14.219   1.412  0.00  0.00     0.071 A 
ATOM      8  C   UNL d   1      30.069 -13.215   0.676  0.00  0.00     0.095 A 
ATOM      9  C   UNL d   1      30.637 -12.126   1.385  0.00  0.00     0.042 A 
ATOM     10  C   UNL d   1      30.622 -12.061   2.788  0.00  0.00     0.039 A 
ATOM     11  C   UNL d   1      29.993 -13.058   3.510  0.00  0.00     0.071 A 
ATOM     12  C   UNL d   1      29.393 -14.097   2.812  0.00  0.00     0.069 A 
BRANCH   8  13
ATOM     13  O   UNL d   1      30.290 -13.113  -0.684  0.00  0.00    -0.349 OA
BRANCH  13  14
ATOM     14  C   UNL d   1      30.897 -14.217  -1.336  0.00  0.00     0.171 C 
ATOM     15  C   UNL d   1      31.918 -13.826  -2.377  0.00  0.00     0.034 C 
ENDBRANCH  13  14
ENDBRANCH   8  13
BRANCH  11  16
ATOM     16  O   UNL d   1      29.895 -12.918   4.870  0.00  0.00    -0.351 OA
BRANCH  16  17
ATOM     17  C   UNL d   1      28.581 -13.090   5.424  0.00  0.00     0.171 C 
ATOM     18  C   UNL d   1      28.561 -14.354   6.265  0.00  0.00     0.034 C 
ENDBRANCH  16  17
ENDBRANCH  11  16
ENDBRANCH   4   7
ENDBRANCH   2   3
ENDBRANCH   1   2
BRANCH   1  19
ATOM     19  S   UNL d   1      25.892 -18.938   0.387  0.00  0.00    -0.109 SA
BRANCH  19  20
ATOM     20  C   UNL d   1      24.351 -18.237  -0.198  0.00  0.00     0.114 C 
ATOM     21  C   UNL d   1      24.330 -17.000  -0.784  0.00  0.00     0.067 C 
ATOM     22  C   UNL d   1      23.125 -16.506  -1.267  0.00  0.00     0.057 C 
ATOM     23  N   UNL d   1      21.983 -17.190  -1.098  0.00  0.00    -0.065 NA
ATOM     24  C   UNL d   1      22.072 -18.351  -0.402  0.00  0.00     0.751 C 
ATOM     25  N   UNL d   1      23.221 -18.896   0.072  0.00  0.00    -0.054 NA
BRANCH  22  26
ATOM     26  C   UNL d   1      23.039 -15.187  -2.012  0.00  0.00     0.064 C 
BRANCH  26  27
ATOM     27  C   UNL d   1      24.382 -14.734  -2.619  0.00  0.00    -0.017 C 
ATOM     28  C   UNL d   1      25.209 -15.931  -3.126  0.00  0.00     0.010 C 
ATOM     29  C   UNL d   1      24.185 -13.770  -3.781  0.00  0.00     0.010 C 
ENDBRANCH  26  27
ENDBRANCH  22  26
BRANCH  24  30
ATOM     30  N   UNL d   1      20.847 -18.987  -0.028  0.00  0.00    -0.064 N 
ATOM     31  N   UNL d   1      19.896 -19.325  -0.947  0.00  0.00    -0.158 NA
ATOM     32  C   UNL d   1      18.951 -19.948  -0.235  0.00  0.00     0.054 A 
ATOM     33  C   UNL d   1      17.765 -20.550  -0.886  0.00  0.00     0.072 C 
ATOM     34  C   UNL d   1      19.223 -19.916   1.145  0.00  0.00     0.056 A 
ATOM     35  C   UNL d   1      20.453 -19.310   1.262  0.00  0.00     0.052 A 
ATOM     36  C   UNL d   1      21.219 -18.944   2.476  0.00  0.00     0.071 C 
ENDBRANCH  24  30
ENDBRANCH  19  20
ENDBRANCH   1  19
TORSDOF 12
ENDMDL
MODEL 6
REMARK VINA RESULT:   -22.676      3.728      6.024
REMARK INTER + INTRA:         -28.179
REMARK INTER:                 -26.256
REMARK INTRA:                  -1.923
REMARK CONF_INDEPENDENT:        3.580
REMARK UNBOUND:                -1.923
REMARK  12 active torsions:
REMARK  status: ('A' for Active; 'I' for Inactive)
REMARK    1  A    between atoms: C_2  and  O_3 
REMARK    2  A    between atoms: O_3  and  C_4 
REMARK    3  A    between atoms: C_7  and  O_8 
REMARK    4  A    between atoms: O_8  and  C_9 
REMARK    5  A    between atoms: C_11  and  N_12 
REMARK       I    between atoms: N_12  and  C_13 
REMARK    6  A    between atoms: C_13  and  C_15 
REMARK    7  A    between atoms: C_15  and  C_16 
REMARK    8  A    between atoms: C_16  and  S_17 
REMARK    9  A    between atoms: S_17  and  C_18 
REMARK   10  A    between atoms: C_20  and  C_21 
REMARK   11  A    between atoms: C_21  and  C_22 
REMARK   12  A    between atoms: C_26  and  N_27 
ROOT
ATOM      1  C   UNL d   1      26.968 -17.277   0.534  0.00  0.00     0.090 C 
ENDROOT
BRANCH   1   2
ATOM      2  C   UNL d   1      27.666 -17.511  -0.816  0.00  0.00     0.113 C 
BRANCH   2   3
ATOM      3  C   UNL d   1      28.754 -16.466  -0.971  0.00  0.00     0.223 C 
ATOM      4  N   UNL d   1      29.454 -16.199   0.190  0.00  0.00    -0.325 N 
ATOM      5  H   UNL d   1      29.174 -16.765   0.966  0.00  0.00     0.169 HD
ATOM      6  O   UNL d   1      28.928 -15.936  -2.071  0.00  0.00    -0.273 OA
BRANCH   4   7
ATOM      7  C   UNL d   1      30.540 -15.282   0.365  0.00  0.00     0.071 A 
ATOM      8  C   UNL d   1      30.409 -13.884   0.535  0.00  0.00     0.095 A 
ATOM      9  C   UNL d   1      31.576 -13.124   0.800  0.00  0.00     0.042 A 
ATOM     10  C   UNL d   1      32.855 -13.704   0.816  0.00  0.00     0.039 A 
ATOM     11  C   UNL d   1      32.988 -15.066   0.620  0.00  0.00     0.071 A 
ATOM     12  C   UNL d   1      31.839 -15.816   0.412  0.00  0.00     0.069 A 
BRANCH   8  13
ATOM     13  O   UNL d   1      29.280 -13.088   0.470  0.00  0.00    -0.349 OA
BRANCH  13  14
ATOM     14  C   UNL d   1      28.020 -13.719   0.626  0.00  0.00     0.171 C 
ATOM     15  C   UNL d   1      27.799 -14.312   1.997  0.00  0.00     0.034 C 
ENDBRANCH  13  14
ENDBRANCH   8  13
BRANCH  11  16
ATOM     16  O   UNL d   1      34.233 -15.626   0.749  0.00  0.00    -0.351 OA
BRANCH  16  17
ATOM     17  C   UNL d   1      34.268 -16.950   1.306  0.00  0.00     0.171 C 
ATOM     18  C   UNL d   1      33.901 -16.876   2.778  0.00  0.00     0.034 C 
ENDBRANCH  16  17
ENDBRANCH  11  16
ENDBRANCH   4   7
ENDBRANCH   2   3
ENDBRANCH   1   2
BRANCH   1  19
ATOM     19  S   UNL d   1      25.782 -18.636   0.884  0.00  0.00    -0.109 SA
BRANCH  19  20
ATOM     20  C   UNL d   1      24.267 -18.047   0.134  0.00  0.00     0.114 C 
ATOM     21  C   UNL d   1      24.241 -16.850  -0.531  0.00  0.00     0.067 C 
ATOM     22  C   UNL d   1      23.061 -16.446  -1.141  0.00  0.00     0.057 C 
ATOM     23  N   UNL d   1      21.939 -17.172  -1.020  0.00  0.00    -0.065 NA
ATOM     24  C   UNL d   1      22.019 -18.283  -0.245  0.00  0.00     0.751 C 
ATOM     25  N   UNL d   1      23.147 -18.743   0.354  0.00  0.00    -0.054 NA
BRANCH  22  26
ATOM     26  C   UNL d   1      22.980 -15.180  -1.973  0.00  0.00     0.064 C 
BRANCH  26  27
ATOM     27  C   UNL d   1      24.269 -14.883  -2.766  0.00  0.00    -0.017 C 
ATOM     28  C   UNL d   1      24.072 -13.717  -3.753  0.00  0.00     0.010 C 
ATOM     29  C   UNL d   1      25.434 -14.535  -1.849  0.00  0.00     0.010 C 
ENDBRANCH  26  27
ENDBRANCH  22  26
BRANCH  24  30
ATOM     30  N   UNL d   1      20.796 -18.953   0.069  0.00  0.00    -0.064 N 
ATOM     31  N   UNL d   1      19.905 -19.325  -0.895  0.00  0.00    -0.158 NA
ATOM     32  C   UNL d   1      18.942 -19.971  -0.229  0.00  0.00     0.054 A 
ATOM     33  C   UNL d   1      17.810 -20.613  -0.936  0.00  0.00     0.072 C 
ATOM     34  C   UNL d   1      19.142 -19.924   1.163  0.00  0.00     0.056 A 
ATOM     35  C   UNL d   1      20.345 -19.280   1.340  0.00  0.00     0.052 A 
ATOM     36  C   UNL d   1      21.037 -18.885   2.588  0.00  0.00     0.071 C 
ENDBRANCH  24  30
ENDBRANCH  19  20
ENDBRANCH   1  19
TORSDOF 12
ENDMDL
MODEL 7
REMARK VINA RESULT:   -22.465      2.487      3.937
REMARK INTER + INTRA:         -27.823
REMARK INTER:                 -26.045
REMARK INTRA:                  -1.778
REMARK CONF_INDEPENDENT:        3.580
REMARK UNBOUND:                -1.778
REMARK  12 active torsions:
REMARK  status: ('A' for Active; 'I' for Inactive)
REMARK    1  A    between atoms: C_2  and  O_3 
REMARK    2  A    between atoms: O_3  and  C_4 
REMARK    3  A    between atoms: C_7  and  O_8 
REMARK    4  A    between atoms: O_8  and  C_9 
REMARK    5  A    between atoms: C_11  and  N_12 
REMARK       I    between atoms: N_12  and  C_13 
REMARK    6  A    between atoms: C_13  and  C_15 
REMARK    7  A    between atoms: C_15  and  C_16 
REMARK    8  A    between atoms: C_16  and  S_17 
REMARK    9  A    between atoms: S_17  and  C_18 
REMARK   10  A    between atoms: C_20  and  C_21 
REMARK   11  A    between atoms: C_21  and  C_22 
REMARK   12  A    between atoms: C_26  and  N_27 
ROOT
ATOM      1  C   UNL d   1      26.927 -17.212   0.549  0.00  0.00     0.090 C 
ENDROOT
BRANCH   1   2
ATOM      2  C   UNL d   1      27.559 -17.490  -0.826  0.00  0.00     0.113 C 
BRANCH   2   3
ATOM      3  C   UNL d   1      28.502 -16.348  -1.150  0.00  0.00     0.223 C 
ATOM      4  N   UNL d   1      28.738 -16.172  -2.500  0.00  0.00    -0.325 N 
ATOM      5  H   UNL d   1      28.219 -16.799  -3.083  0.00  0.00     0.169 HD
ATOM      6  O   UNL d   1      28.985 -15.686  -0.228  0.00  0.00    -0.273 OA
BRANCH   4   7
ATOM      7  C   UNL d   1      29.563 -15.180  -3.122  0.00  0.00     0.071 A 
ATOM      8  C   UNL d   1      29.935 -15.166  -4.486  0.00  0.00     0.095 A 
ATOM      9  C   UNL d   1      30.672 -14.057  -4.973  0.00  0.00     0.042 A 
ATOM     10  C   UNL d   1      31.109 -13.024  -4.128  0.00  0.00     0.039 A 
ATOM     11  C   UNL d   1      30.772 -13.051  -2.787  0.00  0.00     0.071 A 
ATOM     12  C   UNL d   1      30.006 -14.112  -2.323  0.00  0.00     0.069 A 
BRANCH   8  13
ATOM     13  O   UNL d   1      29.703 -16.103  -5.475  0.00  0.00    -0.349 OA
BRANCH  13  14
ATOM     14  C   UNL d   1      30.242 -17.401  -5.292  0.00  0.00     0.171 C 
ATOM     15  C   UNL d   1      31.747 -17.427  -5.166  0.00  0.00     0.034 C 
ENDBRANCH  13  14
ENDBRANCH   8  13
BRANCH  11  16
ATOM     16  O   UNL d   1      31.114 -11.979  -2.005  0.00  0.00    -0.351 OA
BRANCH  16  17
ATOM     17  C   UNL d   1      30.018 -11.218  -1.473  0.00  0.00     0.171 C 
ATOM     18  C   UNL d   1      28.864 -11.260  -2.458  0.00  0.00     0.034 C 
ENDBRANCH  16  17
ENDBRANCH  11  16
ENDBRANCH   4   7
ENDBRANCH   2   3
ENDBRANCH   1   2
BRANCH   1  19
ATOM     19  S   UNL d   1      25.733 -18.539   0.983  0.00  0.00    -0.109 SA
BRANCH  19  20
ATOM     20  C   UNL d   1      24.221 -17.991   0.194  0.00  0.00     0.114 C 
ATOM     21  C   UNL d   1      24.187 -16.806  -0.491  0.00  0.00     0.067 C 
ATOM     22  C   UNL d   1      23.012 -16.434  -1.130  0.00  0.00     0.057 C 
ATOM     23  N   UNL d   1      21.901 -17.179  -1.019  0.00  0.00    -0.065 NA
ATOM     24  C   UNL d   1      21.987 -18.275  -0.225  0.00  0.00     0.751 C 
ATOM     25  N   UNL d   1      23.111 -18.704   0.403  0.00  0.00    -0.054 NA
BRANCH  22  26
ATOM     26  C   UNL d   1      22.924 -15.183  -1.985  0.00  0.00     0.064 C 
BRANCH  26  27
ATOM     27  C   UNL d   1      24.291 -14.696  -2.505  0.00  0.00    -0.017 C 
ATOM     28  C   UNL d   1      25.183 -15.871  -2.946  0.00  0.00     0.010 C 
ATOM     29  C   UNL d   1      24.145 -13.743  -3.684  0.00  0.00     0.010 C 
ENDBRANCH  26  27
ENDBRANCH  22  26
BRANCH  24  30
ATOM     30  N   UNL d   1      20.770 -18.964   0.076  0.00  0.00    -0.064 N 
ATOM     31  N   UNL d   1      19.882 -19.324  -0.895  0.00  0.00    -0.158 NA
ATOM     32  C   UNL d   1      18.926 -19.993  -0.241  0.00  0.00     0.054 A 
ATOM     33  C   UNL d   1      17.800 -20.631  -0.960  0.00  0.00     0.072 C 
ATOM     34  C   UNL d   1      19.126 -19.972   1.151  0.00  0.00     0.056 A 
ATOM     35  C   UNL d   1      20.323 -19.321   1.340  0.00  0.00     0.052 A 
ATOM     36  C   UNL d   1      21.012 -18.944   2.596  0.00  0.00     0.071 C 
ENDBRANCH  24  30
ENDBRANCH  19  20
ENDBRANCH   1  19
TORSDOF 12
ENDMDL
MODEL 8
REMARK VINA RESULT:   -22.433      2.855      4.708
REMARK INTER + INTRA:         -27.895
REMARK INTER:                 -26.013
REMARK INTRA:                  -1.882
REMARK CONF_INDEPENDENT:        3.580
REMARK UNBOUND:                -1.882
REMARK  12 active torsions:
REMARK  status: ('A' for Active; 'I' for Inactive)
REMARK    1  A    between atoms: C_2  and  O_3 
REMARK    2  A    between atoms: O_3  and  C_4 
REMARK    3  A    between atoms: C_7  and  O_8 
REMARK    4  A    between atoms: O_8  and  C_9 
REMARK    5  A    between atoms: C_11  and  N_12 
REMARK       I    between atoms: N_12  and  C_13 
REMARK    6  A    between atoms: C_13  and  C_15 
REMARK    7  A    between atoms: C_15  and  C_16 
REMARK    8  A    between atoms: C_16  and  S_17 
REMARK    9  A    between atoms: S_17  and  C_18 
REMARK   10  A    between atoms: C_20  and  C_21 
REMARK   11  A    between atoms: C_21  and  C_22 
REMARK   12  A    between atoms: C_26  and  N_27 
ROOT
ATOM      1  C   UNL d   1      26.961 -17.257   0.554  0.00  0.00     0.090 C 
ENDROOT
BRANCH   1   2
ATOM      2  C   UNL d   1      28.125 -17.852  -0.257  0.00  0.00     0.113 C 
BRANCH   2   3
ATOM      3  C   UNL d   1      28.771 -16.730  -1.045  0.00  0.00     0.223 C 
ATOM      4  N   UNL d   1      28.346 -15.465  -0.686  0.00  0.00    -0.325 N 
ATOM      5  H   UNL d   1      27.699 -15.462   0.077  0.00  0.00     0.169 HD
ATOM      6  O   UNL d   1      29.590 -17.006  -1.926  0.00  0.00    -0.273 OA
BRANCH   4   7
ATOM      7  C   UNL d   1      28.775 -14.211  -1.229  0.00  0.00     0.071 A 
ATOM      8  C   UNL d   1      29.309 -14.023  -2.525  0.00  0.00     0.095 A 
ATOM      9  C   UNL d   1      29.591 -12.702  -2.953  0.00  0.00     0.042 A 
ATOM     10  C   UNL d   1      29.434 -11.594  -2.104  0.00  0.00     0.039 A 
ATOM     11  C   UNL d   1      28.941 -11.780  -0.826  0.00  0.00     0.071 A 
ATOM     12  C   UNL d   1      28.617 -13.069  -0.427  0.00  0.00     0.069 A 
BRANCH   8  13
ATOM     13  O   UNL d   1      29.632 -14.957  -3.492  0.00  0.00    -0.349 OA
BRANCH  13  14
ATOM     14  C   UNL d   1      28.568 -15.668  -4.102  0.00  0.00     0.171 C 
ATOM     15  C   UNL d   1      27.305 -14.856  -4.267  0.00  0.00     0.034 C 
ENDBRANCH  13  14
ENDBRANCH   8  13
BRANCH  11  16
ATOM     16  O   UNL d   1      28.692 -10.674  -0.054  0.00  0.00    -0.351 OA
BRANCH  16  17
ATOM     17  C   UNL d   1      27.764 -10.861   1.026  0.00  0.00     0.171 C 
ATOM     18  C   UNL d   1      27.757  -9.614   1.892  0.00  0.00     0.034 C 
ENDBRANCH  16  17
ENDBRANCH  11  16
ENDBRANCH   4   7
ENDBRANCH   2   3
ENDBRANCH   1   2
BRANCH   1  19
ATOM     19  S   UNL d   1      25.755 -18.571   0.997  0.00  0.00    -0.109 SA
BRANCH  19  20
ATOM     20  C   UNL d   1      24.249 -18.015   0.204  0.00  0.00     0.114 C 
ATOM     21  C   UNL d   1      24.222 -16.829  -0.480  0.00  0.00     0.067 C 
ATOM     22  C   UNL d   1      23.051 -16.451  -1.122  0.00  0.00     0.057 C 
ATOM     23  N   UNL d   1      21.936 -17.191  -1.014  0.00  0.00    -0.065 NA
ATOM     24  C   UNL d   1      22.014 -18.287  -0.220  0.00  0.00     0.751 C 
ATOM     25  N   UNL d   1      23.134 -18.723   0.411  0.00  0.00    -0.054 NA
BRANCH  22  26
ATOM     26  C   UNL d   1      22.972 -15.200  -1.977  0.00  0.00     0.064 C 
BRANCH  26  27
ATOM     27  C   UNL d   1      24.281 -14.884  -2.728  0.00  0.00    -0.017 C 
ATOM     28  C   UNL d   1      24.084 -13.764  -3.766  0.00  0.00     0.010 C 
ATOM     29  C   UNL d   1      25.393 -14.460  -1.778  0.00  0.00     0.010 C 
ENDBRANCH  26  27
ENDBRANCH  22  26
BRANCH  24  30
ATOM     30  N   UNL d   1      20.793 -18.970   0.078  0.00  0.00    -0.064 N 
ATOM     31  N   UNL d   1      19.905 -19.324  -0.896  0.00  0.00    -0.158 NA
ATOM     32  C   UNL d   1      18.944 -19.989  -0.245  0.00  0.00     0.054 A 
ATOM     33  C   UNL d   1      17.816 -20.620  -0.967  0.00  0.00     0.072 C 
ATOM     34  C   UNL d   1      19.141 -19.971   1.148  0.00  0.00     0.056 A 
ATOM     35  C   UNL d   1      20.342 -19.326   1.340  0.00  0.00     0.052 A 
ATOM     36  C   UNL d   1      21.030 -18.954   2.598  0.00  0.00     0.071 C 
ENDBRANCH  24  30
ENDBRANCH  19  20
ENDBRANCH   1  19
TORSDOF 12
ENDMDL
