MODEL 1
REMARK VINA RESULT:   -10.374      0.000      0.000
REMARK INTER + INTRA:         -14.394
REMARK INTER:                 -13.357
REMARK INTRA:                  -1.037
REMARK CONF_INDEPENDENT:        2.983
REMARK UNBOUND:                -1.037
REMARK  10 active torsions:
REMARK  status: ('A' for Active; 'I' for Inactive)
REMARK    1  A    between atoms: N_2  and  C_3 
REMARK    2  A    between atoms: N_2  and  C_20 
REMARK    3  A    between atoms: C_3  and  C_4 
REMARK    4  A    between atoms: C_4  and  O_5 
REMARK    5  A    between atoms: O_5  and  C_6 
REMARK    6  A    between atoms: C_9  and  C_10 
REMARK    7  A    between atoms: C_10  and  C_11 
REMARK    8  A    between atoms: C_23  and  O_24 
REMARK    9  A    between atoms: O_24  and  C_25 
REMARK   10  A    between atoms: C_25  and  C_26 
ROOT
ATOM      1  C   UNL d   1      28.709 -14.836   0.668  0.00  0.00     0.150 C 
ENDROOT
BRANCH   1   2
ATOM      2  N   UNL d   1      29.083 -13.707   1.543  0.00  0.00    -0.370 N 
ATOM      3  C   UNL d   1      29.442 -12.396   0.991  0.00  0.00     0.151 C 
BRANCH   2   4
ATOM      4  C   UNL d   1      28.889 -13.798   2.906  0.00  0.00     0.102 A 
ATOM      5  C   UNL d   1      28.089 -12.907   3.633  0.00  0.00     0.051 A 
ATOM      6  C   UNL d   1      28.006 -12.990   5.022  0.00  0.00     0.042 A 
ATOM      7  C   UNL d   1      28.740 -13.953   5.699  0.00  0.00     0.084 A 
ATOM      8  C   UNL d   1      29.524 -14.822   4.948  0.00  0.00     0.126 A 
ATOM      9  N   UNL d   1      29.556 -14.731   3.606  0.00  0.00    -0.350 N 
ATOM     10  H   UNL d   1      30.162 -15.358   3.084  0.00  0.00     0.166 HD
BRANCH   7  11
ATOM     11  O   UNL d   1      28.768 -14.130   7.053  0.00  0.00    -0.345 OA
BRANCH  11  12
ATOM     12  C   UNL d   1      28.393 -12.999   7.851  0.00  0.00     0.214 C 
BRANCH  12  13
ATOM     13  C   UNL d   1      28.593 -13.295   9.314  0.00  0.00    -0.034 A 
ATOM     14  C   UNL d   1      27.816 -12.663  10.296  0.00  0.00     0.009 A 
ATOM     15  C   UNL d   1      28.165 -12.774  11.644  0.00  0.00     0.001 A 
ATOM     16  C   UNL d   1      29.231 -13.586  12.025  0.00  0.00     0.000 A 
ATOM     17  C   UNL d   1      29.975 -14.261  11.060  0.00  0.00     0.001 A 
ATOM     18  C   UNL d   1      29.661 -14.110   9.711  0.00  0.00     0.009 A 
ENDBRANCH  12  13
ENDBRANCH  11  12
ENDBRANCH   7  11
ENDBRANCH   2   4
ENDBRANCH   1   2
BRANCH   1  19
ATOM     19  C   UNL d   1      27.257 -15.289   0.823  0.00  0.00     0.195 C 
BRANCH  19  20
ATOM     20  O   UNL d   1      26.688 -15.554  -0.458  0.00  0.00    -0.350 OA
BRANCH  20  21
ATOM     21  C   UNL d   1      25.695 -16.491  -0.406  0.00  0.00     0.068 C 
ATOM     22  C   UNL d   1      24.416 -16.151  -0.856  0.00  0.00     0.037 C 
ATOM     23  C   UNL d   1      23.331 -17.045  -0.728  0.00  0.00     0.010 C 
ATOM     24  C   UNL d   1      23.527 -18.306  -0.170  0.00  0.00    -0.056 C 
ATOM     25  C   UNL d   1      24.799 -18.547   0.339  0.00  0.00     0.010 C 
ATOM     26  C   UNL d   1      25.883 -17.716   0.187  0.00  0.00     0.037 C 
BRANCH  24  27
ATOM     27  C   UNL d   1      22.451 -19.385  -0.184  0.00  0.00     0.063 C 
BRANCH  27  28
ATOM     28  C   UNL d   1      20.986 -18.950   0.116  0.00  0.00     0.153 C 
ATOM     29  S   UNL d   1      20.267 -19.340   1.767  0.00  0.00    -0.054 SA
ATOM     30  C   UNL d   1      19.080 -20.451   1.089  0.00  0.00     0.287 C 
ATOM     31  O   UNL d   1      18.527 -21.326   1.722  0.00  0.00    -0.260 OA
ATOM     32  N   UNL d   1      19.070 -20.347  -0.270  0.00  0.00    -0.287 N 
ATOM     33  C   UNL d   1      20.074 -19.650  -0.879  0.00  0.00     0.239 C 
ATOM     34  H   UNL d   1      18.634 -21.084  -0.803  0.00  0.00     0.172 HD
ATOM     35  O   UNL d   1      20.271 -19.706  -2.088  0.00  0.00    -0.272 OA
ENDBRANCH  27  28
ENDBRANCH  24  27
ENDBRANCH  20  21
ENDBRANCH  19  20
ENDBRANCH   1  19
TORSDOF 10
ENDMDL
MODEL 2
REMARK VINA RESULT:    -9.766      3.613     11.364
REMARK INTER + INTRA:         -13.789
REMARK INTER:                 -12.749
REMARK INTRA:                  -1.039
REMARK CONF_INDEPENDENT:        2.983
REMARK UNBOUND:                -1.039
REMARK  10 active torsions:
REMARK  status: ('A' for Active; 'I' for Inactive)
REMARK    1  A    between atoms: N_2  and  C_3 
REMARK    2  A    between atoms: N_2  and  C_20 
REMARK    3  A    between atoms: C_3  and  C_4 
REMARK    4  A    between atoms: C_4  and  O_5 
REMARK    5  A    between atoms: O_5  and  C_6 
REMARK    6  A    between atoms: C_9  and  C_10 
REMARK    7  A    between atoms: C_10  and  C_11 
REMARK    8  A    between atoms: C_23  and  O_24 
REMARK    9  A    between atoms: O_24  and  C_25 
REMARK   10  A    between atoms: C_25  and  C_26 
ROOT
ATOM      1  C   UNL d   1      28.130 -15.882  -0.066  0.00  0.00     0.150 C 
ENDROOT
BRANCH   1   2
ATOM      2  N   UNL d   1      27.084 -15.908  -1.107  0.00  0.00    -0.370 N 
ATOM      3  C   UNL d   1      27.301 -15.303  -2.427  0.00  0.00     0.151 C 
BRANCH   2   4
ATOM      4  C   UNL d   1      25.963 -16.693  -0.939  0.00  0.00     0.102 A 
ATOM      5  C   UNL d   1      24.803 -16.560  -1.714  0.00  0.00     0.051 A 
ATOM      6  C   UNL d   1      23.666 -17.318  -1.437  0.00  0.00     0.042 A 
ATOM      7  C   UNL d   1      23.671 -18.200  -0.367  0.00  0.00     0.084 A 
ATOM      8  C   UNL d   1      24.838 -18.309   0.382  0.00  0.00     0.126 A 
ATOM      9  N   UNL d   1      25.926 -17.584   0.067  0.00  0.00    -0.350 N 
ATOM     10  H   UNL d   1      26.755 -17.659   0.650  0.00  0.00     0.166 HD
BRANCH   7  11
ATOM     11  O   UNL d   1      22.624 -18.983   0.028  0.00  0.00    -0.345 OA
BRANCH  11  12
ATOM     12  C   UNL d   1      21.345 -18.669  -0.539  0.00  0.00     0.214 C 
BRANCH  12  13
ATOM     13  C   UNL d   1      20.243 -19.342   0.236  0.00  0.00    -0.034 A 
ATOM     14  C   UNL d   1      20.273 -19.403   1.637  0.00  0.00     0.009 A 
ATOM     15  C   UNL d   1      19.372 -20.222   2.321  0.00  0.00     0.001 A 
ATOM     16  C   UNL d   1      18.382 -20.909   1.622  0.00  0.00     0.000 A 
ATOM     17  C   UNL d   1      18.311 -20.811   0.234  0.00  0.00     0.001 A 
ATOM     18  C   UNL d   1      19.241 -20.036  -0.456  0.00  0.00     0.009 A 
ENDBRANCH  12  13
ENDBRANCH  11  12
ENDBRANCH   7  11
ENDBRANCH   2   4
ENDBRANCH   1   2
BRANCH   1  19
ATOM     19  C   UNL d   1      27.629 -15.434   1.307  0.00  0.00     0.195 C 
BRANCH  19  20
ATOM     20  O   UNL d   1      28.234 -14.193   1.667  0.00  0.00    -0.350 OA
BRANCH  20  21
ATOM     21  C   UNL d   1      28.372 -14.051   3.019  0.00  0.00     0.068 C 
ATOM     22  C   UNL d   1      29.649 -14.121   3.582  0.00  0.00     0.037 C 
ATOM     23  C   UNL d   1      29.838 -14.084   4.981  0.00  0.00     0.010 C 
ATOM     24  C   UNL d   1      28.742 -13.949   5.829  0.00  0.00    -0.056 C 
ATOM     25  C   UNL d   1      27.496 -13.976   5.212  0.00  0.00     0.010 C 
ATOM     26  C   UNL d   1      27.285 -13.963   3.854  0.00  0.00     0.037 C 
BRANCH  24  27
ATOM     27  C   UNL d   1      28.890 -13.705   7.327  0.00  0.00     0.063 C 
BRANCH  27  28
ATOM     28  C   UNL d   1      29.973 -12.685   7.790  0.00  0.00     0.153 C 
ATOM     29  S   UNL d   1      30.846 -12.985   9.385  0.00  0.00    -0.054 SA
ATOM     30  C   UNL d   1      30.148 -11.555  10.141  0.00  0.00     0.287 C 
ATOM     31  O   UNL d   1      30.056 -11.394  11.339  0.00  0.00    -0.260 OA
ATOM     32  N   UNL d   1      29.515 -10.797   9.202  0.00  0.00    -0.287 N 
ATOM     33  C   UNL d   1      29.303 -11.332   7.964  0.00  0.00     0.239 C 
ATOM     34  H   UNL d   1      28.864 -10.092   9.515  0.00  0.00     0.172 HD
ATOM     35  O   UNL d   1      28.543 -10.819   7.149  0.00  0.00    -0.272 OA
ENDBRANCH  27  28
ENDBRANCH  24  27
ENDBRANCH  20  21
ENDBRANCH  19  20
ENDBRANCH   1  19
TORSDOF 10
ENDMDL
MODEL 3
REMARK VINA RESULT:    -9.120      3.370     11.041
REMARK INTER + INTRA:         -13.382
REMARK INTER:                 -12.103
REMARK INTRA:                  -1.278
REMARK CONF_INDEPENDENT:        2.983
REMARK UNBOUND:                -1.278
REMARK  10 active torsions:
REMARK  status: ('A' for Active; 'I' for Inactive)
REMARK    1  A    between atoms: N_2  and  C_3 
REMARK    2  A    between atoms: N_2  and  C_20 
REMARK    3  A    between atoms: C_3  and  C_4 
REMARK    4  A    between atoms: C_4  and  O_5 
REMARK    5  A    between atoms: O_5  and  C_6 
REMARK    6  A    between atoms: C_9  and  C_10 
REMARK    7  A    between atoms: C_10  and  C_11 
REMARK    8  A    between atoms: C_23  and  O_24 
REMARK    9  A    between atoms: O_24  and  C_25 
REMARK   10  A    between atoms: C_25  and  C_26 
ROOT
ATOM      1  C   UNL d   1      28.276 -14.105  -0.703  0.00  0.00     0.150 C 
ENDROOT
BRANCH   1   2
ATOM      2  N   UNL d   1      27.954 -15.458  -1.198  0.00  0.00    -0.370 N 
ATOM      3  C   UNL d   1      28.899 -16.218  -2.023  0.00  0.00     0.151 C 
BRANCH   2   4
ATOM      4  C   UNL d   1      26.847 -16.124  -0.713  0.00  0.00     0.102 A 
ATOM      5  C   UNL d   1      26.925 -17.206   0.175  0.00  0.00     0.051 A 
ATOM      6  C   UNL d   1      25.779 -17.902   0.558  0.00  0.00     0.042 A 
ATOM      7  C   UNL d   1      24.546 -17.535   0.039  0.00  0.00     0.084 A 
ATOM      8  C   UNL d   1      24.503 -16.457  -0.839  0.00  0.00     0.126 A 
ATOM      9  N   UNL d   1      25.626 -15.791  -1.163  0.00  0.00    -0.350 N 
ATOM     10  H   UNL d   1      25.571 -15.027  -1.831  0.00  0.00     0.166 HD
BRANCH   7  11
ATOM     11  O   UNL d   1      23.353 -18.141   0.311  0.00  0.00    -0.345 OA
BRANCH  11  12
ATOM     12  C   UNL d   1      22.463 -18.322  -0.798  0.00  0.00     0.214 C 
BRANCH  12  13
ATOM     13  C   UNL d   1      21.218 -19.050  -0.364  0.00  0.00    -0.034 A 
ATOM     14  C   UNL d   1      20.185 -19.327  -1.271  0.00  0.00     0.009 A 
ATOM     15  C   UNL d   1      18.953 -19.793  -0.808  0.00  0.00     0.001 A 
ATOM     16  C   UNL d   1      18.776 -20.073   0.546  0.00  0.00     0.000 A 
ATOM     17  C   UNL d   1      19.815 -19.852   1.447  0.00  0.00     0.001 A 
ATOM     18  C   UNL d   1      21.028 -19.337   0.994  0.00  0.00     0.009 A 
ENDBRANCH  12  13
ENDBRANCH  11  12
ENDBRANCH   7  11
ENDBRANCH   2   4
ENDBRANCH   1   2
BRANCH   1  19
ATOM     19  C   UNL d   1      27.801 -13.836   0.725  0.00  0.00     0.195 C 
BRANCH  19  20
ATOM     20  O   UNL d   1      28.715 -14.408   1.660  0.00  0.00    -0.350 OA
BRANCH  20  21
ATOM     21  C   UNL d   1      28.596 -13.863   2.908  0.00  0.00     0.068 C 
ATOM     22  C   UNL d   1      29.721 -13.294   3.511  0.00  0.00     0.037 C 
ATOM     23  C   UNL d   1      29.678 -12.812   4.837  0.00  0.00     0.010 C 
ATOM     24  C   UNL d   1      28.491 -12.872   5.563  0.00  0.00    -0.056 C 
ATOM     25  C   UNL d   1      27.437 -13.531   4.940  0.00  0.00     0.010 C 
ATOM     26  C   UNL d   1      27.436 -13.966   3.636  0.00  0.00     0.037 C 
BRANCH  24  27
ATOM     27  C   UNL d   1      28.324 -12.194   6.918  0.00  0.00     0.063 C 
BRANCH  27  28
ATOM     28  C   UNL d   1      29.262 -12.650   8.076  0.00  0.00     0.153 C 
ATOM     29  S   UNL d   1      28.884 -14.226   8.953  0.00  0.00    -0.054 SA
ATOM     30  C   UNL d   1      28.533 -13.403  10.470  0.00  0.00     0.287 C 
ATOM     31  O   UNL d   1      27.862 -13.877  11.363  0.00  0.00    -0.260 OA
ATOM     32  N   UNL d   1      28.903 -12.094  10.385  0.00  0.00    -0.287 N 
ATOM     33  C   UNL d   1      29.224 -11.585   9.159  0.00  0.00     0.239 C 
ATOM     34  H   UNL d   1      28.539 -11.449  11.070  0.00  0.00     0.172 HD
ATOM     35  O   UNL d   1      29.334 -10.380   8.959  0.00  0.00    -0.272 OA
ENDBRANCH  27  28
ENDBRANCH  24  27
ENDBRANCH  20  21
ENDBRANCH  19  20
ENDBRANCH   1  19
TORSDOF 10
ENDMDL
MODEL 4
REMARK VINA RESULT:    -9.054      7.270     11.211
REMARK INTER + INTRA:         -14.237
REMARK INTER:                 -12.037
REMARK INTRA:                  -2.200
REMARK CONF_INDEPENDENT:        2.983
REMARK UNBOUND:                -2.200
REMARK  10 active torsions:
REMARK  status: ('A' for Active; 'I' for Inactive)
REMARK    1  A    between atoms: N_2  and  C_3 
REMARK    2  A    between atoms: N_2  and  C_20 
REMARK    3  A    between atoms: C_3  and  C_4 
REMARK    4  A    between atoms: C_4  and  O_5 
REMARK    5  A    between atoms: O_5  and  C_6 
REMARK    6  A    between atoms: C_9  and  C_10 
REMARK    7  A    between atoms: C_10  and  C_11 
REMARK    8  A    between atoms: C_23  and  O_24 
REMARK    9  A    between atoms: O_24  and  C_25 
REMARK   10  A    between atoms: C_25  and  C_26 
ROOT
ATOM      1  C   UNL d   1      26.518 -14.196  -2.113  0.00  0.00     0.150 C 
ENDROOT
BRANCH   1   2
ATOM      2  N   UNL d   1      26.774 -15.644  -1.990  0.00  0.00    -0.370 N 
ATOM      3  C   UNL d   1      28.101 -16.213  -2.251  0.00  0.00     0.151 C 
BRANCH   2   4
ATOM      4  C   UNL d   1      25.827 -16.466  -1.415  0.00  0.00     0.102 A 
ATOM      5  C   UNL d   1      26.085 -17.286  -0.308  0.00  0.00     0.051 A 
ATOM      6  C   UNL d   1      25.117 -18.166   0.172  0.00  0.00     0.042 A 
ATOM      7  C   UNL d   1      23.887 -18.250  -0.463  0.00  0.00     0.084 A 
ATOM      8  C   UNL d   1      23.662 -17.422  -1.558  0.00  0.00     0.126 A 
ATOM      9  N   UNL d   1      24.609 -16.564  -1.976  0.00  0.00    -0.350 N 
ATOM     10  H   UNL d   1      24.430 -15.993  -2.797  0.00  0.00     0.166 HD
BRANCH   7  11
ATOM     11  O   UNL d   1      22.862 -19.081  -0.112  0.00  0.00    -0.345 OA
BRANCH  11  12
ATOM     12  C   UNL d   1      21.547 -18.677  -0.518  0.00  0.00     0.214 C 
BRANCH  12  13
ATOM     13  C   UNL d   1      20.501 -19.512   0.172  0.00  0.00    -0.034 A 
ATOM     14  C   UNL d   1      19.433 -20.074  -0.542  0.00  0.00     0.009 A 
ATOM     15  C   UNL d   1      18.358 -20.647   0.141  0.00  0.00     0.001 A 
ATOM     16  C   UNL d   1      18.385 -20.744   1.531  0.00  0.00     0.000 A 
ATOM     17  C   UNL d   1      19.468 -20.237   2.245  0.00  0.00     0.001 A 
ATOM     18  C   UNL d   1      20.517 -19.618   1.569  0.00  0.00     0.009 A 
ENDBRANCH  12  13
ENDBRANCH  11  12
ENDBRANCH   7  11
ENDBRANCH   2   4
ENDBRANCH   1   2
BRANCH   1  19
ATOM     19  C   UNL d   1      25.196 -13.854  -2.802  0.00  0.00     0.195 C 
BRANCH  19  20
ATOM     20  O   UNL d   1      25.116 -14.520  -4.061  0.00  0.00    -0.350 OA
BRANCH  20  21
ATOM     21  C   UNL d   1      26.127 -14.161  -4.908  0.00  0.00     0.068 C 
ATOM     22  C   UNL d   1      26.976 -15.151  -5.410  0.00  0.00     0.037 C 
ATOM     23  C   UNL d   1      28.096 -14.824  -6.204  0.00  0.00     0.010 C 
ATOM     24  C   UNL d   1      28.361 -13.495  -6.524  0.00  0.00    -0.056 C 
ATOM     25  C   UNL d   1      27.534 -12.554  -5.920  0.00  0.00     0.010 C 
ATOM     26  C   UNL d   1      26.410 -12.846  -5.183  0.00  0.00     0.037 C 
BRANCH  24  27
ATOM     27  C   UNL d   1      29.430 -13.091  -7.532  0.00  0.00     0.063 C 
BRANCH  27  28
ATOM     28  C   UNL d   1      29.178 -11.810  -8.381  0.00  0.00     0.153 C 
ATOM     29  S   UNL d   1      28.808 -10.229  -7.510  0.00  0.00    -0.054 SA
ATOM     30  C   UNL d   1      27.169 -10.154  -8.150  0.00  0.00     0.287 C 
ATOM     31  O   UNL d   1      26.270  -9.514  -7.647  0.00  0.00    -0.260 OA
ATOM     32  N   UNL d   1      27.005 -11.099  -9.118  0.00  0.00    -0.287 N 
ATOM     33  C   UNL d   1      27.965 -12.060  -9.262  0.00  0.00     0.239 C 
ATOM     34  H   UNL d   1      26.066 -11.343  -9.395  0.00  0.00     0.172 HD
ATOM     35  O   UNL d   1      27.787 -13.069  -9.936  0.00  0.00    -0.272 OA
ENDBRANCH  27  28
ENDBRANCH  24  27
ENDBRANCH  20  21
ENDBRANCH  19  20
ENDBRANCH   1  19
TORSDOF 10
ENDMDL
MODEL 5
REMARK VINA RESULT:    -8.988      6.446     10.884
REMARK INTER + INTRA:         -13.399
REMARK INTER:                 -11.971
REMARK INTRA:                  -1.428
REMARK CONF_INDEPENDENT:        2.983
REMARK UNBOUND:                -1.428
REMARK  10 active torsions:
REMARK  status: ('A' for Active; 'I' for Inactive)
REMARK    1  A    between atoms: N_2  and  C_3 
REMARK    2  A    between atoms: N_2  and  C_20 
REMARK    3  A    between atoms: C_3  and  C_4 
REMARK    4  A    between atoms: C_4  and  O_5 
REMARK    5  A    between atoms: O_5  and  C_6 
REMARK    6  A    between atoms: C_9  and  C_10 
REMARK    7  A    between atoms: C_10  and  C_11 
REMARK    8  A    between atoms: C_23  and  O_24 
REMARK    9  A    between atoms: O_24  and  C_25 
REMARK   10  A    between atoms: C_25  and  C_26 
ROOT
ATOM      1  C   UNL d   1      26.508 -14.566   0.244  0.00  0.00     0.150 C 
ENDROOT
BRANCH   1   2
ATOM      2  N   UNL d   1      26.658 -15.995  -0.094  0.00  0.00    -0.370 N 
ATOM      3  C   UNL d   1      27.921 -16.707   0.132  0.00  0.00     0.151 C 
BRANCH   2   4
ATOM      4  C   UNL d   1      25.549 -16.746  -0.424  0.00  0.00     0.102 A 
ATOM      5  C   UNL d   1      24.399 -16.206  -1.015  0.00  0.00     0.051 A 
ATOM      6  C   UNL d   1      23.272 -16.995  -1.239  0.00  0.00     0.042 A 
ATOM      7  C   UNL d   1      23.277 -18.328  -0.854  0.00  0.00     0.084 A 
ATOM      8  C   UNL d   1      24.435 -18.833  -0.271  0.00  0.00     0.126 A 
ATOM      9  N   UNL d   1      25.513 -18.049  -0.097  0.00  0.00    -0.350 N 
ATOM     10  H   UNL d   1      26.334 -18.435   0.361  0.00  0.00     0.166 HD
BRANCH   7  11
ATOM     11  O   UNL d   1      22.239 -19.203  -0.994  0.00  0.00    -0.345 OA
BRANCH  11  12
ATOM     12  C   UNL d   1      20.920 -18.653  -0.869  0.00  0.00     0.214 C 
BRANCH  12  13
ATOM     13  C   UNL d   1      20.061 -19.533   0.000  0.00  0.00    -0.034 A 
ATOM     14  C   UNL d   1      18.939 -20.196  -0.521  0.00  0.00     0.009 A 
ATOM     15  C   UNL d   1      18.031 -20.816   0.339  0.00  0.00     0.001 A 
ATOM     16  C   UNL d   1      18.283 -20.860   1.709  0.00  0.00     0.000 A 
ATOM     17  C   UNL d   1      19.422 -20.251   2.229  0.00  0.00     0.001 A 
ATOM     18  C   UNL d   1      20.304 -19.585   1.379  0.00  0.00     0.009 A 
ENDBRANCH  12  13
ENDBRANCH  11  12
ENDBRANCH   7  11
ENDBRANCH   2   4
ENDBRANCH   1   2
BRANCH   1  19
ATOM     19  C   UNL d   1      26.676 -13.624  -0.949  0.00  0.00     0.195 C 
BRANCH  19  20
ATOM     20  O   UNL d   1      25.891 -14.084  -2.049  0.00  0.00    -0.350 OA
BRANCH  20  21
ATOM     21  C   UNL d   1      26.652 -14.385  -3.144  0.00  0.00     0.068 C 
ATOM     22  C   UNL d   1      27.704 -15.296  -3.009  0.00  0.00     0.037 C 
ATOM     23  C   UNL d   1      28.584 -15.564  -4.080  0.00  0.00     0.010 C 
ATOM     24  C   UNL d   1      28.397 -14.938  -5.310  0.00  0.00    -0.056 C 
ATOM     25  C   UNL d   1      27.391 -13.978  -5.351  0.00  0.00     0.010 C 
ATOM     26  C   UNL d   1      26.492 -13.732  -4.340  0.00  0.00     0.037 C 
BRANCH  24  27
ATOM     27  C   UNL d   1      29.183 -15.328  -6.556  0.00  0.00     0.063 C 
BRANCH  27  28
ATOM     28  C   UNL d   1      30.667 -15.762  -6.370  0.00  0.00     0.153 C 
ATOM     29  S   UNL d   1      31.855 -15.469  -7.748  0.00  0.00    -0.054 SA
ATOM     30  C   UNL d   1      32.096 -17.192  -8.027  0.00  0.00     0.287 C 
ATOM     31  O   UNL d   1      32.507 -17.663  -9.066  0.00  0.00    -0.260 OA
ATOM     32  N   UNL d   1      31.525 -17.910  -7.018  0.00  0.00    -0.287 N 
ATOM     33  C   UNL d   1      30.694 -17.265  -6.147  0.00  0.00     0.239 C 
ATOM     34  H   UNL d   1      31.363 -18.895  -7.165  0.00  0.00     0.172 HD
ATOM     35  O   UNL d   1      29.964 -17.870  -5.369  0.00  0.00    -0.272 OA
ENDBRANCH  27  28
ENDBRANCH  24  27
ENDBRANCH  20  21
ENDBRANCH  19  20
ENDBRANCH   1  19
TORSDOF 10
ENDMDL
MODEL 6
REMARK VINA RESULT:    -8.932      3.677     10.986
REMARK INTER + INTRA:         -13.428
REMARK INTER:                 -11.915
REMARK INTRA:                  -1.513
REMARK CONF_INDEPENDENT:        2.983
REMARK UNBOUND:                -1.513
REMARK  10 active torsions:
REMARK  status: ('A' for Active; 'I' for Inactive)
REMARK    1  A    between atoms: N_2  and  C_3 
REMARK    2  A    between atoms: N_2  and  C_20 
REMARK    3  A    between atoms: C_3  and  C_4 
REMARK    4  A    between atoms: C_4  and  O_5 
REMARK    5  A    between atoms: O_5  and  C_6 
REMARK    6  A    between atoms: C_9  and  C_10 
REMARK    7  A    between atoms: C_10  and  C_11 
REMARK    8  A    between atoms: C_23  and  O_24 
REMARK    9  A    between atoms: O_24  and  C_25 
REMARK   10  A    between atoms: C_25  and  C_26 
ROOT
ATOM      1  C   UNL d   1      28.472 -16.503   0.010  0.00  0.00     0.150 C 
ENDROOT
BRANCH   1   2
ATOM      2  N   UNL d   1      27.518 -16.293  -1.096  0.00  0.00    -0.370 N 
ATOM      3  C   UNL d   1      27.975 -15.956  -2.449  0.00  0.00     0.151 C 
BRANCH   2   4
ATOM      4  C   UNL d   1      26.189 -16.626  -0.933  0.00  0.00     0.102 A 
ATOM      5  C   UNL d   1      25.138 -15.936  -1.553  0.00  0.00     0.051 A 
ATOM      6  C   UNL d   1      23.810 -16.257  -1.277  0.00  0.00     0.042 A 
ATOM      7  C   UNL d   1      23.520 -17.257  -0.360  0.00  0.00     0.084 A 
ATOM      8  C   UNL d   1      24.586 -17.923   0.237  0.00  0.00     0.126 A 
ATOM      9  N   UNL d   1      25.854 -17.606  -0.076  0.00  0.00    -0.350 N 
ATOM     10  H   UNL d   1      26.614 -18.086   0.398  0.00  0.00     0.166 HD
BRANCH   7  11
ATOM     11  O   UNL d   1      22.269 -17.655   0.018  0.00  0.00    -0.345 OA
BRANCH  11  12
ATOM     12  C   UNL d   1      21.594 -18.559  -0.867  0.00  0.00     0.214 C 
BRANCH  12  13
ATOM     13  C   UNL d   1      20.564 -19.362  -0.117  0.00  0.00    -0.034 A 
ATOM     14  C   UNL d   1      19.450 -19.906  -0.773  0.00  0.00     0.009 A 
ATOM     15  C   UNL d   1      18.397 -20.447  -0.031  0.00  0.00     0.001 A 
ATOM     16  C   UNL d   1      18.490 -20.532   1.357  0.00  0.00     0.000 A 
ATOM     17  C   UNL d   1      19.618 -20.042   2.012  0.00  0.00     0.001 A 
ATOM     18  C   UNL d   1      20.647 -19.455   1.278  0.00  0.00     0.009 A 
ENDBRANCH  12  13
ENDBRANCH  11  12
ENDBRANCH   7  11
ENDBRANCH   2   4
ENDBRANCH   1   2
BRANCH   1  19
ATOM     19  C   UNL d   1      29.034 -15.209   0.600  0.00  0.00     0.195 C 
BRANCH  19  20
ATOM     20  O   UNL d   1      27.975 -14.286   0.850  0.00  0.00    -0.350 OA
BRANCH  20  21
ATOM     21  C   UNL d   1      27.898 -13.923   2.166  0.00  0.00     0.068 C 
ATOM     22  C   UNL d   1      27.719 -12.575   2.488  0.00  0.00     0.037 C 
ATOM     23  C   UNL d   1      27.736 -12.133   3.829  0.00  0.00     0.010 C 
ATOM     24  C   UNL d   1      27.906 -13.050   4.864  0.00  0.00    -0.056 C 
ATOM     25  C   UNL d   1      28.168 -14.358   4.472  0.00  0.00     0.010 C 
ATOM     26  C   UNL d   1      28.111 -14.824   3.180  0.00  0.00     0.037 C 
BRANCH  24  27
ATOM     27  C   UNL d   1      27.737 -12.671   6.330  0.00  0.00     0.063 C 
BRANCH  27  28
ATOM     28  C   UNL d   1      28.966 -12.059   7.066  0.00  0.00     0.153 C 
ATOM     29  S   UNL d   1      29.588 -10.410   6.530  0.00  0.00    -0.054 SA
ATOM     30  C   UNL d   1      31.117 -11.072   5.957  0.00  0.00     0.287 C 
ATOM     31  O   UNL d   1      31.835 -10.525   5.146  0.00  0.00    -0.260 OA
ATOM     32  N   UNL d   1      31.240 -12.369   6.357  0.00  0.00    -0.287 N 
ATOM     33  C   UNL d   1      30.145 -12.999   6.875  0.00  0.00     0.239 C 
ATOM     34  H   UNL d   1      31.930 -12.947   5.900  0.00  0.00     0.172 HD
ATOM     35  O   UNL d   1      30.103 -14.214   7.036  0.00  0.00    -0.272 OA
ENDBRANCH  27  28
ENDBRANCH  24  27
ENDBRANCH  20  21
ENDBRANCH  19  20
ENDBRANCH   1  19
TORSDOF 10
ENDMDL
MODEL 7
REMARK VINA RESULT:    -8.611      4.926      7.814
REMARK INTER + INTRA:         -13.794
REMARK INTER:                 -11.594
REMARK INTRA:                  -2.199
REMARK CONF_INDEPENDENT:        2.983
REMARK UNBOUND:                -2.199
REMARK  10 active torsions:
REMARK  status: ('A' for Active; 'I' for Inactive)
REMARK    1  A    between atoms: N_2  and  C_3 
REMARK    2  A    between atoms: N_2  and  C_20 
REMARK    3  A    between atoms: C_3  and  C_4 
REMARK    4  A    between atoms: C_4  and  O_5 
REMARK    5  A    between atoms: O_5  and  C_6 
REMARK    6  A    between atoms: C_9  and  C_10 
REMARK    7  A    between atoms: C_10  and  C_11 
REMARK    8  A    between atoms: C_23  and  O_24 
REMARK    9  A    between atoms: O_24  and  C_25 
REMARK   10  A    between atoms: C_25  and  C_26 
ROOT
ATOM      1  C   UNL d   1      28.480 -15.213   0.913  0.00  0.00     0.150 C 
ENDROOT
BRANCH   1   2
ATOM      2  N   UNL d   1      29.608 -14.371   0.471  0.00  0.00    -0.370 N 
ATOM      3  C   UNL d   1      30.902 -14.398   1.161  0.00  0.00     0.151 C 
BRANCH   2   4
ATOM      4  C   UNL d   1      29.538 -13.703  -0.734  0.00  0.00     0.102 A 
ATOM      5  C   UNL d   1      28.773 -12.546  -0.933  0.00  0.00     0.051 A 
ATOM      6  C   UNL d   1      28.665 -11.967  -2.197  0.00  0.00     0.042 A 
ATOM      7  C   UNL d   1      29.305 -12.554  -3.279  0.00  0.00     0.084 A 
ATOM      8  C   UNL d   1      30.057 -13.701  -3.048  0.00  0.00     0.126 A 
ATOM      9  N   UNL d   1      30.162 -14.214  -1.809  0.00  0.00    -0.350 N 
ATOM     10  H   UNL d   1      30.691 -15.071  -1.674  0.00  0.00     0.166 HD
BRANCH   7  11
ATOM     11  O   UNL d   1      29.264 -12.107  -4.569  0.00  0.00    -0.345 OA
BRANCH  11  12
ATOM     12  C   UNL d   1      27.963 -11.860  -5.117  0.00  0.00     0.214 C 
BRANCH  12  13
ATOM     13  C   UNL d   1      27.048 -13.027  -4.853  0.00  0.00    -0.034 A 
ATOM     14  C   UNL d   1      25.836 -12.859  -4.168  0.00  0.00     0.009 A 
ATOM     15  C   UNL d   1      25.117 -13.975  -3.735  0.00  0.00     0.001 A 
ATOM     16  C   UNL d   1      25.552 -15.258  -4.061  0.00  0.00     0.000 A 
ATOM     17  C   UNL d   1      26.728 -15.432  -4.789  0.00  0.00     0.001 A 
ATOM     18  C   UNL d   1      27.475 -14.321  -5.177  0.00  0.00     0.009 A 
ENDBRANCH  12  13
ENDBRANCH  11  12
ENDBRANCH   7  11
ENDBRANCH   2   4
ENDBRANCH   1   2
BRANCH   1  19
ATOM     19  C   UNL d   1      27.843 -16.037  -0.206  0.00  0.00     0.195 C 
BRANCH  19  20
ATOM     20  O   UNL d   1      26.565 -15.499  -0.542  0.00  0.00    -0.350 OA
BRANCH  20  21
ATOM     21  C   UNL d   1      25.575 -16.441  -0.507  0.00  0.00     0.068 C 
ATOM     22  C   UNL d   1      24.314 -16.119  -1.018  0.00  0.00     0.037 C 
ATOM     23  C   UNL d   1      23.230 -17.017  -0.913  0.00  0.00     0.010 C 
ATOM     24  C   UNL d   1      23.409 -18.262  -0.316  0.00  0.00    -0.056 C 
ATOM     25  C   UNL d   1      24.660 -18.483   0.251  0.00  0.00     0.010 C 
ATOM     26  C   UNL d   1      25.745 -17.649   0.123  0.00  0.00     0.037 C 
BRANCH  24  27
ATOM     27  C   UNL d   1      22.341 -19.349  -0.348  0.00  0.00     0.063 C 
BRANCH  27  28
ATOM     28  C   UNL d   1      20.883 -18.941   0.022  0.00  0.00     0.153 C 
ATOM     29  S   UNL d   1      20.249 -19.348   1.703  0.00  0.00    -0.054 SA
ATOM     30  C   UNL d   1      19.052 -20.479   1.076  0.00  0.00     0.287 C 
ATOM     31  O   UNL d   1      18.544 -21.365   1.730  0.00  0.00    -0.260 OA
ATOM     32  N   UNL d   1      18.977 -20.371  -0.280  0.00  0.00    -0.287 N 
ATOM     33  C   UNL d   1      19.939 -19.654  -0.932  0.00  0.00     0.239 C 
ATOM     34  H   UNL d   1      18.530 -21.115  -0.795  0.00  0.00     0.172 HD
ATOM     35  O   UNL d   1      20.081 -19.703  -2.149  0.00  0.00    -0.272 OA
ENDBRANCH  27  28
ENDBRANCH  24  27
ENDBRANCH  20  21
ENDBRANCH  19  20
ENDBRANCH   1  19
TORSDOF 10
ENDMDL
MODEL 8
REMARK VINA RESULT:    -8.185      3.845     10.797
REMARK INTER + INTRA:         -13.440
REMARK INTER:                 -11.168
REMARK INTRA:                  -2.271
REMARK CONF_INDEPENDENT:        2.983
REMARK UNBOUND:                -2.271
REMARK  10 active torsions:
REMARK  status: ('A' for Active; 'I' for Inactive)
REMARK    1  A    between atoms: N_2  and  C_3 
REMARK    2  A    between atoms: N_2  and  C_20 
REMARK    3  A    between atoms: C_3  and  C_4 
REMARK    4  A    between atoms: C_4  and  O_5 
REMARK    5  A    between atoms: O_5  and  C_6 
REMARK    6  A    between atoms: C_9  and  C_10 
REMARK    7  A    between atoms: C_10  and  C_11 
REMARK    8  A    between atoms: C_23  and  O_24 
REMARK    9  A    between atoms: O_24  and  C_25 
REMARK   10  A    between atoms: C_25  and  C_26 
ROOT
ATOM      1  C   UNL d   1      28.667 -12.443   2.976  0.00  0.00     0.150 C 
ENDROOT
BRANCH   1   2
ATOM      2  N   UNL d   1      29.474 -13.286   2.072  0.00  0.00    -0.370 N 
ATOM      3  C   UNL d   1      30.932 -13.378   2.207  0.00  0.00     0.151 C 
BRANCH   2   4
ATOM      4  C   UNL d   1      28.851 -14.176   1.221  0.00  0.00     0.102 A 
ATOM      5  C   UNL d   1      28.731 -13.968  -0.160  0.00  0.00     0.051 A 
ATOM      6  C   UNL d   1      28.009 -14.856  -0.957  0.00  0.00     0.042 A 
ATOM      7  C   UNL d   1      27.381 -15.948  -0.377  0.00  0.00     0.084 A 
ATOM      8  C   UNL d   1      27.521 -16.125   0.996  0.00  0.00     0.126 A 
ATOM      9  N   UNL d   1      28.250 -15.265   1.728  0.00  0.00    -0.350 N 
ATOM     10  H   UNL d   1      28.308 -15.400   2.734  0.00  0.00     0.166 HD
BRANCH   7  11
ATOM     11  O   UNL d   1      26.628 -16.878  -1.033  0.00  0.00    -0.345 OA
BRANCH  11  12
ATOM     12  C   UNL d   1      26.028 -17.899  -0.224  0.00  0.00     0.214 C 
BRANCH  12  13
ATOM     13  C   UNL d   1      24.527 -17.844  -0.332  0.00  0.00    -0.034 A 
ATOM     14  C   UNL d   1      23.768 -19.013  -0.492  0.00  0.00     0.009 A 
ATOM     15  C   UNL d   1      22.412 -18.927  -0.817  0.00  0.00     0.001 A 
ATOM     16  C   UNL d   1      21.788 -17.684  -0.892  0.00  0.00     0.000 A 
ATOM     17  C   UNL d   1      22.524 -16.520  -0.681  0.00  0.00     0.001 A 
ATOM     18  C   UNL d   1      23.888 -16.600  -0.408  0.00  0.00     0.009 A 
ENDBRANCH  12  13
ENDBRANCH  11  12
ENDBRANCH   7  11
ENDBRANCH   2   4
ENDBRANCH   1   2
BRANCH   1  19
ATOM     19  C   UNL d   1      27.202 -12.868   3.080  0.00  0.00     0.195 C 
BRANCH  19  20
ATOM     20  O   UNL d   1      27.076 -13.968   3.980  0.00  0.00    -0.350 OA
BRANCH  20  21
ATOM     21  C   UNL d   1      27.981 -13.914   5.002  0.00  0.00     0.068 C 
ATOM     22  C   UNL d   1      27.914 -12.854   5.912  0.00  0.00     0.037 C 
ATOM     23  C   UNL d   1      28.886 -12.694   6.923  0.00  0.00     0.010 C 
ATOM     24  C   UNL d   1      29.922 -13.615   7.048  0.00  0.00    -0.056 C 
ATOM     25  C   UNL d   1      29.982 -14.591   6.059  0.00  0.00     0.010 C 
ATOM     26  C   UNL d   1      29.026 -14.799   5.094  0.00  0.00     0.037 C 
BRANCH  24  27
ATOM     27  C   UNL d   1      30.883 -13.613   8.231  0.00  0.00     0.063 C 
BRANCH  27  28
ATOM     28  C   UNL d   1      30.283 -13.828   9.653  0.00  0.00     0.153 C 
ATOM     29  S   UNL d   1      28.490 -14.222   9.805  0.00  0.00    -0.054 SA
ATOM     30  C   UNL d   1      28.132 -12.704  10.625  0.00  0.00     0.287 C 
ATOM     31  O   UNL d   1      27.031 -12.198  10.672  0.00  0.00    -0.260 OA
ATOM     32  N   UNL d   1      29.293 -12.076  10.965  0.00  0.00    -0.287 N 
ATOM     33  C   UNL d   1      30.465 -12.541  10.440  0.00  0.00     0.239 C 
ATOM     34  H   UNL d   1      29.254 -11.098  11.208  0.00  0.00     0.172 HD
ATOM     35  O   UNL d   1      31.509 -11.901  10.502  0.00  0.00    -0.272 OA
ENDBRANCH  27  28
ENDBRANCH  24  27
ENDBRANCH  20  21
ENDBRANCH  19  20
ENDBRANCH   1  19
TORSDOF 10
ENDMDL
MODEL 9
REMARK VINA RESULT:    -7.758      5.441      8.557
REMARK INTER + INTRA:         -13.792
REMARK INTER:                 -10.741
REMARK INTRA:                  -3.051
REMARK CONF_INDEPENDENT:        2.983
REMARK UNBOUND:                -3.051
REMARK  10 active torsions:
REMARK  status: ('A' for Active; 'I' for Inactive)
REMARK    1  A    between atoms: N_2  and  C_3 
REMARK    2  A    between atoms: N_2  and  C_20 
REMARK    3  A    between atoms: C_3  and  C_4 
REMARK    4  A    between atoms: C_4  and  O_5 
REMARK    5  A    between atoms: O_5  and  C_6 
REMARK    6  A    between atoms: C_9  and  C_10 
REMARK    7  A    between atoms: C_10  and  C_11 
REMARK    8  A    between atoms: C_23  and  O_24 
REMARK    9  A    between atoms: O_24  and  C_25 
REMARK   10  A    between atoms: C_25  and  C_26 
ROOT
ATOM      1  C   UNL d   1      31.150 -16.328  -0.101  0.00  0.00     0.150 C 
ENDROOT
BRANCH   1   2
ATOM      2  N   UNL d   1      31.503 -15.623  -1.349  0.00  0.00    -0.370 N 
ATOM      3  C   UNL d   1      32.857 -15.108  -1.582  0.00  0.00     0.151 C 
BRANCH   2   4
ATOM      4  C   UNL d   1      30.627 -15.626  -2.414  0.00  0.00     0.102 A 
ATOM      5  C   UNL d   1      30.584 -16.645  -3.376  0.00  0.00     0.051 A 
ATOM      6  C   UNL d   1      29.743 -16.549  -4.484  0.00  0.00     0.042 A 
ATOM      7  C   UNL d   1      28.951 -15.422  -4.651  0.00  0.00     0.084 A 
ATOM      8  C   UNL d   1      29.016 -14.430  -3.678  0.00  0.00     0.126 A 
ATOM      9  N   UNL d   1      29.818 -14.571  -2.608  0.00  0.00    -0.350 N 
ATOM     10  H   UNL d   1      29.870 -13.816  -1.928  0.00  0.00     0.166 HD
BRANCH   7  11
ATOM     11  O   UNL d   1      28.103 -15.191  -5.695  0.00  0.00    -0.345 OA
BRANCH  11  12
ATOM     12  C   UNL d   1      26.701 -15.221  -5.396  0.00  0.00     0.214 C 
BRANCH  12  13
ATOM     13  C   UNL d   1      26.240 -13.881  -4.885  0.00  0.00    -0.034 A 
ATOM     14  C   UNL d   1      26.693 -12.688  -5.465  0.00  0.00     0.009 A 
ATOM     15  C   UNL d   1      26.440 -11.465  -4.840  0.00  0.00     0.001 A 
ATOM     16  C   UNL d   1      25.657 -11.418  -3.688  0.00  0.00     0.000 A 
ATOM     17  C   UNL d   1      25.157 -12.595  -3.135  0.00  0.00     0.001 A 
ATOM     18  C   UNL d   1      25.452 -13.821  -3.728  0.00  0.00     0.009 A 
ENDBRANCH  12  13
ENDBRANCH  11  12
ENDBRANCH   7  11
ENDBRANCH   2   4
ENDBRANCH   1   2
BRANCH   1  19
ATOM     19  C   UNL d   1      30.197 -15.548   0.805  0.00  0.00     0.195 C 
BRANCH  19  20
ATOM     20  O   UNL d   1      29.320 -14.746   0.016  0.00  0.00    -0.350 OA
BRANCH  20  21
ATOM     21  C   UNL d   1      28.185 -15.416  -0.348  0.00  0.00     0.068 C 
ATOM     22  C   UNL d   1      27.070 -14.684  -0.767  0.00  0.00     0.037 C 
ATOM     23  C   UNL d   1      25.842 -15.319  -1.055  0.00  0.00     0.010 C 
ATOM     24  C   UNL d   1      25.731 -16.703  -0.951  0.00  0.00    -0.056 C 
ATOM     25  C   UNL d   1      26.846 -17.360  -0.444  0.00  0.00     0.010 C 
ATOM     26  C   UNL d   1      28.067 -16.776  -0.201  0.00  0.00     0.037 C 
BRANCH  24  27
ATOM     27  C   UNL d   1      24.503 -17.465  -1.435  0.00  0.00     0.063 C 
BRANCH  27  28
ATOM     28  C   UNL d   1      23.331 -17.663  -0.427  0.00  0.00     0.153 C 
ATOM     29  S   UNL d   1      22.637 -19.354  -0.198  0.00  0.00    -0.054 SA
ATOM     30  C   UNL d   1      21.076 -18.905  -0.880  0.00  0.00     0.287 C 
ATOM     31  O   UNL d   1      20.282 -19.696  -1.343  0.00  0.00    -0.260 OA
ATOM     32  N   UNL d   1      21.010 -17.553  -1.037  0.00  0.00    -0.287 N 
ATOM     33  C   UNL d   1      22.156 -16.823  -0.900  0.00  0.00     0.239 C 
ATOM     34  H   UNL d   1      20.294 -17.175  -1.638  0.00  0.00     0.172 HD
ATOM     35  O   UNL d   1      22.232 -15.651  -1.253  0.00  0.00    -0.272 OA
ENDBRANCH  27  28
ENDBRANCH  24  27
ENDBRANCH  20  21
ENDBRANCH  19  20
ENDBRANCH   1  19
TORSDOF 10
ENDMDL
