MODEL 1
REMARK VINA RESULT:   -10.365      0.000      0.000
REMARK INTER + INTRA:         -16.545
REMARK INTER:                 -14.541
REMARK INTRA:                  -2.004
REMARK CONF_INDEPENDENT:        4.176
REMARK UNBOUND:                -2.004
REMARK  14 active torsions:
REMARK  status: ('A' for Active; 'I' for Inactive)
REMARK    1  A    between atoms: C_2  and  O_3 
REMARK    2  A    between atoms: O_3  and  C_4 
REMARK    3  A    between atoms: C_7  and  N_8 
REMARK    4  A    between atoms: N_8  and  C_9 
REMARK    5  A    between atoms: C_9  and  C_10 
REMARK    6  A    between atoms: N_14  and  C_15 
REMARK    7  A    between atoms: C_18  and  N_19 
REMARK    8  A    between atoms: C_22  and  C_23 
REMARK       I    between atoms: C_23  and  N_25 
REMARK    9  A    between atoms: N_25  and  C_26 
REMARK   10  A    between atoms: C_26  and  C_27 
REMARK   11  A    between atoms: C_27  and  C_28 
REMARK   12  A    between atoms: C_28  and  N_29 
REMARK   13  A    between atoms: N_29  and  C_30 
REMARK   14  A    between atoms: N_29  and  C_32 
ROOT
ATOM      1  C   UNL d   1      27.224 -13.842  -0.562  0.00  0.00     0.202 A 
ATOM      2  N   UNL d   1      28.138 -12.901  -0.528  0.00  0.00    -0.121 NA
ATOM      3  N   UNL d   1      28.585 -12.713   0.794  0.00  0.00    -0.122 NA
ATOM      4  C   UNL d   1      28.072 -13.595   1.640  0.00  0.00     0.193 A 
ATOM      5  S   UNL d   1      26.917 -14.639   0.895  0.00  0.00    -0.010 SA
ENDROOT
BRANCH   4   6
ATOM      6  N   UNL d   1      28.437 -13.795   2.937  0.00  0.00    -0.358 N 
ATOM      7  C   UNL d   1      29.728 -13.360   3.452  0.00  0.00     0.126 C 
ATOM      8  C   UNL d   1      30.212 -14.460   4.407  0.00  0.00     0.034 C 
ATOM      9  C   UNL d   1      29.169 -14.764   5.507  0.00  0.00     0.081 C 
ATOM     10  C   UNL d   1      27.780 -15.012   4.888  0.00  0.00     0.034 C 
ATOM     11  C   UNL d   1      27.391 -13.872   3.952  0.00  0.00     0.126 C 
BRANCH   9  12
ATOM     12  C   UNL d   1      29.038 -13.650   6.550  0.00  0.00     0.221 C 
ATOM     13  O   UNL d   1      28.692 -12.510   6.282  0.00  0.00    -0.273 OA
ATOM     14  N   UNL d   1      29.301 -13.999   7.853  0.00  0.00    -0.361 N 
ATOM     15  H   UNL d   1      29.620 -14.937   8.070  0.00  0.00     0.162 HD
BRANCH  14  16
ATOM     16  C   UNL d   1      29.186 -12.967   8.871  0.00  0.00     0.124 C 
BRANCH  16  17
ATOM     17  C   UNL d   1      30.485 -12.835   9.616  0.00  0.00     0.047 C 
BRANCH  17  18
ATOM     18  C   UNL d   1      31.720 -12.790   8.741  0.00  0.00     0.236 C 
BRANCH  18  19
ATOM     19  N   UNL d   1      32.647 -13.984   9.012  0.00  0.00    -0.072 N 
ATOM     20  H   UNL d   1      33.004 -14.321   8.105  0.00  0.00     0.279 HD
BRANCH  19  21
ATOM     21  C   UNL d   1      33.833 -13.691   9.930  0.00  0.00     0.230 C 
ATOM     22  C   UNL d   1      34.928 -12.829   9.333  0.00  0.00     0.034 C 
ENDBRANCH  19  21
BRANCH  19  23
ATOM     23  C   UNL d   1      31.795 -15.127   9.593  0.00  0.00     0.230 C 
ATOM     24  C   UNL d   1      32.297 -15.573  10.958  0.00  0.00     0.034 C 
ENDBRANCH  19  23
ENDBRANCH  18  19
ENDBRANCH  17  18
ENDBRANCH  16  17
ENDBRANCH  14  16
ENDBRANCH   9  12
ENDBRANCH   4   6
BRANCH   1  25
ATOM     25  N   UNL d   1      26.414 -14.202  -1.645  0.00  0.00    -0.302 N 
ATOM     26  C   UNL d   1      25.819 -13.323  -2.533  0.00  0.00     0.099 A 
ATOM     27  C   UNL d   1      25.302 -14.031  -3.597  0.00  0.00     0.020 A 
ATOM     28  C   UNL d   1      25.536 -15.395  -3.346  0.00  0.00     0.028 A 
ATOM     29  C   UNL d   1      26.204 -15.492  -2.139  0.00  0.00     0.036 A 
BRANCH  29  30
ATOM     30  C   UNL d   1      26.636 -16.748  -1.448  0.00  0.00     0.177 C 
BRANCH  30  31
ATOM     31  N   UNL d   1      25.818 -17.151  -0.319  0.00  0.00    -0.384 N 
ATOM     32  H   UNL d   1      26.280 -17.614   0.456  0.00  0.00     0.160 HD
BRANCH  31  33
ATOM     33  C   UNL d   1      24.477 -17.466  -0.452  0.00  0.00     0.028 A 
ATOM     34  C   UNL d   1      23.549 -16.432  -0.618  0.00  0.00     0.032 A 
ATOM     35  C   UNL d   1      22.190 -16.706  -0.794  0.00  0.00     0.039 A 
ATOM     36  C   UNL d   1      21.748 -18.026  -0.877  0.00  0.00     0.068 A 
ATOM     37  C   UNL d   1      22.670 -19.062  -0.750  0.00  0.00     0.039 A 
ATOM     38  C   UNL d   1      24.019 -18.780  -0.530  0.00  0.00     0.032 A 
BRANCH  36  39
ATOM     39  O   UNL d   1      20.427 -18.200  -1.186  0.00  0.00    -0.352 OA
BRANCH  39  40
ATOM     40  C   UNL d   1      19.834 -19.395  -0.680  0.00  0.00     0.171 C 
ATOM     41  C   UNL d   1      19.853 -19.331   0.835  0.00  0.00     0.034 C 
ENDBRANCH  39  40
ENDBRANCH  36  39
ENDBRANCH  31  33
ENDBRANCH  30  31
ENDBRANCH  29  30
ENDBRANCH   1  25
TORSDOF 14
ENDMDL
MODEL 2
REMARK VINA RESULT:   -10.144      0.605      1.458
REMARK INTER + INTRA:         -16.468
REMARK INTER:                 -14.321
REMARK INTRA:                  -2.148
REMARK CONF_INDEPENDENT:        4.176
REMARK UNBOUND:                -2.148
REMARK  14 active torsions:
REMARK  status: ('A' for Active; 'I' for Inactive)
REMARK    1  A    between atoms: C_2  and  O_3 
REMARK    2  A    between atoms: O_3  and  C_4 
REMARK    3  A    between atoms: C_7  and  N_8 
REMARK    4  A    between atoms: N_8  and  C_9 
REMARK    5  A    between atoms: C_9  and  C_10 
REMARK    6  A    between atoms: N_14  and  C_15 
REMARK    7  A    between atoms: C_18  and  N_19 
REMARK    8  A    between atoms: C_22  and  C_23 
REMARK       I    between atoms: C_23  and  N_25 
REMARK    9  A    between atoms: N_25  and  C_26 
REMARK   10  A    between atoms: C_26  and  C_27 
REMARK   11  A    between atoms: C_27  and  C_28 
REMARK   12  A    between atoms: C_28  and  N_29 
REMARK   13  A    between atoms: N_29  and  C_30 
REMARK   14  A    between atoms: N_29  and  C_32 
ROOT
ATOM      1  C   UNL d   1      27.241 -13.787  -0.461  0.00  0.00     0.202 A 
ATOM      2  N   UNL d   1      28.038 -12.749  -0.360  0.00  0.00    -0.121 NA
ATOM      3  N   UNL d   1      28.465 -12.599   0.972  0.00  0.00    -0.122 NA
ATOM      4  C   UNL d   1      28.064 -13.590   1.756  0.00  0.00     0.193 A 
ATOM      5  S   UNL d   1      27.038 -14.711   0.938  0.00  0.00    -0.010 SA
ENDROOT
BRANCH   4   6
ATOM      6  N   UNL d   1      28.456 -13.832   3.038  0.00  0.00    -0.358 N 
ATOM      7  C   UNL d   1      29.819 -13.588   3.487  0.00  0.00     0.126 C 
ATOM      8  C   UNL d   1      30.182 -14.740   4.435  0.00  0.00     0.034 C 
ATOM      9  C   UNL d   1      29.158 -14.880   5.585  0.00  0.00     0.081 C 
ATOM     10  C   UNL d   1      27.721 -14.927   5.033  0.00  0.00     0.034 C 
ATOM     11  C   UNL d   1      27.458 -13.748   4.100  0.00  0.00     0.126 C 
BRANCH   9  12
ATOM     12  C   UNL d   1      29.240 -13.751   6.618  0.00  0.00     0.221 C 
ATOM     13  O   UNL d   1      29.317 -12.569   6.322  0.00  0.00    -0.273 OA
ATOM     14  N   UNL d   1      29.189 -14.128   7.939  0.00  0.00    -0.361 N 
ATOM     15  H   UNL d   1      29.159 -15.111   8.183  0.00  0.00     0.162 HD
BRANCH  14  16
ATOM     16  C   UNL d   1      29.263 -13.082   8.947  0.00  0.00     0.124 C 
BRANCH  16  17
ATOM     17  C   UNL d   1      30.573 -13.169   9.679  0.00  0.00     0.047 C 
BRANCH  17  18
ATOM     18  C   UNL d   1      31.610 -14.061   9.028  0.00  0.00     0.236 C 
BRANCH  18  19
ATOM     19  N   UNL d   1      32.748 -13.240   8.403  0.00  0.00    -0.072 N 
ATOM     20  H   UNL d   1      33.403 -13.896   7.954  0.00  0.00     0.279 HD
BRANCH  19  21
ATOM     21  C   UNL d   1      32.307 -12.200   7.372  0.00  0.00     0.230 C 
ATOM     22  C   UNL d   1      32.325 -10.760   7.844  0.00  0.00     0.034 C 
ENDBRANCH  19  21
BRANCH  19  23
ATOM     23  C   UNL d   1      33.528 -12.560   9.543  0.00  0.00     0.230 C 
ATOM     24  C   UNL d   1      35.023 -12.534   9.271  0.00  0.00     0.034 C 
ENDBRANCH  19  23
ENDBRANCH  18  19
ENDBRANCH  17  18
ENDBRANCH  16  17
ENDBRANCH  14  16
ENDBRANCH   9  12
ENDBRANCH   4   6
BRANCH   1  25
ATOM     25  N   UNL d   1      26.475 -14.167  -1.568  0.00  0.00    -0.302 N 
ATOM     26  C   UNL d   1      25.883 -13.303  -2.473  0.00  0.00     0.099 A 
ATOM     27  C   UNL d   1      25.419 -14.023  -3.553  0.00  0.00     0.020 A 
ATOM     28  C   UNL d   1      25.682 -15.381  -3.296  0.00  0.00     0.028 A 
ATOM     29  C   UNL d   1      26.315 -15.462  -2.069  0.00  0.00     0.036 A 
BRANCH  29  30
ATOM     30  C   UNL d   1      26.760 -16.707  -1.367  0.00  0.00     0.177 C 
BRANCH  30  31
ATOM     31  N   UNL d   1      25.867 -17.190  -0.329  0.00  0.00    -0.384 N 
ATOM     32  H   UNL d   1      26.264 -17.774   0.398  0.00  0.00     0.160 HD
BRANCH  31  33
ATOM     33  C   UNL d   1      24.518 -17.395  -0.552  0.00  0.00     0.028 A 
ATOM     34  C   UNL d   1      24.029 -18.705  -0.607  0.00  0.00     0.032 A 
ATOM     35  C   UNL d   1      22.667 -18.958  -0.791  0.00  0.00     0.039 A 
ATOM     36  C   UNL d   1      21.762 -17.900  -0.852  0.00  0.00     0.068 A 
ATOM     37  C   UNL d   1      22.233 -16.594  -0.760  0.00  0.00     0.039 A 
ATOM     38  C   UNL d   1      23.600 -16.348  -0.621  0.00  0.00     0.032 A 
BRANCH  36  39
ATOM     39  O   UNL d   1      20.438 -18.243  -0.897  0.00  0.00    -0.352 OA
BRANCH  39  40
ATOM     40  C   UNL d   1      20.145 -19.598  -0.564  0.00  0.00     0.171 C 
ATOM     41  C   UNL d   1      20.020 -19.702   0.945  0.00  0.00     0.034 C 
ENDBRANCH  39  40
ENDBRANCH  36  39
ENDBRANCH  31  33
ENDBRANCH  30  31
ENDBRANCH  29  30
ENDBRANCH   1  25
TORSDOF 14
ENDMDL
MODEL 3
REMARK VINA RESULT:    -9.873      1.299      1.997
REMARK INTER + INTRA:         -17.006
REMARK INTER:                 -14.049
REMARK INTRA:                  -2.957
REMARK CONF_INDEPENDENT:        4.176
REMARK UNBOUND:                -2.957
REMARK  14 active torsions:
REMARK  status: ('A' for Active; 'I' for Inactive)
REMARK    1  A    between atoms: C_2  and  O_3 
REMARK    2  A    between atoms: O_3  and  C_4 
REMARK    3  A    between atoms: C_7  and  N_8 
REMARK    4  A    between atoms: N_8  and  C_9 
REMARK    5  A    between atoms: C_9  and  C_10 
REMARK    6  A    between atoms: N_14  and  C_15 
REMARK    7  A    between atoms: C_18  and  N_19 
REMARK    8  A    between atoms: C_22  and  C_23 
REMARK       I    between atoms: C_23  and  N_25 
REMARK    9  A    between atoms: N_25  and  C_26 
REMARK   10  A    between atoms: C_26  and  C_27 
REMARK   11  A    between atoms: C_27  and  C_28 
REMARK   12  A    between atoms: C_28  and  N_29 
REMARK   13  A    between atoms: N_29  and  C_30 
REMARK   14  A    between atoms: N_29  and  C_32 
ROOT
ATOM      1  C   UNL d   1      26.875 -14.031  -0.012  0.00  0.00     0.202 A 
ATOM      2  N   UNL d   1      26.257 -13.043   0.590  0.00  0.00    -0.121 NA
ATOM      3  N   UNL d   1      26.614 -13.012   1.952  0.00  0.00    -0.122 NA
ATOM      4  C   UNL d   1      27.557 -13.892   2.257  0.00  0.00     0.193 A 
ATOM      5  S   UNL d   1      27.985 -14.897   0.921  0.00  0.00    -0.010 SA
ENDROOT
BRANCH   4   6
ATOM      6  N   UNL d   1      28.240 -13.989   3.431  0.00  0.00    -0.358 N 
ATOM      7  C   UNL d   1      29.543 -13.368   3.619  0.00  0.00     0.126 C 
ATOM      8  C   UNL d   1      30.385 -14.354   4.441  0.00  0.00     0.034 C 
ATOM      9  C   UNL d   1      29.681 -14.746   5.760  0.00  0.00     0.081 C 
ATOM     10  C   UNL d   1      28.233 -15.200   5.493  0.00  0.00     0.034 C 
ATOM     11  C   UNL d   1      27.482 -14.160   4.667  0.00  0.00     0.126 C 
BRANCH   9  12
ATOM     12  C   UNL d   1      29.647 -13.617   6.796  0.00  0.00     0.221 C 
ATOM     13  O   UNL d   1      28.637 -13.276   7.389  0.00  0.00    -0.273 OA
ATOM     14  N   UNL d   1      30.845 -13.001   7.066  0.00  0.00    -0.361 N 
ATOM     15  H   UNL d   1      31.676 -13.263   6.548  0.00  0.00     0.162 HD
BRANCH  14  16
ATOM     16  C   UNL d   1      30.851 -11.924   8.044  0.00  0.00     0.124 C 
BRANCH  16  17
ATOM     17  C   UNL d   1      31.367 -12.432   9.362  0.00  0.00     0.047 C 
BRANCH  17  18
ATOM     18  C   UNL d   1      30.295 -12.861  10.343  0.00  0.00     0.236 C 
BRANCH  18  19
ATOM     19  N   UNL d   1      29.655 -14.195   9.930  0.00  0.00    -0.072 N 
ATOM     20  H   UNL d   1      29.783 -14.307   8.913  0.00  0.00     0.279 HD
BRANCH  19  21
ATOM     21  C   UNL d   1      30.214 -15.430  10.636  0.00  0.00     0.230 C 
ATOM     22  C   UNL d   1      31.534 -15.950  10.102  0.00  0.00     0.034 C 
ENDBRANCH  19  21
BRANCH  19  23
ATOM     23  C   UNL d   1      28.137 -14.089  10.166  0.00  0.00     0.230 C 
ATOM     24  C   UNL d   1      27.787 -12.946  11.106  0.00  0.00     0.034 C 
ENDBRANCH  19  23
ENDBRANCH  18  19
ENDBRANCH  17  18
ENDBRANCH  16  17
ENDBRANCH  14  16
ENDBRANCH   9  12
ENDBRANCH   4   6
BRANCH   1  25
ATOM     25  N   UNL d   1      26.659 -14.504  -1.311  0.00  0.00    -0.302 N 
ATOM     26  C   UNL d   1      26.421 -13.718  -2.425  0.00  0.00     0.099 A 
ATOM     27  C   UNL d   1      26.496 -14.500  -3.558  0.00  0.00     0.020 A 
ATOM     28  C   UNL d   1      26.738 -15.821  -3.141  0.00  0.00     0.028 A 
ATOM     29  C   UNL d   1      26.820 -15.818  -1.760  0.00  0.00     0.036 A 
BRANCH  29  30
ATOM     30  C   UNL d   1      27.037 -17.000  -0.868  0.00  0.00     0.177 C 
BRANCH  30  31
ATOM     31  N   UNL d   1      26.002 -17.233   0.121  0.00  0.00    -0.384 N 
ATOM     32  H   UNL d   1      26.270 -17.692   0.984  0.00  0.00     0.160 HD
BRANCH  31  33
ATOM     33  C   UNL d   1      24.674 -17.405  -0.225  0.00  0.00     0.028 A 
ATOM     34  C   UNL d   1      24.116 -18.688  -0.167  0.00  0.00     0.032 A 
ATOM     35  C   UNL d   1      22.768 -18.901  -0.470  0.00  0.00     0.039 A 
ATOM     36  C   UNL d   1      21.940 -17.821  -0.770  0.00  0.00     0.068 A 
ATOM     37  C   UNL d   1      22.477 -16.537  -0.793  0.00  0.00     0.039 A 
ATOM     38  C   UNL d   1      23.833 -16.337  -0.533  0.00  0.00     0.032 A 
BRANCH  36  39
ATOM     39  O   UNL d   1      20.610 -18.106  -0.920  0.00  0.00    -0.352 OA
BRANCH  39  40
ATOM     40  C   UNL d   1      20.275 -19.492  -0.890  0.00  0.00     0.171 C 
ATOM     41  C   UNL d   1      19.239 -19.707   0.197  0.00  0.00     0.034 C 
ENDBRANCH  39  40
ENDBRANCH  36  39
ENDBRANCH  31  33
ENDBRANCH  30  31
ENDBRANCH  29  30
ENDBRANCH   1  25
TORSDOF 14
ENDMDL
MODEL 4
REMARK VINA RESULT:    -9.168      2.141      2.924
REMARK INTER + INTRA:         -16.056
REMARK INTER:                 -13.344
REMARK INTRA:                  -2.712
REMARK CONF_INDEPENDENT:        4.176
REMARK UNBOUND:                -2.712
REMARK  14 active torsions:
REMARK  status: ('A' for Active; 'I' for Inactive)
REMARK    1  A    between atoms: C_2  and  O_3 
REMARK    2  A    between atoms: O_3  and  C_4 
REMARK    3  A    between atoms: C_7  and  N_8 
REMARK    4  A    between atoms: N_8  and  C_9 
REMARK    5  A    between atoms: C_9  and  C_10 
REMARK    6  A    between atoms: N_14  and  C_15 
REMARK    7  A    between atoms: C_18  and  N_19 
REMARK    8  A    between atoms: C_22  and  C_23 
REMARK       I    between atoms: C_23  and  N_25 
REMARK    9  A    between atoms: N_25  and  C_26 
REMARK   10  A    between atoms: C_26  and  C_27 
REMARK   11  A    between atoms: C_27  and  C_28 
REMARK   12  A    between atoms: C_28  and  N_29 
REMARK   13  A    between atoms: N_29  and  C_30 
REMARK   14  A    between atoms: N_29  and  C_32 
ROOT
ATOM      1  C   UNL d   1      28.182 -14.223   1.778  0.00  0.00     0.202 A 
ATOM      2  N   UNL d   1      27.099 -13.519   2.013  0.00  0.00    -0.121 NA
ATOM      3  N   UNL d   1      27.022 -13.199   3.381  0.00  0.00    -0.122 NA
ATOM      4  C   UNL d   1      28.098 -13.573   4.059  0.00  0.00     0.193 A 
ATOM      5  S   UNL d   1      29.224 -14.449   3.087  0.00  0.00    -0.010 SA
ENDROOT
BRANCH   4   6
ATOM      6  N   UNL d   1      28.410 -13.254   5.345  0.00  0.00    -0.358 N 
ATOM      7  C   UNL d   1      27.591 -12.346   6.135  0.00  0.00     0.126 C 
ATOM      8  C   UNL d   1      28.559 -11.483   6.957  0.00  0.00     0.034 C 
ATOM      9  C   UNL d   1      29.523 -12.350   7.799  0.00  0.00     0.081 C 
ATOM     10  C   UNL d   1      30.199 -13.423   6.923  0.00  0.00     0.034 C 
ATOM     11  C   UNL d   1      29.159 -14.221   6.143  0.00  0.00     0.126 C 
BRANCH   9  12
ATOM     12  C   UNL d   1      28.844 -13.052   8.980  0.00  0.00     0.221 C 
ATOM     13  O   UNL d   1      28.711 -14.262   9.060  0.00  0.00    -0.273 OA
ATOM     14  N   UNL d   1      28.403 -12.243   9.999  0.00  0.00    -0.361 N 
ATOM     15  H   UNL d   1      28.484 -11.236   9.916  0.00  0.00     0.162 HD
BRANCH  14  16
ATOM     16  C   UNL d   1      27.753 -12.875  11.137  0.00  0.00     0.124 C 
BRANCH  16  17
ATOM     17  C   UNL d   1      28.772 -13.201  12.193  0.00  0.00     0.047 C 
BRANCH  17  18
ATOM     18  C   UNL d   1      29.298 -14.621  12.154  0.00  0.00     0.236 C 
BRANCH  18  19
ATOM     19  N   UNL d   1      30.433 -14.773  11.131  0.00  0.00    -0.072 N 
ATOM     20  H   UNL d   1      30.138 -14.313  10.258  0.00  0.00     0.279 HD
BRANCH  19  21
ATOM     21  C   UNL d   1      31.780 -14.192  11.563  0.00  0.00     0.230 C 
ATOM     22  C   UNL d   1      31.910 -12.686  11.451  0.00  0.00     0.034 C 
ENDBRANCH  19  21
BRANCH  19  23
ATOM     23  C   UNL d   1      30.582 -16.270  10.802  0.00  0.00     0.230 C 
ATOM     24  C   UNL d   1      31.198 -17.047  11.955  0.00  0.00     0.034 C 
ENDBRANCH  19  23
ENDBRANCH  18  19
ENDBRANCH  17  18
ENDBRANCH  16  17
ENDBRANCH  14  16
ENDBRANCH   9  12
ENDBRANCH   4   6
BRANCH   1  25
ATOM     25  N   UNL d   1      28.529 -14.878   0.592  0.00  0.00    -0.302 N 
ATOM     26  C   UNL d   1      29.631 -14.590  -0.196  0.00  0.00     0.099 A 
ATOM     27  C   UNL d   1      29.787 -15.582  -1.141  0.00  0.00     0.020 A 
ATOM     28  C   UNL d   1      28.727 -16.491  -0.973  0.00  0.00     0.028 A 
ATOM     29  C   UNL d   1      27.950 -16.043   0.080  0.00  0.00     0.036 A 
BRANCH  29  30
ATOM     30  C   UNL d   1      26.696 -16.671   0.604  0.00  0.00     0.177 C 
BRANCH  30  31
ATOM     31  N   UNL d   1      26.071 -17.641  -0.275  0.00  0.00    -0.384 N 
ATOM     32  H   UNL d   1      26.629 -18.019  -1.032  0.00  0.00     0.160 HD
BRANCH  31  33
ATOM     33  C   UNL d   1      24.708 -17.655  -0.512  0.00  0.00     0.028 A 
ATOM     34  C   UNL d   1      24.034 -18.881  -0.541  0.00  0.00     0.032 A 
ATOM     35  C   UNL d   1      22.652 -18.939  -0.739  0.00  0.00     0.039 A 
ATOM     36  C   UNL d   1      21.911 -17.763  -0.841  0.00  0.00     0.068 A 
ATOM     37  C   UNL d   1      22.567 -16.537  -0.776  0.00  0.00     0.039 A 
ATOM     38  C   UNL d   1      23.953 -16.488  -0.623  0.00  0.00     0.032 A 
BRANCH  36  39
ATOM     39  O   UNL d   1      20.552 -17.911  -0.896  0.00  0.00    -0.352 OA
BRANCH  39  40
ATOM     40  C   UNL d   1      20.081 -19.256  -0.849  0.00  0.00     0.171 C 
ATOM     41  C   UNL d   1      19.758 -19.598   0.593  0.00  0.00     0.034 C 
ENDBRANCH  39  40
ENDBRANCH  36  39
ENDBRANCH  31  33
ENDBRANCH  30  31
ENDBRANCH  29  30
ENDBRANCH   1  25
TORSDOF 14
ENDMDL
MODEL 5
REMARK VINA RESULT:    -9.155      1.872      2.392
REMARK INTER + INTRA:         -15.841
REMARK INTER:                 -13.332
REMARK INTRA:                  -2.510
REMARK CONF_INDEPENDENT:        4.176
REMARK UNBOUND:                -2.510
REMARK  14 active torsions:
REMARK  status: ('A' for Active; 'I' for Inactive)
REMARK    1  A    between atoms: C_2  and  O_3 
REMARK    2  A    between atoms: O_3  and  C_4 
REMARK    3  A    between atoms: C_7  and  N_8 
REMARK    4  A    between atoms: N_8  and  C_9 
REMARK    5  A    between atoms: C_9  and  C_10 
REMARK    6  A    between atoms: N_14  and  C_15 
REMARK    7  A    between atoms: C_18  and  N_19 
REMARK    8  A    between atoms: C_22  and  C_23 
REMARK       I    between atoms: C_23  and  N_25 
REMARK    9  A    between atoms: N_25  and  C_26 
REMARK   10  A    between atoms: C_26  and  C_27 
REMARK   11  A    between atoms: C_27  and  C_28 
REMARK   12  A    between atoms: C_28  and  N_29 
REMARK   13  A    between atoms: N_29  and  C_30 
REMARK   14  A    between atoms: N_29  and  C_32 
ROOT
ATOM      1  C   UNL d   1      27.226 -14.136   0.137  0.00  0.00     0.202 A 
ATOM      2  N   UNL d   1      26.278 -13.398   0.663  0.00  0.00    -0.121 NA
ATOM      3  N   UNL d   1      26.455 -13.308   2.057  0.00  0.00    -0.122 NA
ATOM      4  C   UNL d   1      27.579 -13.878   2.470  0.00  0.00     0.193 A 
ATOM      5  S   UNL d   1      28.434 -14.665   1.194  0.00  0.00    -0.010 SA
ENDROOT
BRANCH   4   6
ATOM      6  N   UNL d   1      28.124 -13.807   3.715  0.00  0.00    -0.358 N 
ATOM      7  C   UNL d   1      28.524 -12.541   4.312  0.00  0.00     0.126 C 
ATOM      8  C   UNL d   1      29.835 -12.804   5.065  0.00  0.00     0.034 C 
ATOM      9  C   UNL d   1      29.689 -13.958   6.083  0.00  0.00     0.081 C 
ATOM     10  C   UNL d   1      29.068 -15.200   5.415  0.00  0.00     0.034 C 
ATOM     11  C   UNL d   1      27.776 -14.837   4.690  0.00  0.00     0.126 C 
BRANCH   9  12
ATOM     12  C   UNL d   1      28.839 -13.593   7.305  0.00  0.00     0.221 C 
ATOM     13  O   UNL d   1      27.916 -12.795   7.270  0.00  0.00    -0.273 OA
ATOM     14  N   UNL d   1      29.142 -14.245   8.476  0.00  0.00    -0.361 N 
ATOM     15  H   UNL d   1      29.930 -14.882   8.511  0.00  0.00     0.162 HD
BRANCH  14  16
ATOM     16  C   UNL d   1      28.355 -13.924   9.656  0.00  0.00     0.124 C 
BRANCH  16  17
ATOM     17  C   UNL d   1      29.076 -12.902  10.491  0.00  0.00     0.047 C 
BRANCH  17  18
ATOM     18  C   UNL d   1      30.252 -12.236   9.807  0.00  0.00     0.236 C 
BRANCH  18  19
ATOM     19  N   UNL d   1      29.993 -10.741   9.569  0.00  0.00    -0.072 N 
ATOM     20  H   UNL d   1      28.982 -10.573   9.675  0.00  0.00     0.279 HD
BRANCH  19  21
ATOM     21  C   UNL d   1      30.750  -9.794  10.501  0.00  0.00     0.230 C 
ATOM     22  C   UNL d   1      30.791 -10.205  11.960  0.00  0.00     0.034 C 
ENDBRANCH  19  21
BRANCH  19  23
ATOM     23  C   UNL d   1      30.333 -10.425   8.101  0.00  0.00     0.230 C 
ATOM     24  C   UNL d   1      29.092 -10.090   7.289  0.00  0.00     0.034 C 
ENDBRANCH  19  23
ENDBRANCH  18  19
ENDBRANCH  17  18
ENDBRANCH  16  17
ENDBRANCH  14  16
ENDBRANCH   9  12
ENDBRANCH   4   6
BRANCH   1  25
ATOM     25  N   UNL d   1      27.307 -14.607  -1.178  0.00  0.00    -0.302 N 
ATOM     26  C   UNL d   1      27.419 -13.819  -2.311  0.00  0.00     0.099 A 
ATOM     27  C   UNL d   1      27.714 -14.620  -3.394  0.00  0.00     0.020 A 
ATOM     28  C   UNL d   1      27.740 -15.950  -2.938  0.00  0.00     0.028 A 
ATOM     29  C   UNL d   1      27.473 -15.935  -1.581  0.00  0.00     0.036 A 
BRANCH  29  30
ATOM     30  C   UNL d   1      27.366 -17.120  -0.672  0.00  0.00     0.177 C 
BRANCH  30  31
ATOM     31  N   UNL d   1      26.322 -17.042   0.333  0.00  0.00    -0.384 N 
ATOM     32  H   UNL d   1      26.583 -17.219   1.297  0.00  0.00     0.160 HD
BRANCH  31  33
ATOM     33  C   UNL d   1      24.996 -17.308   0.044  0.00  0.00     0.028 A 
ATOM     34  C   UNL d   1      24.215 -16.309  -0.549  0.00  0.00     0.032 A 
ATOM     35  C   UNL d   1      22.882 -16.546  -0.893  0.00  0.00     0.039 A 
ATOM     36  C   UNL d   1      22.329 -17.812  -0.712  0.00  0.00     0.068 A 
ATOM     37  C   UNL d   1      23.108 -18.824  -0.157  0.00  0.00     0.039 A 
ATOM     38  C   UNL d   1      24.425 -18.567   0.225  0.00  0.00     0.032 A 
BRANCH  36  39
ATOM     39  O   UNL d   1      21.063 -17.991  -1.200  0.00  0.00    -0.352 OA
BRANCH  39  40
ATOM     40  C   UNL d   1      20.563 -19.325  -1.126  0.00  0.00     0.171 C 
ATOM     41  C   UNL d   1      19.742 -19.456   0.143  0.00  0.00     0.034 C 
ENDBRANCH  39  40
ENDBRANCH  36  39
ENDBRANCH  31  33
ENDBRANCH  30  31
ENDBRANCH  29  30
ENDBRANCH   1  25
TORSDOF 14
ENDMDL
MODEL 6
REMARK VINA RESULT:    -8.863      1.367      2.150
REMARK INTER + INTRA:         -16.225
REMARK INTER:                 -13.039
REMARK INTRA:                  -3.186
REMARK CONF_INDEPENDENT:        4.176
REMARK UNBOUND:                -3.186
REMARK  14 active torsions:
REMARK  status: ('A' for Active; 'I' for Inactive)
REMARK    1  A    between atoms: C_2  and  O_3 
REMARK    2  A    between atoms: O_3  and  C_4 
REMARK    3  A    between atoms: C_7  and  N_8 
REMARK    4  A    between atoms: N_8  and  C_9 
REMARK    5  A    between atoms: C_9  and  C_10 
REMARK    6  A    between atoms: N_14  and  C_15 
REMARK    7  A    between atoms: C_18  and  N_19 
REMARK    8  A    between atoms: C_22  and  C_23 
REMARK       I    between atoms: C_23  and  N_25 
REMARK    9  A    between atoms: N_25  and  C_26 
REMARK   10  A    between atoms: C_26  and  C_27 
REMARK   11  A    between atoms: C_27  and  C_28 
REMARK   12  A    between atoms: C_28  and  N_29 
REMARK   13  A    between atoms: N_29  and  C_30 
REMARK   14  A    between atoms: N_29  and  C_32 
ROOT
ATOM      1  C   UNL d   1      27.255 -13.744  -0.438  0.00  0.00     0.202 A 
ATOM      2  N   UNL d   1      28.112 -12.754  -0.353  0.00  0.00    -0.121 NA
ATOM      3  N   UNL d   1      28.532 -12.595   0.981  0.00  0.00    -0.122 NA
ATOM      4  C   UNL d   1      28.064 -13.539   1.784  0.00  0.00     0.193 A 
ATOM      5  S   UNL d   1      26.982 -14.618   0.982  0.00  0.00    -0.010 SA
ENDROOT
BRANCH   4   6
ATOM      6  N   UNL d   1      28.426 -13.771   3.076  0.00  0.00    -0.358 N 
ATOM      7  C   UNL d   1      29.708 -13.334   3.609  0.00  0.00     0.126 C 
ATOM      8  C   UNL d   1      30.204 -14.453   4.535  0.00  0.00     0.034 C 
ATOM      9  C   UNL d   1      29.161 -14.803   5.621  0.00  0.00     0.081 C 
ATOM     10  C   UNL d   1      27.778 -15.053   4.989  0.00  0.00     0.034 C 
ATOM     11  C   UNL d   1      27.377 -13.892   4.084  0.00  0.00     0.126 C 
BRANCH   9  12
ATOM     12  C   UNL d   1      29.010 -13.721   6.695  0.00  0.00     0.221 C 
ATOM     13  O   UNL d   1      28.875 -12.534   6.444  0.00  0.00    -0.273 OA
ATOM     14  N   UNL d   1      28.997 -14.153   7.999  0.00  0.00    -0.361 N 
ATOM     15  H   UNL d   1      29.142 -15.134   8.208  0.00  0.00     0.162 HD
BRANCH  14  16
ATOM     16  C   UNL d   1      28.854 -13.153   9.046  0.00  0.00     0.124 C 
BRANCH  16  17
ATOM     17  C   UNL d   1      30.205 -12.796   9.601  0.00  0.00     0.047 C 
BRANCH  17  18
ATOM     18  C   UNL d   1      30.569 -11.329   9.498  0.00  0.00     0.236 C 
BRANCH  18  19
ATOM     19  N   UNL d   1      30.537 -10.841   8.042  0.00  0.00    -0.072 N 
ATOM     20  H   UNL d   1      30.193 -11.616   7.455  0.00  0.00     0.279 HD
BRANCH  19  21
ATOM     21  C   UNL d   1      29.669  -9.608   7.789  0.00  0.00     0.230 C 
ATOM     22  C   UNL d   1      28.906  -9.601   6.480  0.00  0.00     0.034 C 
ENDBRANCH  19  21
BRANCH  19  23
ATOM     23  C   UNL d   1      31.986 -10.571   7.597  0.00  0.00     0.230 C 
ATOM     24  C   UNL d   1      32.407 -11.477   6.451  0.00  0.00     0.034 C 
ENDBRANCH  19  23
ENDBRANCH  18  19
ENDBRANCH  17  18
ENDBRANCH  16  17
ENDBRANCH  14  16
ENDBRANCH   9  12
ENDBRANCH   4   6
BRANCH   1  25
ATOM     25  N   UNL d   1      26.480 -14.106  -1.545  0.00  0.00    -0.302 N 
ATOM     26  C   UNL d   1      25.926 -13.230  -2.462  0.00  0.00     0.099 A 
ATOM     27  C   UNL d   1      25.439 -13.943  -3.536  0.00  0.00     0.020 A 
ATOM     28  C   UNL d   1      25.650 -15.307  -3.265  0.00  0.00     0.028 A 
ATOM     29  C   UNL d   1      26.274 -15.399  -2.034  0.00  0.00     0.036 A 
BRANCH  29  30
ATOM     30  C   UNL d   1      26.668 -16.653  -1.316  0.00  0.00     0.177 C 
BRANCH  30  31
ATOM     31  N   UNL d   1      25.812 -17.032  -0.208  0.00  0.00    -0.384 N 
ATOM     32  H   UNL d   1      26.251 -17.455   0.602  0.00  0.00     0.160 HD
BRANCH  31  33
ATOM     33  C   UNL d   1      24.486 -17.381  -0.383  0.00  0.00     0.028 A 
ATOM     34  C   UNL d   1      23.529 -16.369  -0.528  0.00  0.00     0.032 A 
ATOM     35  C   UNL d   1      22.184 -16.676  -0.746  0.00  0.00     0.039 A 
ATOM     36  C   UNL d   1      21.785 -18.004  -0.893  0.00  0.00     0.068 A 
ATOM     37  C   UNL d   1      22.735 -19.016  -0.787  0.00  0.00     0.039 A 
ATOM     38  C   UNL d   1      24.069 -18.704  -0.525  0.00  0.00     0.032 A 
BRANCH  36  39
ATOM     39  O   UNL d   1      20.476 -18.204  -1.237  0.00  0.00    -0.352 OA
BRANCH  39  40
ATOM     40  C   UNL d   1      19.929 -19.464  -0.853  0.00  0.00     0.171 C 
ATOM     41  C   UNL d   1      19.896 -19.526   0.662  0.00  0.00     0.034 C 
ENDBRANCH  39  40
ENDBRANCH  36  39
ENDBRANCH  31  33
ENDBRANCH  30  31
ENDBRANCH  29  30
ENDBRANCH   1  25
TORSDOF 14
ENDMDL
MODEL 7
REMARK VINA RESULT:    -8.270      4.423      7.025
REMARK INTER + INTRA:         -16.281
REMARK INTER:                 -12.446
REMARK INTRA:                  -3.835
REMARK CONF_INDEPENDENT:        4.176
REMARK UNBOUND:                -3.835
REMARK  14 active torsions:
REMARK  status: ('A' for Active; 'I' for Inactive)
REMARK    1  A    between atoms: C_2  and  O_3 
REMARK    2  A    between atoms: O_3  and  C_4 
REMARK    3  A    between atoms: C_7  and  N_8 
REMARK    4  A    between atoms: N_8  and  C_9 
REMARK    5  A    between atoms: C_9  and  C_10 
REMARK    6  A    between atoms: N_14  and  C_15 
REMARK    7  A    between atoms: C_18  and  N_19 
REMARK    8  A    between atoms: C_22  and  C_23 
REMARK       I    between atoms: C_23  and  N_25 
REMARK    9  A    between atoms: N_25  and  C_26 
REMARK   10  A    between atoms: C_26  and  C_27 
REMARK   11  A    between atoms: C_27  and  C_28 
REMARK   12  A    between atoms: C_28  and  N_29 
REMARK   13  A    between atoms: N_29  and  C_30 
REMARK   14  A    between atoms: N_29  and  C_32 
ROOT
ATOM      1  C   UNL d   1      28.155 -13.974  -6.110  0.00  0.00     0.202 A 
ATOM      2  N   UNL d   1      27.346 -15.002  -6.012  0.00  0.00    -0.121 NA
ATOM      3  N   UNL d   1      27.862 -15.934  -5.091  0.00  0.00    -0.122 NA
ATOM      4  C   UNL d   1      28.952 -15.498  -4.474  0.00  0.00     0.193 A 
ATOM      5  S   UNL d   1      29.483 -13.966  -5.066  0.00  0.00    -0.010 SA
ENDROOT
BRANCH   4   6
ATOM      6  N   UNL d   1      29.580 -16.075  -3.413  0.00  0.00    -0.358 N 
ATOM      7  C   UNL d   1      30.922 -16.629  -3.519  0.00  0.00     0.126 C 
ATOM      8  C   UNL d   1      30.932 -17.918  -2.686  0.00  0.00     0.034 C 
ATOM      9  C   UNL d   1      30.472 -17.664  -1.232  0.00  0.00     0.081 C 
ATOM     10  C   UNL d   1      29.140 -16.890  -1.209  0.00  0.00     0.034 C 
ATOM     11  C   UNL d   1      29.227 -15.632  -2.068  0.00  0.00     0.126 C 
BRANCH   9  12
ATOM     12  C   UNL d   1      31.493 -16.887  -0.393  0.00  0.00     0.221 C 
ATOM     13  O   UNL d   1      32.538 -16.444  -0.842  0.00  0.00    -0.273 OA
ATOM     14  N   UNL d   1      31.163 -16.670   0.923  0.00  0.00    -0.361 N 
ATOM     15  H   UNL d   1      30.311 -17.067   1.302  0.00  0.00     0.162 HD
BRANCH  14  16
ATOM     16  C   UNL d   1      32.109 -15.936   1.749  0.00  0.00     0.124 C 
BRANCH  16  17
ATOM     17  C   UNL d   1      31.852 -14.459   1.633  0.00  0.00     0.047 C 
BRANCH  17  18
ATOM     18  C   UNL d   1      30.985 -13.874   2.728  0.00  0.00     0.236 C 
BRANCH  18  19
ATOM     19  N   UNL d   1      29.609 -14.556   2.783  0.00  0.00    -0.072 N 
ATOM     20  H   UNL d   1      29.762 -15.571   2.879  0.00  0.00     0.279 HD
BRANCH  19  21
ATOM     21  C   UNL d   1      28.696 -14.086   3.915  0.00  0.00     0.230 C 
ATOM     22  C   UNL d   1      28.185 -15.173   4.840  0.00  0.00     0.034 C 
ENDBRANCH  19  21
BRANCH  19  23
ATOM     23  C   UNL d   1      28.919 -14.349   1.423  0.00  0.00     0.230 C 
ATOM     24  C   UNL d   1      27.453 -13.978   1.580  0.00  0.00     0.034 C 
ENDBRANCH  19  23
ENDBRANCH  18  19
ENDBRANCH  17  18
ENDBRANCH  16  17
ENDBRANCH  14  16
ENDBRANCH   9  12
ENDBRANCH   4   6
BRANCH   1  25
ATOM     25  N   UNL d   1      28.092 -12.927  -7.036  0.00  0.00    -0.302 N 
ATOM     26  C   UNL d   1      28.593 -12.961  -8.326  0.00  0.00     0.099 A 
ATOM     27  C   UNL d   1      28.142 -11.857  -9.018  0.00  0.00     0.020 A 
ATOM     28  C   UNL d   1      27.378 -11.085  -8.125  0.00  0.00     0.028 A 
ATOM     29  C   UNL d   1      27.366 -11.740  -6.907  0.00  0.00     0.036 A 
BRANCH  29  30
ATOM     30  C   UNL d   1      26.703 -11.281  -5.645  0.00  0.00     0.177 C 
BRANCH  30  31
ATOM     31  N   UNL d   1      25.619 -12.120  -5.170  0.00  0.00    -0.384 N 
ATOM     32  H   UNL d   1      24.671 -11.834  -5.390  0.00  0.00     0.160 HD
BRANCH  31  33
ATOM     33  C   UNL d   1      25.728 -12.895  -4.029  0.00  0.00     0.028 A 
ATOM     34  C   UNL d   1      24.984 -14.076  -3.935  0.00  0.00     0.032 A 
ATOM     35  C   UNL d   1      25.093 -14.909  -2.819  0.00  0.00     0.039 A 
ATOM     36  C   UNL d   1      26.003 -14.607  -1.808  0.00  0.00     0.068 A 
ATOM     37  C   UNL d   1      26.776 -13.453  -1.909  0.00  0.00     0.039 A 
ATOM     38  C   UNL d   1      26.629 -12.603  -3.006  0.00  0.00     0.032 A 
BRANCH  36  39
ATOM     39  O   UNL d   1      26.141 -15.544  -0.821  0.00  0.00    -0.352 OA
BRANCH  39  40
ATOM     40  C   UNL d   1      25.589 -16.826  -1.115  0.00  0.00     0.171 C 
ATOM     41  C   UNL d   1      25.908 -17.758   0.039  0.00  0.00     0.034 C 
ENDBRANCH  39  40
ENDBRANCH  36  39
ENDBRANCH  31  33
ENDBRANCH  30  31
ENDBRANCH  29  30
ENDBRANCH   1  25
TORSDOF 14
ENDMDL
