MODEL 1
REMARK VINA RESULT:    -6.352      0.000      0.000
REMARK INTER + INTRA:          -7.729
REMARK INTER:                  -7.247
REMARK INTRA:                  -0.482
REMARK CONF_INDEPENDENT:        0.895
REMARK UNBOUND:                -0.482
REMARK  3 active torsions:
REMARK  status: ('A' for Active; 'I' for Inactive)
REMARK    1  A    between atoms: C_6  and  N_7 
REMARK       I    between atoms: N_7  and  C_8 
REMARK    2  A    between atoms: C_8  and  C_10 
REMARK    3  A    between atoms: C_13  and  O_14 
ROOT
ATOM      1  N   UNL d   1      26.388 -13.979  -4.062  0.00  0.00    -0.323 N 
ATOM      2  C   UNL d   1      25.330 -14.492  -3.325  0.00  0.00     0.256 C 
ATOM      3  O   UNL d   1      24.184 -14.076  -3.517  0.00  0.00    -0.267 OA
ATOM      4  H   UNL d   1      26.254 -13.028  -4.388  0.00  0.00     0.169 HD
ENDROOT
BRANCH   2   5
ATOM      5  C   UNL d   1      25.585 -15.485  -2.220  0.00  0.00     0.034 A 
ATOM      6  C   UNL d   1      26.682 -15.330  -1.361  0.00  0.00     0.020 A 
ATOM      7  C   UNL d   1      26.887 -16.232  -0.301  0.00  0.00     0.039 A 
ATOM      8  C   UNL d   1      25.969 -17.262  -0.072  0.00  0.00     0.087 A 
ATOM      9  C   UNL d   1      24.878 -17.418  -0.918  0.00  0.00     0.068 A 
ATOM     10 CL   UNL d   1      23.654 -18.600  -0.631  0.00  0.00    -0.081 Cl
ATOM     11  C   UNL d   1      24.734 -16.583  -2.021  0.00  0.00     0.043 A 
BRANCH   8  12
ATOM     12  O   UNL d   1      26.132 -18.133   0.967  0.00  0.00    -0.359 OA
ATOM     13  H   UNL d   1      27.043 -18.097   1.294  0.00  0.00     0.217 HD
ENDBRANCH   8  12
ENDBRANCH   2   5
BRANCH   1  14
ATOM     14  C   UNL d   1      27.454 -14.711  -4.640  0.00  0.00     0.035 C 
ATOM     15  C   UNL d   1      27.780 -14.541  -5.986  0.00  0.00     0.029 C 
ATOM     16  C   UNL d   1      28.898 -15.200  -6.516  0.00  0.00     0.003 C 
ATOM     17  C   UNL d   1      29.714 -15.991  -5.700  0.00  0.00     0.007 C 
ATOM     18  C   UNL d   1      29.385 -16.180  -4.363  0.00  0.00    -0.060 C 
ATOM     19  C   UNL d   1      30.253 -16.932  -3.401  0.00  0.00     0.048 C 
ATOM     20  C   UNL d   1      28.215 -15.600  -3.877  0.00  0.00     0.036 C 
ENDBRANCH   1  14
TORSDOF 3
ENDMDL
MODEL 2
REMARK VINA RESULT:    -6.303      9.500     12.033
REMARK INTER + INTRA:          -7.719
REMARK INTER:                  -7.198
REMARK INTRA:                  -0.521
REMARK CONF_INDEPENDENT:        0.895
REMARK UNBOUND:                -0.521
REMARK  3 active torsions:
REMARK  status: ('A' for Active; 'I' for Inactive)
REMARK    1  A    between atoms: C_6  and  N_7 
REMARK       I    between atoms: N_7  and  C_8 
REMARK    2  A    between atoms: C_8  and  C_10 
REMARK    3  A    between atoms: C_13  and  O_14 
ROOT
ATOM      1  N   UNL d   1      28.501 -11.490   8.899  0.00  0.00    -0.323 N 
ATOM      2  C   UNL d   1      28.844 -11.235   7.579  0.00  0.00     0.256 C 
ATOM      3  O   UNL d   1      29.251 -10.116   7.252  0.00  0.00    -0.267 OA
ATOM      4  H   UNL d   1      28.188 -10.677   9.419  0.00  0.00     0.169 HD
ENDROOT
BRANCH   2   5
ATOM      5  C   UNL d   1      28.631 -12.287   6.521  0.00  0.00     0.034 A 
ATOM      6  C   UNL d   1      28.892 -13.637   6.796  0.00  0.00     0.020 A 
ATOM      7  C   UNL d   1      28.645 -14.621   5.821  0.00  0.00     0.039 A 
ATOM      8  C   UNL d   1      28.093 -14.260   4.588  0.00  0.00     0.087 A 
ATOM      9  C   UNL d   1      27.830 -12.924   4.312  0.00  0.00     0.068 A 
ATOM     10 CL   UNL d   1      27.055 -12.423   2.853  0.00  0.00    -0.081 Cl
ATOM     11  C   UNL d   1      28.167 -11.947   5.242  0.00  0.00     0.043 A 
BRANCH   8  12
ATOM     12  O   UNL d   1      27.819 -15.200   3.636  0.00  0.00    -0.359 OA
ATOM     13  H   UNL d   1      28.526 -15.863   3.606  0.00  0.00     0.217 HD
ENDBRANCH   8  12
ENDBRANCH   2   5
BRANCH   1  14
ATOM     14  C   UNL d   1      28.815 -12.649   9.650  0.00  0.00     0.035 C 
ATOM     15  C   UNL d   1      27.852 -13.248  10.462  0.00  0.00     0.029 C 
ATOM     16  C   UNL d   1      28.152 -14.449  11.121  0.00  0.00     0.003 C 
ATOM     17  C   UNL d   1      29.390 -15.074  10.939  0.00  0.00     0.007 C 
ATOM     18  C   UNL d   1      30.361 -14.473  10.146  0.00  0.00    -0.060 C 
ATOM     19  C   UNL d   1      31.673 -15.119   9.823  0.00  0.00     0.048 C 
ATOM     20  C   UNL d   1      30.084 -13.231   9.579  0.00  0.00     0.036 C 
ENDBRANCH   1  14
TORSDOF 3
ENDMDL
MODEL 3
REMARK VINA RESULT:    -6.296      2.899      5.970
REMARK INTER + INTRA:          -7.859
REMARK INTER:                  -7.190
REMARK INTRA:                  -0.668
REMARK CONF_INDEPENDENT:        0.895
REMARK UNBOUND:                -0.668
REMARK  3 active torsions:
REMARK  status: ('A' for Active; 'I' for Inactive)
REMARK    1  A    between atoms: C_6  and  N_7 
REMARK       I    between atoms: N_7  and  C_8 
REMARK    2  A    between atoms: C_8  and  C_10 
REMARK    3  A    between atoms: C_13  and  O_14 
ROOT
ATOM      1  N   UNL d   1      25.892 -14.885  -0.219  0.00  0.00    -0.323 N 
ATOM      2  C   UNL d   1      26.964 -14.368  -0.933  0.00  0.00     0.256 C 
ATOM      3  O   UNL d   1      27.775 -13.623  -0.376  0.00  0.00    -0.267 OA
ATOM      4  H   UNL d   1      25.584 -14.308   0.558  0.00  0.00     0.169 HD
ENDROOT
BRANCH   2   5
ATOM      5  C   UNL d   1      27.090 -14.632  -2.411  0.00  0.00     0.034 A 
ATOM      6  C   UNL d   1      26.155 -14.102  -3.313  0.00  0.00     0.020 A 
ATOM      7  C   UNL d   1      26.306 -14.311  -4.696  0.00  0.00     0.039 A 
ATOM      8  C   UNL d   1      27.416 -15.009  -5.181  0.00  0.00     0.087 A 
ATOM      9  C   UNL d   1      28.347 -15.533  -4.292  0.00  0.00     0.068 A 
ATOM     10 CL   UNL d   1      29.791 -16.313  -4.828  0.00  0.00    -0.081 Cl
ATOM     11  C   UNL d   1      28.141 -15.408  -2.923  0.00  0.00     0.043 A 
BRANCH   8  12
ATOM     12  O   UNL d   1      27.598 -15.201  -6.521  0.00  0.00    -0.359 OA
ATOM     13  H   UNL d   1      28.205 -14.534  -6.875  0.00  0.00     0.217 HD
ENDBRANCH   8  12
ENDBRANCH   2   5
BRANCH   1  14
ATOM     14  C   UNL d   1      25.400 -16.211  -0.266  0.00  0.00     0.035 C 
ATOM     15  C   UNL d   1      26.200 -17.277   0.147  0.00  0.00     0.029 C 
ATOM     16  C   UNL d   1      25.663 -18.572   0.184  0.00  0.00     0.003 C 
ATOM     17  C   UNL d   1      24.322 -18.799  -0.147  0.00  0.00     0.007 C 
ATOM     18  C   UNL d   1      23.525 -17.745  -0.578  0.00  0.00    -0.060 C 
ATOM     19  C   UNL d   1      22.061 -17.885  -0.860  0.00  0.00     0.048 C 
ATOM     20  C   UNL d   1      24.101 -16.483  -0.706  0.00  0.00     0.036 C 
ENDBRANCH   1  14
TORSDOF 3
ENDMDL
MODEL 4
REMARK VINA RESULT:    -6.222      3.315      6.072
REMARK INTER + INTRA:          -7.735
REMARK INTER:                  -7.117
REMARK INTRA:                  -0.619
REMARK CONF_INDEPENDENT:        0.895
REMARK UNBOUND:                -0.619
REMARK  3 active torsions:
REMARK  status: ('A' for Active; 'I' for Inactive)
REMARK    1  A    between atoms: C_6  and  N_7 
REMARK       I    between atoms: N_7  and  C_8 
REMARK    2  A    between atoms: C_8  and  C_10 
REMARK    3  A    between atoms: C_13  and  O_14 
ROOT
ATOM      1  N   UNL d   1      28.014 -16.229   0.593  0.00  0.00    -0.323 N 
ATOM      2  C   UNL d   1      27.183 -16.930  -0.270  0.00  0.00     0.256 C 
ATOM      3  O   UNL d   1      27.050 -18.151  -0.144  0.00  0.00    -0.267 OA
ATOM      4  H   UNL d   1      28.777 -16.774   0.980  0.00  0.00     0.169 HD
ENDROOT
BRANCH   2   5
ATOM      5  C   UNL d   1      26.517 -16.224  -1.424  0.00  0.00     0.034 A 
ATOM      6  C   UNL d   1      25.177 -15.822  -1.335  0.00  0.00     0.020 A 
ATOM      7  C   UNL d   1      24.575 -15.120  -2.395  0.00  0.00     0.039 A 
ATOM      8  C   UNL d   1      25.326 -14.780  -3.525  0.00  0.00     0.087 A 
ATOM      9  C   UNL d   1      26.656 -15.174  -3.616  0.00  0.00     0.068 A 
ATOM     10 CL   UNL d   1      27.666 -14.698  -4.932  0.00  0.00    -0.081 Cl
ATOM     11  C   UNL d   1      27.217 -15.950  -2.609  0.00  0.00     0.043 A 
BRANCH   8  12
ATOM     12  O   UNL d   1      24.771 -14.076  -4.555  0.00  0.00    -0.359 OA
ATOM     13  H   UNL d   1      23.809 -14.193  -4.561  0.00  0.00     0.217 HD
ENDBRANCH   8  12
ENDBRANCH   2   5
BRANCH   1  14
ATOM     14  C   UNL d   1      27.746 -14.979   1.201  0.00  0.00     0.035 C 
ATOM     15  C   UNL d   1      27.302 -13.901   0.436  0.00  0.00     0.029 C 
ATOM     16  C   UNL d   1      26.950 -12.701   1.070  0.00  0.00     0.003 C 
ATOM     17  C   UNL d   1      26.998 -12.587   2.463  0.00  0.00     0.007 C 
ATOM     18  C   UNL d   1      27.458 -13.651   3.231  0.00  0.00    -0.060 C 
ATOM     19  C   UNL d   1      27.452 -13.646   4.728  0.00  0.00     0.048 C 
ATOM     20  C   UNL d   1      27.899 -14.801   2.579  0.00  0.00     0.036 C 
ENDBRANCH   1  14
TORSDOF 3
ENDMDL
MODEL 5
REMARK VINA RESULT:    -6.202      3.719      5.585
REMARK INTER + INTRA:          -7.739
REMARK INTER:                  -7.097
REMARK INTRA:                  -0.642
REMARK CONF_INDEPENDENT:        0.895
REMARK UNBOUND:                -0.642
REMARK  3 active torsions:
REMARK  status: ('A' for Active; 'I' for Inactive)
REMARK    1  A    between atoms: C_6  and  N_7 
REMARK       I    between atoms: N_7  and  C_8 
REMARK    2  A    between atoms: C_8  and  C_10 
REMARK    3  A    between atoms: C_13  and  O_14 
ROOT
ATOM      1  N   UNL d   1      25.744 -15.473  -2.062  0.00  0.00    -0.323 N 
ATOM      2  C   UNL d   1      26.304 -14.322  -1.526  0.00  0.00     0.256 C 
ATOM      3  O   UNL d   1      26.040 -13.220  -2.017  0.00  0.00    -0.267 OA
ATOM      4  H   UNL d   1      25.516 -15.411  -3.049  0.00  0.00     0.169 HD
ENDROOT
BRANCH   2   5
ATOM      5  C   UNL d   1      27.309 -14.416  -0.406  0.00  0.00     0.034 A 
ATOM      6  C   UNL d   1      28.635 -14.788  -0.669  0.00  0.00     0.020 A 
ATOM      7  C   UNL d   1      29.580 -14.826   0.372  0.00  0.00     0.039 A 
ATOM      8  C   UNL d   1      29.212 -14.448   1.667  0.00  0.00     0.087 A 
ATOM      9  C   UNL d   1      27.899 -14.075   1.931  0.00  0.00     0.068 A 
ATOM     10 CL   UNL d   1      27.403 -13.498   3.481  0.00  0.00    -0.081 Cl
ATOM     11  C   UNL d   1      26.947 -14.133   0.919  0.00  0.00     0.043 A 
BRANCH   8  12
ATOM     12  O   UNL d   1      30.118 -14.451   2.688  0.00  0.00    -0.359 OA
ATOM     13  H   UNL d   1      30.214 -15.346   3.047  0.00  0.00     0.217 HD
ENDBRANCH   8  12
ENDBRANCH   2   5
BRANCH   1  14
ATOM     14  C   UNL d   1      25.201 -16.567  -1.346  0.00  0.00     0.035 C 
ATOM     15  C   UNL d   1      25.967 -17.238  -0.393  0.00  0.00     0.029 C 
ATOM     16  C   UNL d   1      25.381 -18.255   0.375  0.00  0.00     0.003 C 
ATOM     17  C   UNL d   1      24.027 -18.574   0.226  0.00  0.00     0.007 C 
ATOM     18  C   UNL d   1      23.263 -17.922  -0.735  0.00  0.00    -0.060 C 
ATOM     19  C   UNL d   1      21.789 -18.135  -0.896  0.00  0.00     0.048 C 
ATOM     20  C   UNL d   1      23.884 -16.985  -1.559  0.00  0.00     0.036 C 
ENDBRANCH   1  14
TORSDOF 3
ENDMDL
MODEL 6
REMARK VINA RESULT:    -6.200      1.408      2.298
REMARK INTER + INTRA:          -7.614
REMARK INTER:                  -7.095
REMARK INTRA:                  -0.519
REMARK CONF_INDEPENDENT:        0.895
REMARK UNBOUND:                -0.519
REMARK  3 active torsions:
REMARK  status: ('A' for Active; 'I' for Inactive)
REMARK    1  A    between atoms: C_6  and  N_7 
REMARK       I    between atoms: N_7  and  C_8 
REMARK    2  A    between atoms: C_8  and  C_10 
REMARK    3  A    between atoms: C_13  and  O_14 
ROOT
ATOM      1  N   UNL d   1      25.261 -13.227  -4.310  0.00  0.00    -0.323 N 
ATOM      2  C   UNL d   1      24.509 -14.068  -3.501  0.00  0.00     0.256 C 
ATOM      3  O   UNL d   1      23.278 -14.075  -3.593  0.00  0.00    -0.267 OA
ATOM      4  H   UNL d   1      24.780 -12.383  -4.603  0.00  0.00     0.169 HD
ENDROOT
BRANCH   2   5
ATOM      5  C   UNL d   1      25.180 -14.904  -2.442  0.00  0.00     0.034 A 
ATOM      6  C   UNL d   1      26.379 -14.479  -1.852  0.00  0.00     0.020 A 
ATOM      7  C   UNL d   1      26.975 -15.239  -0.830  0.00  0.00     0.039 A 
ATOM      8  C   UNL d   1      26.350 -16.400  -0.365  0.00  0.00     0.087 A 
ATOM      9  C   UNL d   1      25.159 -16.824  -0.944  0.00  0.00     0.068 A 
ATOM     10 CL   UNL d   1      24.283 -18.187  -0.350  0.00  0.00    -0.081 Cl
ATOM     11  C   UNL d   1      24.626 -16.122  -2.020  0.00  0.00     0.043 A 
BRANCH   8  12
ATOM     12  O   UNL d   1      26.895 -17.139   0.645  0.00  0.00    -0.359 OA
ATOM     13  H   UNL d   1      27.824 -16.894   0.776  0.00  0.00     0.217 HD
ENDBRANCH   8  12
ENDBRANCH   2   5
BRANCH   1  14
ATOM     14  C   UNL d   1      26.461 -13.549  -4.987  0.00  0.00     0.035 C 
ATOM     15  C   UNL d   1      26.935 -14.861  -5.001  0.00  0.00     0.029 C 
ATOM     16  C   UNL d   1      28.072 -15.178  -5.757  0.00  0.00     0.003 C 
ATOM     17  C   UNL d   1      28.711 -14.203  -6.531  0.00  0.00     0.007 C 
ATOM     18  C   UNL d   1      28.256 -12.890  -6.507  0.00  0.00    -0.060 C 
ATOM     19  C   UNL d   1      28.822 -11.809  -7.375  0.00  0.00     0.048 C 
ATOM     20  C   UNL d   1      27.187 -12.570  -5.672  0.00  0.00     0.036 C 
ENDBRANCH   1  14
TORSDOF 3
ENDMDL
MODEL 7
REMARK VINA RESULT:    -6.126      1.929      2.656
REMARK INTER + INTRA:          -7.692
REMARK INTER:                  -7.020
REMARK INTRA:                  -0.671
REMARK CONF_INDEPENDENT:        0.895
REMARK UNBOUND:                -0.671
REMARK  3 active torsions:
REMARK  status: ('A' for Active; 'I' for Inactive)
REMARK    1  A    between atoms: C_6  and  N_7 
REMARK       I    between atoms: N_7  and  C_8 
REMARK    2  A    between atoms: C_8  and  C_10 
REMARK    3  A    between atoms: C_13  and  O_14 
ROOT
ATOM      1  N   UNL d   1      27.614 -14.633  -1.389  0.00  0.00    -0.323 N 
ATOM      2  C   UNL d   1      26.721 -14.905  -0.361  0.00  0.00     0.256 C 
ATOM      3  O   UNL d   1      26.627 -14.132   0.597  0.00  0.00    -0.267 OA
ATOM      4  H   UNL d   1      28.423 -14.087  -1.111  0.00  0.00     0.169 HD
ENDROOT
BRANCH   2   5
ATOM      5  C   UNL d   1      25.932 -16.189  -0.360  0.00  0.00     0.034 A 
ATOM      6  C   UNL d   1      26.532 -17.394   0.034  0.00  0.00     0.020 A 
ATOM      7  C   UNL d   1      25.778 -18.580   0.081  0.00  0.00     0.039 A 
ATOM      8  C   UNL d   1      24.413 -18.555  -0.222  0.00  0.00     0.087 A 
ATOM      9  C   UNL d   1      23.813 -17.362  -0.610  0.00  0.00     0.068 A 
ATOM     10 CL   UNL d   1      22.115 -17.240  -0.895  0.00  0.00    -0.081 Cl
ATOM     11  C   UNL d   1      24.584 -16.214  -0.748  0.00  0.00     0.043 A 
BRANCH   8  12
ATOM     12  O   UNL d   1      23.655 -19.688  -0.157  0.00  0.00    -0.359 OA
ATOM     13  H   UNL d   1      23.136 -19.697   0.661  0.00  0.00     0.217 HD
ENDBRANCH   8  12
ENDBRANCH   2   5
BRANCH   1  14
ATOM     14  C   UNL d   1      27.378 -14.769  -2.778  0.00  0.00     0.035 C 
ATOM     15  C   UNL d   1      26.150 -14.396  -3.326  0.00  0.00     0.029 C 
ATOM     16  C   UNL d   1      25.969 -14.447  -4.716  0.00  0.00     0.003 C 
ATOM     17  C   UNL d   1      27.018 -14.826  -5.560  0.00  0.00     0.007 C 
ATOM     18  C   UNL d   1      28.238 -15.217  -5.019  0.00  0.00    -0.060 C 
ATOM     19  C   UNL d   1      29.438 -15.545  -5.853  0.00  0.00     0.048 C 
ATOM     20  C   UNL d   1      28.369 -15.258  -3.633  0.00  0.00     0.036 C 
ENDBRANCH   1  14
TORSDOF 3
ENDMDL
MODEL 8
REMARK VINA RESULT:    -6.101      3.096      5.596
REMARK INTER + INTRA:          -7.585
REMARK INTER:                  -6.996
REMARK INTRA:                  -0.589
REMARK CONF_INDEPENDENT:        0.895
REMARK UNBOUND:                -0.589
REMARK  3 active torsions:
REMARK  status: ('A' for Active; 'I' for Inactive)
REMARK    1  A    between atoms: C_6  and  N_7 
REMARK       I    between atoms: N_7  and  C_8 
REMARK    2  A    between atoms: C_8  and  C_10 
REMARK    3  A    between atoms: C_13  and  O_14 
ROOT
ATOM      1  N   UNL d   1      25.193 -16.513  -2.687  0.00  0.00    -0.323 N 
ATOM      2  C   UNL d   1      25.994 -15.383  -2.597  0.00  0.00     0.256 C 
ATOM      3  O   UNL d   1      25.781 -14.414  -3.331  0.00  0.00    -0.267 OA
ATOM      4  H   UNL d   1      24.778 -16.664  -3.600  0.00  0.00     0.169 HD
ENDROOT
BRANCH   2   5
ATOM      5  C   UNL d   1      27.187 -15.369  -1.675  0.00  0.00     0.034 A 
ATOM      6  C   UNL d   1      27.197 -14.551  -0.536  0.00  0.00     0.020 A 
ATOM      7  C   UNL d   1      28.292 -14.579   0.347  0.00  0.00     0.039 A 
ATOM      8  C   UNL d   1      29.355 -15.458   0.117  0.00  0.00     0.087 A 
ATOM      9  C   UNL d   1      29.347 -16.273  -1.009  0.00  0.00     0.068 A 
ATOM     10 CL   UNL d   1      30.574 -17.453  -1.297  0.00  0.00    -0.081 Cl
ATOM     11  C   UNL d   1      28.310 -16.171  -1.928  0.00  0.00     0.043 A 
BRANCH   8  12
ATOM     12  O   UNL d   1      30.415 -15.522   0.975  0.00  0.00    -0.359 OA
ATOM     13  H   UNL d   1      30.291 -16.246   1.608  0.00  0.00     0.217 HD
ENDBRANCH   8  12
ENDBRANCH   2   5
BRANCH   1  14
ATOM     14  C   UNL d   1      24.672 -17.273  -1.612  0.00  0.00     0.035 C 
ATOM     15  C   UNL d   1      25.451 -17.529  -0.484  0.00  0.00     0.029 C 
ATOM     16  C   UNL d   1      24.886 -18.199   0.610  0.00  0.00     0.003 C 
ATOM     17  C   UNL d   1      23.538 -18.575   0.600  0.00  0.00     0.007 C 
ATOM     18  C   UNL d   1      22.761 -18.340  -0.529  0.00  0.00    -0.060 C 
ATOM     19  C   UNL d   1      21.291 -18.624  -0.587  0.00  0.00     0.048 C 
ATOM     20  C   UNL d   1      23.364 -17.764  -1.645  0.00  0.00     0.036 C 
ENDBRANCH   1  14
TORSDOF 3
ENDMDL
MODEL 9
REMARK VINA RESULT:    -6.092      3.431      5.298
REMARK INTER + INTRA:          -7.593
REMARK INTER:                  -6.987
REMARK INTRA:                  -0.606
REMARK CONF_INDEPENDENT:        0.895
REMARK UNBOUND:                -0.606
REMARK  3 active torsions:
REMARK  status: ('A' for Active; 'I' for Inactive)
REMARK    1  A    between atoms: C_6  and  N_7 
REMARK       I    between atoms: N_7  and  C_8 
REMARK    2  A    between atoms: C_8  and  C_10 
REMARK    3  A    between atoms: C_13  and  O_14 
ROOT
ATOM      1  N   UNL d   1      25.530 -15.965  -3.248  0.00  0.00    -0.323 N 
ATOM      2  C   UNL d   1      25.443 -14.584  -3.357  0.00  0.00     0.256 C 
ATOM      3  O   UNL d   1      24.780 -14.077  -4.266  0.00  0.00    -0.267 OA
ATOM      4  H   UNL d   1      25.425 -16.465  -4.124  0.00  0.00     0.169 HD
ENDROOT
BRANCH   2   5
ATOM      5  C   UNL d   1      26.234 -13.698  -2.430  0.00  0.00     0.034 A 
ATOM      6  C   UNL d   1      26.944 -12.596  -2.929  0.00  0.00     0.020 A 
ATOM      7  C   UNL d   1      27.640 -11.744  -2.053  0.00  0.00     0.039 A 
ATOM      8  C   UNL d   1      27.589 -11.965  -0.673  0.00  0.00     0.087 A 
ATOM      9  C   UNL d   1      26.884 -13.054  -0.173  0.00  0.00     0.068 A 
ATOM     10 CL   UNL d   1      26.695 -13.325   1.521  0.00  0.00    -0.081 Cl
ATOM     11  C   UNL d   1      26.280 -13.947  -1.050  0.00  0.00     0.043 A 
BRANCH   8  12
ATOM     12  O   UNL d   1      28.234 -11.136   0.199  0.00  0.00    -0.359 OA
ATOM     13  H   UNL d   1      29.108 -10.901  -0.148  0.00  0.00     0.217 HD
ENDBRANCH   8  12
ENDBRANCH   2   5
BRANCH   1  14
ATOM     14  C   UNL d   1      25.448 -16.730  -2.059  0.00  0.00     0.035 C 
ATOM     15  C   UNL d   1      26.582 -16.940  -1.274  0.00  0.00     0.029 C 
ATOM     16  C   UNL d   1      26.461 -17.617  -0.052  0.00  0.00     0.003 C 
ATOM     17  C   UNL d   1      25.211 -18.046   0.408  0.00  0.00     0.007 C 
ATOM     18  C   UNL d   1      24.080 -17.857  -0.378  0.00  0.00    -0.060 C 
ATOM     19  C   UNL d   1      22.696 -18.199   0.078  0.00  0.00     0.048 C 
ATOM     20  C   UNL d   1      24.232 -17.273  -1.635  0.00  0.00     0.036 C 
ENDBRANCH   1  14
TORSDOF 3
ENDMDL
