MODEL 1
REMARK VINA RESULT:    -9.122      0.000      0.000
REMARK INTER + INTRA:         -14.156
REMARK INTER:                 -12.701
REMARK INTRA:                  -1.455
REMARK CONF_INDEPENDENT:        3.580
REMARK UNBOUND:                -1.455
REMARK  12 active torsions:
REMARK  status: ('A' for Active; 'I' for Inactive)
REMARK    1  A    between atoms: C_2  and  C_3 
REMARK    2  A    between atoms: C_3  and  C_4 
REMARK    3  A    between atoms: C_4  and  C_5 
REMARK    4  A    between atoms: C_5  and  O_6 
REMARK    5  A    between atoms: O_6  and  C_7 
REMARK    6  A    between atoms: C_12  and  C_13 
REMARK       I    between atoms: C_13  and  N_15 
REMARK    7  A    between atoms: N_15  and  C_16 
REMARK    8  A    between atoms: C_16  and  N_18 
REMARK    9  A    between atoms: N_18  and  N_19 
REMARK       I    between atoms: N_19  and  C_20 
REMARK   10  A    between atoms: C_22  and  C_20 
REMARK   11  A    between atoms: N_26  and  C_27 
REMARK   12  A    between atoms: C_27  and  C_28 
ROOT
ATOM      1  C   UNL d   1      31.551 -19.446  -1.154  0.00  0.00     0.193 C 
ATOM      2  S   UNL d   1      32.343 -19.214  -2.622  0.00  0.00    -0.039 SA
ENDROOT
BRANCH   1   3
ATOM      3  N   UNL d   1      30.409 -18.702  -0.721  0.00  0.00    -0.298 N 
ATOM      4  C   UNL d   1      29.832 -17.554  -1.354  0.00  0.00     0.260 C 
ATOM      5  O   UNL d   1      29.963 -17.342  -2.560  0.00  0.00    -0.267 OA
ATOM      6  H   UNL d   1      30.066 -18.880   0.213  0.00  0.00     0.171 HD
BRANCH   4   7
ATOM      7  C   UNL d   1      28.971 -16.527  -0.616  0.00  0.00     0.065 A 
ATOM      8  C   UNL d   1      29.681 -15.626   0.232  0.00  0.00     0.020 A 
ATOM      9  C   UNL d   1      29.060 -14.588   0.946  0.00  0.00     0.001 A 
ATOM     10  C   UNL d   1      27.691 -14.420   0.848  0.00  0.00     0.003 A 
ATOM     11  C   UNL d   1      26.953 -15.340   0.098  0.00  0.00     0.038 A 
ATOM     12  C   UNL d   1      27.578 -16.383  -0.639  0.00  0.00     0.084 A 
BRANCH  12  13
ATOM     13  O   UNL d   1      26.719 -17.077  -1.440  0.00  0.00    -0.350 OA
BRANCH  13  14
ATOM     14  C   UNL d   1      25.654 -16.342  -2.026  0.00  0.00     0.175 C 
BRANCH  14  15
ATOM     15  C   UNL d   1      24.416 -16.686  -1.204  0.00  0.00     0.027 C 
BRANCH  15  16
ATOM     16  C   UNL d   1      24.765 -17.731  -0.163  0.00  0.00     0.002 C 
BRANCH  16  17
ATOM     17  C   UNL d   1      23.784 -18.892  -0.210  0.00  0.00    -0.004 C 
ATOM     18  C   UNL d   1      22.698 -18.603  -1.230  0.00  0.00     0.005 C 
ENDBRANCH  16  17
ENDBRANCH  15  16
ENDBRANCH  14  15
ENDBRANCH  13  14
ENDBRANCH  12  13
ENDBRANCH   4   7
ENDBRANCH   1   3
BRANCH   1  19
ATOM     19  N   UNL d   1      32.027 -20.443  -0.263  0.00  0.00    -0.273 N 
ATOM     20  H   UNL d   1      32.154 -21.424  -0.501  0.00  0.00     0.189 HD
BRANCH  19  21
ATOM     21  N   UNL d   1      31.909 -20.217   1.193  0.00  0.00    -0.268 N 
ATOM     22  C   UNL d   1      31.516 -21.237   2.069  0.00  0.00     0.242 C 
ATOM     23  O   UNL d   1      31.077 -22.323   1.703  0.00  0.00    -0.271 OA
ATOM     24  H   UNL d   1      32.535 -19.486   1.535  0.00  0.00     0.190 HD
BRANCH  22  25
ATOM     25  C   UNL d   1      31.688 -20.893   3.546  0.00  0.00     0.106 C 
ATOM     26  C   UNL d   1      30.754 -21.600   4.519  0.00  0.00     0.118 C 
ATOM     27  C   UNL d   1      31.408 -21.281   5.838  0.00  0.00     0.221 C 
ATOM     28  O   UNL d   1      30.782 -21.203   6.865  0.00  0.00    -0.273 OA
ATOM     29  N   UNL d   1      32.782 -21.149   5.598  0.00  0.00    -0.345 N 
ATOM     30  C   UNL d   1      33.058 -21.198   4.167  0.00  0.00     0.141 C 
BRANCH  29  31
ATOM     31  C   UNL d   1      33.841 -20.942   6.609  0.00  0.00     0.190 C 
BRANCH  31  32
ATOM     32  C   UNL d   1      34.247 -22.213   7.271  0.00  0.00     0.070 A 
ATOM     33  C   UNL d   1      35.024 -22.441   8.390  0.00  0.00     0.036 A 
ATOM     34  C   UNL d   1      35.278 -23.826   8.434  0.00  0.00     0.027 A 
ATOM     35  C   UNL d   1      34.568 -24.376   7.393  0.00  0.00     0.142 A 
ATOM     36  O   UNL d   1      33.927 -23.406   6.680  0.00  0.00    -0.325 OA
ENDBRANCH  31  32
ENDBRANCH  29  31
ENDBRANCH  22  25
ENDBRANCH  19  21
ENDBRANCH   1  19
TORSDOF 12
ENDMDL
MODEL 2
REMARK VINA RESULT:    -8.502      7.652     10.515
REMARK INTER + INTRA:         -14.320
REMARK INTER:                 -12.081
REMARK INTRA:                  -2.239
REMARK CONF_INDEPENDENT:        3.580
REMARK UNBOUND:                -2.239
REMARK  12 active torsions:
REMARK  status: ('A' for Active; 'I' for Inactive)
REMARK    1  A    between atoms: C_2  and  C_3 
REMARK    2  A    between atoms: C_3  and  C_4 
REMARK    3  A    between atoms: C_4  and  C_5 
REMARK    4  A    between atoms: C_5  and  O_6 
REMARK    5  A    between atoms: O_6  and  C_7 
REMARK    6  A    between atoms: C_12  and  C_13 
REMARK       I    between atoms: C_13  and  N_15 
REMARK    7  A    between atoms: N_15  and  C_16 
REMARK    8  A    between atoms: C_16  and  N_18 
REMARK    9  A    between atoms: N_18  and  N_19 
REMARK       I    between atoms: N_19  and  C_20 
REMARK   10  A    between atoms: C_22  and  C_20 
REMARK   11  A    between atoms: N_26  and  C_27 
REMARK   12  A    between atoms: C_27  and  C_28 
ROOT
ATOM      1  C   UNL d   1      26.701 -12.779  -4.976  0.00  0.00     0.193 C 
ATOM      2  S   UNL d   1      26.603 -11.269  -4.238  0.00  0.00    -0.039 SA
ENDROOT
BRANCH   1   3
ATOM      3  N   UNL d   1      27.787 -13.211  -5.800  0.00  0.00    -0.298 N 
ATOM      4  C   UNL d   1      28.252 -14.553  -5.986  0.00  0.00     0.260 C 
ATOM      5  O   UNL d   1      27.514 -15.526  -5.825  0.00  0.00    -0.267 OA
ATOM      6  H   UNL d   1      28.411 -12.501  -6.157  0.00  0.00     0.171 HD
BRANCH   4   7
ATOM      7  C   UNL d   1      29.671 -14.899  -6.443  0.00  0.00     0.065 A 
ATOM      8  C   UNL d   1      30.278 -13.957  -7.327  0.00  0.00     0.020 A 
ATOM      9  C   UNL d   1      31.593 -14.086  -7.806  0.00  0.00     0.001 A 
ATOM     10  C   UNL d   1      32.349 -15.181  -7.428  0.00  0.00     0.003 A 
ATOM     11  C   UNL d   1      31.755 -16.168  -6.637  0.00  0.00     0.038 A 
ATOM     12  C   UNL d   1      30.431 -16.034  -6.137  0.00  0.00     0.084 A 
BRANCH  12  13
ATOM     13  O   UNL d   1      30.080 -17.011  -5.252  0.00  0.00    -0.350 OA
BRANCH  13  14
ATOM     14  C   UNL d   1      31.044 -18.023  -4.998  0.00  0.00     0.175 C 
BRANCH  14  15
ATOM     15  C   UNL d   1      30.305 -19.347  -5.161  0.00  0.00     0.027 C 
BRANCH  15  16
ATOM     16  C   UNL d   1      30.787 -20.055  -6.412  0.00  0.00     0.002 C 
BRANCH  16  17
ATOM     17  C   UNL d   1      30.780 -19.114  -7.606  0.00  0.00    -0.004 C 
ATOM     18  C   UNL d   1      31.164 -19.877  -8.860  0.00  0.00     0.005 C 
ENDBRANCH  16  17
ENDBRANCH  15  16
ENDBRANCH  14  15
ENDBRANCH  13  14
ENDBRANCH  12  13
ENDBRANCH   4   7
ENDBRANCH   1   3
BRANCH   1  19
ATOM     19  N   UNL d   1      25.646 -13.710  -4.789  0.00  0.00    -0.273 N 
ATOM     20  H   UNL d   1      24.673 -13.545  -5.040  0.00  0.00     0.189 HD
BRANCH  19  21
ATOM     21  N   UNL d   1      25.803 -14.778  -3.780  0.00  0.00    -0.268 N 
ATOM     22  C   UNL d   1      24.776 -15.108  -2.886  0.00  0.00     0.242 C 
ATOM     23  O   UNL d   1      23.753 -14.446  -2.745  0.00  0.00    -0.271 OA
ATOM     24  H   UNL d   1      26.459 -15.506  -4.069  0.00  0.00     0.190 HD
BRANCH  22  25
ATOM     25  C   UNL d   1      25.027 -16.387  -2.092  0.00  0.00     0.106 C 
ATOM     26  C   UNL d   1      25.797 -16.233  -0.787  0.00  0.00     0.118 C 
ATOM     27  C   UNL d   1      25.570 -17.580  -0.152  0.00  0.00     0.221 C 
ATOM     28  O   UNL d   1      26.362 -18.074   0.611  0.00  0.00    -0.273 OA
ATOM     29  N   UNL d   1      24.324 -18.044  -0.596  0.00  0.00    -0.345 N 
ATOM     30  C   UNL d   1      23.785 -17.157  -1.620  0.00  0.00     0.141 C 
BRANCH  29  31
ATOM     31  C   UNL d   1      23.630 -19.273  -0.158  0.00  0.00     0.190 C 
BRANCH  31  32
ATOM     32  C   UNL d   1      22.155 -19.190  -0.355  0.00  0.00     0.070 A 
ATOM     33  C   UNL d   1      21.126 -19.095   0.561  0.00  0.00     0.036 A 
ATOM     34  C   UNL d   1      19.927 -19.282  -0.153  0.00  0.00     0.027 A 
ATOM     35  C   UNL d   1      20.285 -19.390  -1.477  0.00  0.00     0.142 A 
ATOM     36  O   UNL d   1      21.641 -19.325  -1.616  0.00  0.00    -0.325 OA
ENDBRANCH  31  32
ENDBRANCH  29  31
ENDBRANCH  22  25
ENDBRANCH  19  21
ENDBRANCH   1  19
TORSDOF 12
ENDMDL
MODEL 3
REMARK VINA RESULT:    -8.295      6.621      7.907
REMARK INTER + INTRA:         -14.297
REMARK INTER:                 -11.874
REMARK INTRA:                  -2.423
REMARK CONF_INDEPENDENT:        3.580
REMARK UNBOUND:                -2.423
REMARK  12 active torsions:
REMARK  status: ('A' for Active; 'I' for Inactive)
REMARK    1  A    between atoms: C_2  and  C_3 
REMARK    2  A    between atoms: C_3  and  C_4 
REMARK    3  A    between atoms: C_4  and  C_5 
REMARK    4  A    between atoms: C_5  and  O_6 
REMARK    5  A    between atoms: O_6  and  C_7 
REMARK    6  A    between atoms: C_12  and  C_13 
REMARK       I    between atoms: C_13  and  N_15 
REMARK    7  A    between atoms: N_15  and  C_16 
REMARK    8  A    between atoms: C_16  and  N_18 
REMARK    9  A    between atoms: N_18  and  N_19 
REMARK       I    between atoms: N_19  and  C_20 
REMARK   10  A    between atoms: C_22  and  C_20 
REMARK   11  A    between atoms: N_26  and  C_27 
REMARK   12  A    between atoms: C_27  and  C_28 
ROOT
ATOM      1  C   UNL d   1      26.466 -13.152  -3.367  0.00  0.00     0.193 C 
ATOM      2  S   UNL d   1      25.981 -12.805  -4.942  0.00  0.00    -0.039 SA
ENDROOT
BRANCH   1   3
ATOM      3  N   UNL d   1      26.527 -14.466  -2.806  0.00  0.00    -0.298 N 
ATOM      4  C   UNL d   1      25.437 -15.236  -2.284  0.00  0.00     0.260 C 
ATOM      5  O   UNL d   1      24.277 -15.057  -2.656  0.00  0.00    -0.267 OA
ATOM      6  H   UNL d   1      27.441 -14.836  -2.588  0.00  0.00     0.171 HD
BRANCH   4   7
ATOM      7  C   UNL d   1      25.614 -16.368  -1.271  0.00  0.00     0.065 A 
ATOM      8  C   UNL d   1      26.956 -16.616  -0.854  0.00  0.00     0.020 A 
ATOM      9  C   UNL d   1      27.300 -17.582   0.107  0.00  0.00     0.001 A 
ATOM     10  C   UNL d   1      26.305 -18.352   0.680  0.00  0.00     0.003 A 
ATOM     11  C   UNL d   1      24.991 -18.198   0.230  0.00  0.00     0.038 A 
ATOM     12  C   UNL d   1      24.636 -17.212  -0.731  0.00  0.00     0.084 A 
BRANCH  12  13
ATOM     13  O   UNL d   1      23.291 -17.097  -0.925  0.00  0.00    -0.350 OA
BRANCH  13  14
ATOM     14  C   UNL d   1      22.458 -17.968  -0.173  0.00  0.00     0.175 C 
BRANCH  14  15
ATOM     15  C   UNL d   1      21.874 -18.952  -1.181  0.00  0.00     0.027 C 
BRANCH  15  16
ATOM     16  C   UNL d   1      20.392 -19.138  -0.920  0.00  0.00     0.002 C 
BRANCH  16  17
ATOM     17  C   UNL d   1      20.156 -20.225   0.117  0.00  0.00    -0.004 C 
ATOM     18  C   UNL d   1      20.292 -19.639   1.511  0.00  0.00     0.005 C 
ENDBRANCH  16  17
ENDBRANCH  15  16
ENDBRANCH  14  15
ENDBRANCH  13  14
ENDBRANCH  12  13
ENDBRANCH   4   7
ENDBRANCH   1   3
BRANCH   1  19
ATOM     19  N   UNL d   1      26.846 -12.085  -2.511  0.00  0.00    -0.273 N 
ATOM     20  H   UNL d   1      27.326 -11.240  -2.813  0.00  0.00     0.189 HD
BRANCH  19  21
ATOM     21  N   UNL d   1      27.004 -12.347  -1.065  0.00  0.00    -0.268 N 
ATOM     22  C   UNL d   1      28.040 -13.149  -0.568  0.00  0.00     0.242 C 
ATOM     23  O   UNL d   1      28.778 -13.828  -1.275  0.00  0.00    -0.271 OA
ATOM     24  H   UNL d   1      26.640 -11.593  -0.482  0.00  0.00     0.190 HD
BRANCH  22  25
ATOM     25  C   UNL d   1      28.189 -13.105   0.949  0.00  0.00     0.106 C 
ATOM     26  C   UNL d   1      27.325 -12.090   1.686  0.00  0.00     0.118 C 
ATOM     27  C   UNL d   1      27.488 -12.545   3.112  0.00  0.00     0.221 C 
ATOM     28  O   UNL d   1      27.405 -11.785   4.044  0.00  0.00    -0.273 OA
ATOM     29  N   UNL d   1      27.701 -13.930   3.084  0.00  0.00    -0.345 N 
ATOM     30  C   UNL d   1      27.854 -14.395   1.711  0.00  0.00     0.141 C 
BRANCH  29  31
ATOM     31  C   UNL d   1      27.809 -14.833   4.250  0.00  0.00     0.190 C 
BRANCH  31  32
ATOM     32  C   UNL d   1      28.495 -14.185   5.404  0.00  0.00     0.070 A 
ATOM     33  C   UNL d   1      29.764 -14.367   5.917  0.00  0.00     0.036 A 
ATOM     34  C   UNL d   1      29.810 -13.676   7.144  0.00  0.00     0.027 A 
ATOM     35  C   UNL d   1      28.598 -13.037   7.266  0.00  0.00     0.142 A 
ATOM     36  O   UNL d   1      27.789 -13.331   6.207  0.00  0.00    -0.325 OA
ENDBRANCH  31  32
ENDBRANCH  29  31
ENDBRANCH  22  25
ENDBRANCH  19  21
ENDBRANCH   1  19
TORSDOF 12
ENDMDL
MODEL 4
REMARK VINA RESULT:    -8.275      6.200      9.308
REMARK INTER + INTRA:         -14.717
REMARK INTER:                 -11.855
REMARK INTRA:                  -2.862
REMARK CONF_INDEPENDENT:        3.580
REMARK UNBOUND:                -2.862
REMARK  12 active torsions:
REMARK  status: ('A' for Active; 'I' for Inactive)
REMARK    1  A    between atoms: C_2  and  C_3 
REMARK    2  A    between atoms: C_3  and  C_4 
REMARK    3  A    between atoms: C_4  and  C_5 
REMARK    4  A    between atoms: C_5  and  O_6 
REMARK    5  A    between atoms: O_6  and  C_7 
REMARK    6  A    between atoms: C_12  and  C_13 
REMARK       I    between atoms: C_13  and  N_15 
REMARK    7  A    between atoms: N_15  and  C_16 
REMARK    8  A    between atoms: C_16  and  N_18 
REMARK    9  A    between atoms: N_18  and  N_19 
REMARK       I    between atoms: N_19  and  C_20 
REMARK   10  A    between atoms: C_22  and  C_20 
REMARK   11  A    between atoms: N_26  and  C_27 
REMARK   12  A    between atoms: C_27  and  C_28 
ROOT
ATOM      1  C   UNL d   1      29.445 -17.450  -1.267  0.00  0.00     0.193 C 
ATOM      2  S   UNL d   1      31.017 -18.022  -1.070  0.00  0.00    -0.039 SA
ENDROOT
BRANCH   1   3
ATOM      3  N   UNL d   1      28.904 -16.969  -2.500  0.00  0.00    -0.298 N 
ATOM      4  C   UNL d   1      29.611 -16.736  -3.724  0.00  0.00     0.260 C 
ATOM      5  O   UNL d   1      30.652 -17.334  -3.997  0.00  0.00    -0.267 OA
ATOM      6  H   UNL d   1      27.970 -16.584  -2.478  0.00  0.00     0.171 HD
BRANCH   4   7
ATOM      7  C   UNL d   1      29.122 -15.778  -4.811  0.00  0.00     0.065 A 
ATOM      8  C   UNL d   1      30.099 -15.396  -5.779  0.00  0.00     0.020 A 
ATOM      9  C   UNL d   1      29.815 -14.565  -6.875  0.00  0.00     0.001 A 
ATOM     10  C   UNL d   1      28.535 -14.068  -7.037  0.00  0.00     0.003 A 
ATOM     11  C   UNL d   1      27.577 -14.347  -6.059  0.00  0.00     0.038 A 
ATOM     12  C   UNL d   1      27.855 -15.200  -4.956  0.00  0.00     0.084 A 
BRANCH  12  13
ATOM     13  O   UNL d   1      26.757 -15.490  -4.199  0.00  0.00    -0.350 OA
BRANCH  13  14
ATOM     14  C   UNL d   1      25.651 -14.606  -4.308  0.00  0.00     0.175 C 
BRANCH  14  15
ATOM     15  C   UNL d   1      25.738 -13.687  -3.094  0.00  0.00     0.027 C 
BRANCH  15  16
ATOM     16  C   UNL d   1      26.015 -14.506  -1.848  0.00  0.00     0.002 C 
BRANCH  16  17
ATOM     17  C   UNL d   1      27.347 -14.115  -1.227  0.00  0.00    -0.004 C 
ATOM     18  C   UNL d   1      27.140 -13.737   0.229  0.00  0.00     0.005 C 
ENDBRANCH  16  17
ENDBRANCH  15  16
ENDBRANCH  14  15
ENDBRANCH  13  14
ENDBRANCH  12  13
ENDBRANCH   4   7
ENDBRANCH   1   3
BRANCH   1  19
ATOM     19  N   UNL d   1      28.573 -17.431  -0.147  0.00  0.00    -0.273 N 
ATOM     20  H   UNL d   1      28.841 -17.677   0.803  0.00  0.00     0.189 HD
BRANCH  19  21
ATOM     21  N   UNL d   1      27.115 -17.520  -0.373  0.00  0.00    -0.268 N 
ATOM     22  C   UNL d   1      26.259 -18.127   0.555  0.00  0.00     0.242 C 
ATOM     23  O   UNL d   1      26.647 -18.775   1.522  0.00  0.00    -0.271 OA
ATOM     24  H   UNL d   1      26.755 -16.762  -0.954  0.00  0.00     0.190 HD
BRANCH  22  25
ATOM     25  C   UNL d   1      24.776 -17.907   0.273  0.00  0.00     0.106 C 
ATOM     26  C   UNL d   1      24.401 -16.589  -0.393  0.00  0.00     0.118 C 
ATOM     27  C   UNL d   1      22.975 -16.859  -0.797  0.00  0.00     0.221 C 
ATOM     28  O   UNL d   1      22.157 -15.980  -0.894  0.00  0.00    -0.273 OA
ATOM     29  N   UNL d   1      22.867 -18.235  -1.040  0.00  0.00    -0.345 N 
ATOM     30  C   UNL d   1      24.097 -18.919  -0.660  0.00  0.00     0.141 C 
BRANCH  29  31
ATOM     31  C   UNL d   1      21.683 -18.950  -1.563  0.00  0.00     0.190 C 
BRANCH  31  32
ATOM     32  C   UNL d   1      20.743 -19.354  -0.480  0.00  0.00     0.070 A 
ATOM     33  C   UNL d   1      20.883 -19.325   0.894  0.00  0.00     0.036 A 
ATOM     34  C   UNL d   1      19.790 -20.036   1.429  0.00  0.00     0.027 A 
ATOM     35  C   UNL d   1      18.998 -20.379   0.358  0.00  0.00     0.142 A 
ATOM     36  O   UNL d   1      19.562 -19.962  -0.812  0.00  0.00    -0.325 OA
ENDBRANCH  31  32
ENDBRANCH  29  31
ENDBRANCH  22  25
ENDBRANCH  19  21
ENDBRANCH   1  19
TORSDOF 12
ENDMDL
MODEL 5
REMARK VINA RESULT:    -8.230      5.849      9.757
REMARK INTER + INTRA:         -14.274
REMARK INTER:                 -11.810
REMARK INTRA:                  -2.464
REMARK CONF_INDEPENDENT:        3.580
REMARK UNBOUND:                -2.464
REMARK  12 active torsions:
REMARK  status: ('A' for Active; 'I' for Inactive)
REMARK    1  A    between atoms: C_2  and  C_3 
REMARK    2  A    between atoms: C_3  and  C_4 
REMARK    3  A    between atoms: C_4  and  C_5 
REMARK    4  A    between atoms: C_5  and  O_6 
REMARK    5  A    between atoms: O_6  and  C_7 
REMARK    6  A    between atoms: C_12  and  C_13 
REMARK       I    between atoms: C_13  and  N_15 
REMARK    7  A    between atoms: N_15  and  C_16 
REMARK    8  A    between atoms: C_16  and  N_18 
REMARK    9  A    between atoms: N_18  and  N_19 
REMARK       I    between atoms: N_19  and  C_20 
REMARK   10  A    between atoms: C_22  and  C_20 
REMARK   11  A    between atoms: N_26  and  C_27 
REMARK   12  A    between atoms: C_27  and  C_28 
ROOT
ATOM      1  C   UNL d   1      29.217 -16.176  -0.077  0.00  0.00     0.193 C 
ATOM      2  S   UNL d   1      30.333 -15.915  -1.310  0.00  0.00    -0.039 SA
ENDROOT
BRANCH   1   3
ATOM      3  N   UNL d   1      28.887 -15.222   0.936  0.00  0.00    -0.298 N 
ATOM      4  C   UNL d   1      27.710 -14.408   1.009  0.00  0.00     0.260 C 
ATOM      5  O   UNL d   1      26.654 -14.743   0.473  0.00  0.00    -0.267 OA
ATOM      6  H   UNL d   1      29.620 -14.953   1.577  0.00  0.00     0.171 HD
BRANCH   4   7
ATOM      7  C   UNL d   1      27.640 -13.094   1.789  0.00  0.00     0.065 A 
ATOM      8  C   UNL d   1      27.804 -11.908   1.011  0.00  0.00     0.020 A 
ATOM      9  C   UNL d   1      27.718 -10.614   1.551  0.00  0.00     0.001 A 
ATOM     10  C   UNL d   1      27.479 -10.457   2.904  0.00  0.00     0.003 A 
ATOM     11  C   UNL d   1      27.405 -11.596   3.710  0.00  0.00     0.038 A 
ATOM     12  C   UNL d   1      27.475 -12.908   3.167  0.00  0.00     0.084 A 
BRANCH  12  13
ATOM     13  O   UNL d   1      27.218 -13.891   4.077  0.00  0.00    -0.350 OA
BRANCH  13  14
ATOM     14  C   UNL d   1      28.155 -14.956   4.152  0.00  0.00     0.175 C 
BRANCH  14  15
ATOM     15  C   UNL d   1      28.782 -14.856   5.538  0.00  0.00     0.027 C 
BRANCH  15  16
ATOM     16  C   UNL d   1      29.120 -13.410   5.846  0.00  0.00     0.002 C 
BRANCH  16  17
ATOM     17  C   UNL d   1      29.047 -13.142   7.341  0.00  0.00    -0.004 C 
ATOM     18  C   UNL d   1      28.162 -11.937   7.601  0.00  0.00     0.005 C 
ENDBRANCH  16  17
ENDBRANCH  15  16
ENDBRANCH  14  15
ENDBRANCH  13  14
ENDBRANCH  12  13
ENDBRANCH   4   7
ENDBRANCH   1   3
BRANCH   1  19
ATOM     19  N   UNL d   1      28.540 -17.422  -0.010  0.00  0.00    -0.273 N 
ATOM     20  H   UNL d   1      28.982 -18.331  -0.131  0.00  0.00     0.189 HD
BRANCH  19  21
ATOM     21  N   UNL d   1      27.081 -17.459  -0.243  0.00  0.00    -0.268 N 
ATOM     22  C   UNL d   1      26.217 -18.173   0.597  0.00  0.00     0.242 C 
ATOM     23  O   UNL d   1      26.595 -18.950   1.467  0.00  0.00    -0.271 OA
ATOM     24  H   UNL d   1      26.733 -16.625  -0.717  0.00  0.00     0.190 HD
BRANCH  22  25
ATOM     25  C   UNL d   1      24.737 -17.896   0.350  0.00  0.00     0.106 C 
ATOM     26  C   UNL d   1      24.406 -16.624  -0.421  0.00  0.00     0.118 C 
ATOM     27  C   UNL d   1      22.952 -16.848  -0.746  0.00  0.00     0.221 C 
ATOM     28  O   UNL d   1      22.178 -15.936  -0.894  0.00  0.00    -0.273 OA
ATOM     29  N   UNL d   1      22.761 -18.231  -0.858  0.00  0.00    -0.345 N 
ATOM     30  C   UNL d   1      23.967 -18.947  -0.462  0.00  0.00     0.141 C 
BRANCH  29  31
ATOM     31  C   UNL d   1      21.520 -18.923  -1.270  0.00  0.00     0.190 C 
BRANCH  31  32
ATOM     32  C   UNL d   1      20.744 -19.433  -0.105  0.00  0.00     0.070 A 
ATOM     33  C   UNL d   1      19.622 -20.235  -0.050  0.00  0.00     0.036 A 
ATOM     34  C   UNL d   1      19.172 -20.216   1.285  0.00  0.00     0.027 A 
ATOM     35  C   UNL d   1      20.097 -19.478   1.987  0.00  0.00     0.142 A 
ATOM     36  O   UNL d   1      21.067 -19.002   1.154  0.00  0.00    -0.325 OA
ENDBRANCH  31  32
ENDBRANCH  29  31
ENDBRANCH  22  25
ENDBRANCH  19  21
ENDBRANCH   1  19
TORSDOF 12
ENDMDL
MODEL 6
REMARK VINA RESULT:    -7.512      7.617     10.290
REMARK INTER + INTRA:         -14.121
REMARK INTER:                 -11.091
REMARK INTRA:                  -3.029
REMARK CONF_INDEPENDENT:        3.580
REMARK UNBOUND:                -3.029
REMARK  12 active torsions:
REMARK  status: ('A' for Active; 'I' for Inactive)
REMARK    1  A    between atoms: C_2  and  C_3 
REMARK    2  A    between atoms: C_3  and  C_4 
REMARK    3  A    between atoms: C_4  and  C_5 
REMARK    4  A    between atoms: C_5  and  O_6 
REMARK    5  A    between atoms: O_6  and  C_7 
REMARK    6  A    between atoms: C_12  and  C_13 
REMARK       I    between atoms: C_13  and  N_15 
REMARK    7  A    between atoms: N_15  and  C_16 
REMARK    8  A    between atoms: C_16  and  N_18 
REMARK    9  A    between atoms: N_18  and  N_19 
REMARK       I    between atoms: N_19  and  C_20 
REMARK   10  A    between atoms: C_22  and  C_20 
REMARK   11  A    between atoms: N_26  and  C_27 
REMARK   12  A    between atoms: C_27  and  C_28 
ROOT
ATOM      1  C   UNL d   1      26.887 -12.053  -4.829  0.00  0.00     0.193 C 
ATOM      2  S   UNL d   1      27.058 -10.557  -4.076  0.00  0.00    -0.039 SA
ENDROOT
BRANCH   1   3
ATOM      3  N   UNL d   1      27.802 -12.590  -5.788  0.00  0.00    -0.298 N 
ATOM      4  C   UNL d   1      28.131 -13.969  -5.993  0.00  0.00     0.260 C 
ATOM      5  O   UNL d   1      27.354 -14.875  -5.691  0.00  0.00    -0.267 OA
ATOM      6  H   UNL d   1      28.416 -11.940  -6.258  0.00  0.00     0.171 HD
BRANCH   4   7
ATOM      7  C   UNL d   1      29.435 -14.438  -6.642  0.00  0.00     0.065 A 
ATOM      8  C   UNL d   1      30.088 -13.478  -7.472  0.00  0.00     0.020 A 
ATOM      9  C   UNL d   1      31.319 -13.717  -8.106  0.00  0.00     0.001 A 
ATOM     10  C   UNL d   1      31.940 -14.942  -7.943  0.00  0.00     0.003 A 
ATOM     11  C   UNL d   1      31.285 -15.936  -7.212  0.00  0.00     0.038 A 
ATOM     12  C   UNL d   1      30.047 -15.694  -6.555  0.00  0.00     0.084 A 
BRANCH  12  13
ATOM     13  O   UNL d   1      29.642 -16.723  -5.756  0.00  0.00    -0.350 OA
BRANCH  13  14
ATOM     14  C   UNL d   1      30.640 -17.646  -5.344  0.00  0.00     0.175 C 
BRANCH  14  15
ATOM     15  C   UNL d   1      30.371 -17.909  -3.866  0.00  0.00     0.027 C 
BRANCH  15  16
ATOM     16  C   UNL d   1      30.299 -16.594  -3.114  0.00  0.00     0.002 C 
BRANCH  16  17
ATOM     17  C   UNL d   1      28.856 -16.207  -2.835  0.00  0.00    -0.004 C 
ATOM     18  C   UNL d   1      28.760 -14.705  -2.635  0.00  0.00     0.005 C 
ENDBRANCH  16  17
ENDBRANCH  15  16
ENDBRANCH  14  15
ENDBRANCH  13  14
ENDBRANCH  12  13
ENDBRANCH   4   7
ENDBRANCH   1   3
BRANCH   1  19
ATOM     19  N   UNL d   1      25.763 -12.861  -4.512  0.00  0.00    -0.273 N 
ATOM     20  H   UNL d   1      24.792 -12.577  -4.625  0.00  0.00     0.189 HD
BRANCH  19  21
ATOM     21  N   UNL d   1      25.927 -13.971  -3.550  0.00  0.00    -0.268 N 
ATOM     22  C   UNL d   1      24.827 -14.649  -3.009  0.00  0.00     0.242 C 
ATOM     23  O   UNL d   1      23.664 -14.281  -3.142  0.00  0.00    -0.271 OA
ATOM     24  H   UNL d   1      26.807 -14.474  -3.669  0.00  0.00     0.190 HD
BRANCH  22  25
ATOM     25  C   UNL d   1      25.191 -15.912  -2.236  0.00  0.00     0.106 C 
ATOM     26  C   UNL d   1      25.938 -15.710  -0.924  0.00  0.00     0.118 C 
ATOM     27  C   UNL d   1      25.835 -17.083  -0.313  0.00  0.00     0.221 C 
ATOM     28  O   UNL d   1      26.666 -17.515   0.446  0.00  0.00    -0.273 OA
ATOM     29  N   UNL d   1      24.639 -17.652  -0.772  0.00  0.00    -0.345 N 
ATOM     30  C   UNL d   1      24.025 -16.801  -1.784  0.00  0.00     0.141 C 
BRANCH  29  31
ATOM     31  C   UNL d   1      24.060 -18.948  -0.358  0.00  0.00     0.190 C 
BRANCH  31  32
ATOM     32  C   UNL d   1      22.572 -18.954  -0.441  0.00  0.00     0.070 A 
ATOM     33  C   UNL d   1      21.612 -18.909   0.551  0.00  0.00     0.036 A 
ATOM     34  C   UNL d   1      20.375 -19.175  -0.068  0.00  0.00     0.027 A 
ATOM     35  C   UNL d   1      20.637 -19.277  -1.414  0.00  0.00     0.142 A 
ATOM     36  O   UNL d   1      21.972 -19.135  -1.658  0.00  0.00    -0.325 OA
ENDBRANCH  31  32
ENDBRANCH  29  31
ENDBRANCH  22  25
ENDBRANCH  19  21
ENDBRANCH   1  19
TORSDOF 12
ENDMDL
MODEL 7
REMARK VINA RESULT:    -7.496      7.746     10.873
REMARK INTER + INTRA:         -14.144
REMARK INTER:                 -11.076
REMARK INTRA:                  -3.068
REMARK CONF_INDEPENDENT:        3.580
REMARK UNBOUND:                -3.068
REMARK  12 active torsions:
REMARK  status: ('A' for Active; 'I' for Inactive)
REMARK    1  A    between atoms: C_2  and  C_3 
REMARK    2  A    between atoms: C_3  and  C_4 
REMARK    3  A    between atoms: C_4  and  C_5 
REMARK    4  A    between atoms: C_5  and  O_6 
REMARK    5  A    between atoms: O_6  and  C_7 
REMARK    6  A    between atoms: C_12  and  C_13 
REMARK       I    between atoms: C_13  and  N_15 
REMARK    7  A    between atoms: N_15  and  C_16 
REMARK    8  A    between atoms: C_16  and  N_18 
REMARK    9  A    between atoms: N_18  and  N_19 
REMARK       I    between atoms: N_19  and  C_20 
REMARK   10  A    between atoms: C_22  and  C_20 
REMARK   11  A    between atoms: N_26  and  C_27 
REMARK   12  A    between atoms: C_27  and  C_28 
ROOT
ATOM      1  C   UNL d   1      26.769 -12.328  -5.080  0.00  0.00     0.193 C 
ATOM      2  S   UNL d   1      26.903 -10.753  -4.500  0.00  0.00    -0.039 SA
ENDROOT
BRANCH   1   3
ATOM      3  N   UNL d   1      27.717 -12.959  -5.944  0.00  0.00    -0.298 N 
ATOM      4  C   UNL d   1      28.105 -14.338  -5.944  0.00  0.00     0.260 C 
ATOM      5  O   UNL d   1      27.361 -15.222  -5.519  0.00  0.00    -0.267 OA
ATOM      6  H   UNL d   1      28.311 -12.359  -6.499  0.00  0.00     0.171 HD
BRANCH   4   7
ATOM      7  C   UNL d   1      29.435 -14.840  -6.509  0.00  0.00     0.065 A 
ATOM      8  C   UNL d   1      29.712 -16.223  -6.292  0.00  0.00     0.020 A 
ATOM      9  C   UNL d   1      30.860 -16.867  -6.783  0.00  0.00     0.001 A 
ATOM     10  C   UNL d   1      31.790 -16.139  -7.503  0.00  0.00     0.003 A 
ATOM     11  C   UNL d   1      31.595 -14.764  -7.657  0.00  0.00     0.038 A 
ATOM     12  C   UNL d   1      30.428 -14.112  -7.175  0.00  0.00     0.084 A 
BRANCH  12  13
ATOM     13  O   UNL d   1      30.333 -12.806  -7.560  0.00  0.00    -0.350 OA
BRANCH  13  14
ATOM     14  C   UNL d   1      29.712 -12.550  -8.811  0.00  0.00     0.175 C 
BRANCH  14  15
ATOM     15  C   UNL d   1      29.655 -11.031  -8.939  0.00  0.00     0.027 C 
BRANCH  15  16
ATOM     16  C   UNL d   1      28.968 -10.438  -7.724  0.00  0.00     0.002 C 
BRANCH  16  17
ATOM     17  C   UNL d   1      27.529 -10.065  -8.041  0.00  0.00    -0.004 C 
ATOM     18  C   UNL d   1      26.889 -11.162  -8.872  0.00  0.00     0.005 C 
ENDBRANCH  16  17
ENDBRANCH  15  16
ENDBRANCH  14  15
ENDBRANCH  13  14
ENDBRANCH  12  13
ENDBRANCH   4   7
ENDBRANCH   1   3
BRANCH   1  19
ATOM     19  N   UNL d   1      25.644 -13.108  -4.704  0.00  0.00    -0.273 N 
ATOM     20  H   UNL d   1      24.675 -12.807  -4.784  0.00  0.00     0.189 HD
BRANCH  19  21
ATOM     21  N   UNL d   1      25.825 -14.204  -3.730  0.00  0.00    -0.268 N 
ATOM     22  C   UNL d   1      24.739 -14.802  -3.079  0.00  0.00     0.242 C 
ATOM     23  O   UNL d   1      23.592 -14.367  -3.121  0.00  0.00    -0.271 OA
ATOM     24  H   UNL d   1      26.661 -14.762  -3.910  0.00  0.00     0.190 HD
BRANCH  22  25
ATOM     25  C   UNL d   1      25.095 -16.068  -2.305  0.00  0.00     0.106 C 
ATOM     26  C   UNL d   1      26.039 -15.895  -1.123  0.00  0.00     0.118 C 
ATOM     27  C   UNL d   1      25.900 -17.230  -0.438  0.00  0.00     0.221 C 
ATOM     28  O   UNL d   1      26.789 -17.714   0.215  0.00  0.00    -0.273 OA
ATOM     29  N   UNL d   1      24.604 -17.696  -0.697  0.00  0.00    -0.345 N 
ATOM     30  C   UNL d   1      23.929 -16.824  -1.651  0.00  0.00     0.141 C 
BRANCH  29  31
ATOM     31  C   UNL d   1      23.974 -18.914  -0.144  0.00  0.00     0.190 C 
BRANCH  31  32
ATOM     32  C   UNL d   1      22.507 -18.958  -0.400  0.00  0.00     0.070 A 
ATOM     33  C   UNL d   1      21.438 -18.945   0.474  0.00  0.00     0.036 A 
ATOM     34  C   UNL d   1      20.288 -19.239  -0.286  0.00  0.00     0.027 A 
ATOM     35  C   UNL d   1      20.708 -19.323  -1.594  0.00  0.00     0.142 A 
ATOM     36  O   UNL d   1      22.058 -19.145  -1.679  0.00  0.00    -0.325 OA
ENDBRANCH  31  32
ENDBRANCH  29  31
ENDBRANCH  22  25
ENDBRANCH  19  21
ENDBRANCH   1  19
TORSDOF 12
ENDMDL
MODEL 8
REMARK VINA RESULT:    -7.434      6.641     10.014
REMARK INTER + INTRA:         -14.128
REMARK INTER:                 -11.014
REMARK INTRA:                  -3.114
REMARK CONF_INDEPENDENT:        3.580
REMARK UNBOUND:                -3.114
REMARK  12 active torsions:
REMARK  status: ('A' for Active; 'I' for Inactive)
REMARK    1  A    between atoms: C_2  and  C_3 
REMARK    2  A    between atoms: C_3  and  C_4 
REMARK    3  A    between atoms: C_4  and  C_5 
REMARK    4  A    between atoms: C_5  and  O_6 
REMARK    5  A    between atoms: O_6  and  C_7 
REMARK    6  A    between atoms: C_12  and  C_13 
REMARK       I    between atoms: C_13  and  N_15 
REMARK    7  A    between atoms: N_15  and  C_16 
REMARK    8  A    between atoms: C_16  and  N_18 
REMARK    9  A    between atoms: N_18  and  N_19 
REMARK       I    between atoms: N_19  and  C_20 
REMARK   10  A    between atoms: C_22  and  C_20 
REMARK   11  A    between atoms: N_26  and  C_27 
REMARK   12  A    between atoms: C_27  and  C_28 
ROOT
ATOM      1  C   UNL d   1      26.731 -12.256  -5.641  0.00  0.00     0.193 C 
ATOM      2  S   UNL d   1      26.676 -10.705  -6.294  0.00  0.00    -0.039 SA
ENDROOT
BRANCH   1   3
ATOM      3  N   UNL d   1      27.816 -13.171  -5.813  0.00  0.00    -0.298 N 
ATOM      4  C   UNL d   1      27.760 -14.601  -5.754  0.00  0.00     0.260 C 
ATOM      5  O   UNL d   1      26.725 -15.222  -5.994  0.00  0.00    -0.267 OA
ATOM      6  H   UNL d   1      28.752 -12.789  -5.803  0.00  0.00     0.171 HD
BRANCH   4   7
ATOM      7  C   UNL d   1      28.973 -15.480  -5.442  0.00  0.00     0.065 A 
ATOM      8  C   UNL d   1      29.869 -15.700  -6.530  0.00  0.00     0.020 A 
ATOM      9  C   UNL d   1      31.058 -16.439  -6.413  0.00  0.00     0.001 A 
ATOM     10  C   UNL d   1      31.390 -17.002  -5.195  0.00  0.00     0.003 A 
ATOM     11  C   UNL d   1      30.491 -16.884  -4.131  0.00  0.00     0.038 A 
ATOM     12  C   UNL d   1      29.294 -16.125  -4.241  0.00  0.00     0.084 A 
BRANCH  12  13
ATOM     13  O   UNL d   1      28.626 -15.983  -3.059  0.00  0.00    -0.350 OA
BRANCH  13  14
ATOM     14  C   UNL d   1      29.091 -14.971  -2.177  0.00  0.00     0.175 C 
BRANCH  14  15
ATOM     15  C   UNL d   1      29.372 -15.676  -0.854  0.00  0.00     0.027 C 
BRANCH  15  16
ATOM     16  C   UNL d   1      30.866 -15.863  -0.677  0.00  0.00     0.002 C 
BRANCH  16  17
ATOM     17  C   UNL d   1      31.264 -17.310  -0.914  0.00  0.00    -0.004 C 
ATOM     18  C   UNL d   1      30.028 -18.190  -0.898  0.00  0.00     0.005 C 
ENDBRANCH  16  17
ENDBRANCH  15  16
ENDBRANCH  14  15
ENDBRANCH  13  14
ENDBRANCH  12  13
ENDBRANCH   4   7
ENDBRANCH   1   3
BRANCH   1  19
ATOM     19  N   UNL d   1      25.637 -12.716  -4.862  0.00  0.00    -0.273 N 
ATOM     20  H   UNL d   1      24.776 -12.197  -4.704  0.00  0.00     0.189 HD
BRANCH  19  21
ATOM     21  N   UNL d   1      25.873 -13.759  -3.841  0.00  0.00    -0.268 N 
ATOM     22  C   UNL d   1      24.817 -14.416  -3.198  0.00  0.00     0.242 C 
ATOM     23  O   UNL d   1      23.642 -14.075  -3.290  0.00  0.00    -0.271 OA
ATOM     24  H   UNL d   1      26.755 -14.255  -3.976  0.00  0.00     0.190 HD
BRANCH  22  25
ATOM     25  C   UNL d   1      25.245 -15.621  -2.366  0.00  0.00     0.106 C 
ATOM     26  C   UNL d   1      25.985 -15.319  -1.069  0.00  0.00     0.118 C 
ATOM     27  C   UNL d   1      25.952 -16.664  -0.392  0.00  0.00     0.221 C 
ATOM     28  O   UNL d   1      26.805 -17.016   0.382  0.00  0.00    -0.273 OA
ATOM     29  N   UNL d   1      24.785 -17.313  -0.817  0.00  0.00    -0.345 N 
ATOM     30  C   UNL d   1      24.126 -16.544  -1.865  0.00  0.00     0.141 C 
BRANCH  29  31
ATOM     31  C   UNL d   1      24.271 -18.614  -0.337  0.00  0.00     0.190 C 
BRANCH  31  32
ATOM     32  C   UNL d   1      22.784 -18.690  -0.394  0.00  0.00     0.070 A 
ATOM     33  C   UNL d   1      21.837 -18.583   0.605  0.00  0.00     0.036 A 
ATOM     34  C   UNL d   1      20.604 -18.963   0.039  0.00  0.00     0.027 A 
ATOM     35  C   UNL d   1      20.852 -19.191  -1.295  0.00  0.00     0.142 A 
ATOM     36  O   UNL d   1      22.176 -19.019  -1.575  0.00  0.00    -0.325 OA
ENDBRANCH  31  32
ENDBRANCH  29  31
ENDBRANCH  22  25
ENDBRANCH  19  21
ENDBRANCH   1  19
TORSDOF 12
ENDMDL
MODEL 9
REMARK VINA RESULT:    -7.418      7.580     10.078
REMARK INTER + INTRA:         -14.335
REMARK INTER:                 -10.997
REMARK INTRA:                  -3.338
REMARK CONF_INDEPENDENT:        3.580
REMARK UNBOUND:                -3.338
REMARK  12 active torsions:
REMARK  status: ('A' for Active; 'I' for Inactive)
REMARK    1  A    between atoms: C_2  and  C_3 
REMARK    2  A    between atoms: C_3  and  C_4 
REMARK    3  A    between atoms: C_4  and  C_5 
REMARK    4  A    between atoms: C_5  and  O_6 
REMARK    5  A    between atoms: O_6  and  C_7 
REMARK    6  A    between atoms: C_12  and  C_13 
REMARK       I    between atoms: C_13  and  N_15 
REMARK    7  A    between atoms: N_15  and  C_16 
REMARK    8  A    between atoms: C_16  and  N_18 
REMARK    9  A    between atoms: N_18  and  N_19 
REMARK       I    between atoms: N_19  and  C_20 
REMARK   10  A    between atoms: C_22  and  C_20 
REMARK   11  A    between atoms: N_26  and  C_27 
REMARK   12  A    between atoms: C_27  and  C_28 
ROOT
ATOM      1  C   UNL d   1      26.331 -12.751  -5.045  0.00  0.00     0.193 C 
ATOM      2  S   UNL d   1      26.134 -11.115  -4.699  0.00  0.00    -0.039 SA
ENDROOT
BRANCH   1   3
ATOM      3  N   UNL d   1      27.503 -13.322  -5.630  0.00  0.00    -0.298 N 
ATOM      4  C   UNL d   1      27.812 -14.714  -5.768  0.00  0.00     0.260 C 
ATOM      5  O   UNL d   1      26.933 -15.575  -5.812  0.00  0.00    -0.267 OA
ATOM      6  H   UNL d   1      28.280 -12.702  -5.813  0.00  0.00     0.171 HD
BRANCH   4   7
ATOM      7  C   UNL d   1      29.237 -15.251  -5.921  0.00  0.00     0.065 A 
ATOM      8  C   UNL d   1      30.042 -14.588  -6.894  0.00  0.00     0.020 A 
ATOM      9  C   UNL d   1      31.388 -14.913  -7.133  0.00  0.00     0.001 A 
ATOM     10  C   UNL d   1      31.978 -15.934  -6.410  0.00  0.00     0.003 A 
ATOM     11  C   UNL d   1      31.194 -16.664  -5.513  0.00  0.00     0.038 A 
ATOM     12  C   UNL d   1      29.836 -16.328  -5.257  0.00  0.00     0.084 A 
BRANCH  12  13
ATOM     13  O   UNL d   1      29.281 -17.042  -4.235  0.00  0.00    -0.350 OA
BRANCH  13  14
ATOM     14  C   UNL d   1      29.641 -16.659  -2.915  0.00  0.00     0.175 C 
BRANCH  14  15
ATOM     15  C   UNL d   1      28.565 -15.678  -2.464  0.00  0.00     0.027 C 
BRANCH  15  16
ATOM     16  C   UNL d   1      29.162 -14.292  -2.313  0.00  0.00     0.002 C 
BRANCH  16  17
ATOM     17  C   UNL d   1      28.075 -13.230  -2.304  0.00  0.00    -0.004 C 
ATOM     18  C   UNL d   1      27.214 -13.391  -1.064  0.00  0.00     0.005 C 
ENDBRANCH  16  17
ENDBRANCH  15  16
ENDBRANCH  14  15
ENDBRANCH  13  14
ENDBRANCH  12  13
ENDBRANCH   4   7
ENDBRANCH   1   3
BRANCH   1  19
ATOM     19  N   UNL d   1      25.274 -13.651  -4.747  0.00  0.00    -0.273 N 
ATOM     20  H   UNL d   1      24.285 -13.450  -4.878  0.00  0.00     0.189 HD
BRANCH  19  21
ATOM     21  N   UNL d   1      25.514 -14.743  -3.781  0.00  0.00    -0.268 N 
ATOM     22  C   UNL d   1      24.595 -15.051  -2.769  0.00  0.00     0.242 C 
ATOM     23  O   UNL d   1      23.626 -14.353  -2.491  0.00  0.00    -0.271 OA
ATOM     24  H   UNL d   1      26.098 -15.490  -4.161  0.00  0.00     0.190 HD
BRANCH  22  25
ATOM     25  C   UNL d   1      24.892 -16.353  -2.032  0.00  0.00     0.106 C 
ATOM     26  C   UNL d   1      25.710 -16.235  -0.752  0.00  0.00     0.118 C 
ATOM     27  C   UNL d   1      25.525 -17.606  -0.157  0.00  0.00     0.221 C 
ATOM     28  O   UNL d   1      26.352 -18.115   0.557  0.00  0.00    -0.273 OA
ATOM     29  N   UNL d   1      24.269 -18.070  -0.569  0.00  0.00    -0.345 N 
ATOM     30  C   UNL d   1      23.680 -17.156  -1.540  0.00  0.00     0.141 C 
BRANCH  29  31
ATOM     31  C   UNL d   1      23.607 -19.324  -0.148  0.00  0.00     0.190 C 
BRANCH  31  32
ATOM     32  C   UNL d   1      22.129 -19.269  -0.327  0.00  0.00     0.070 A 
ATOM     33  C   UNL d   1      21.107 -19.275   0.602  0.00  0.00     0.036 A 
ATOM     34  C   UNL d   1      19.906 -19.444  -0.115  0.00  0.00     0.027 A 
ATOM     35  C   UNL d   1      20.254 -19.439  -1.446  0.00  0.00     0.142 A 
ATOM     36  O   UNL d   1      21.606 -19.324  -1.590  0.00  0.00    -0.325 OA
ENDBRANCH  31  32
ENDBRANCH  29  31
ENDBRANCH  22  25
ENDBRANCH  19  21
ENDBRANCH   1  19
TORSDOF 12
ENDMDL
