MODEL 1
REMARK VINA RESULT:    -9.300      0.000      0.000
REMARK INTER + INTRA:         -11.996
REMARK INTER:                 -11.090
REMARK INTRA:                  -0.906
REMARK CONF_INDEPENDENT:        1.790
REMARK UNBOUND:                -0.906
REMARK  6 active torsions:
REMARK  status: ('A' for Active; 'I' for Inactive)
REMARK    1  A    between atoms: C_5  and  N_6 
REMARK       I    between atoms: N_6  and  C_7 
REMARK    2  A    between atoms: C_7  and  C_9 
REMARK    3  A    between atoms: C_13  and  N_14 
REMARK       I    between atoms: N_14  and  C_15 
REMARK       I    between atoms: C_15  and  N_17 
REMARK    4  A    between atoms: N_17  and  O_18 
REMARK    5  A    between atoms: O_18  and  C_19 
REMARK    6  A    between atoms: C_19  and  C_20 
ROOT
ATOM      1  C   UNL d   1      27.074 -16.400  -1.644  0.00  0.00     0.050 C 
ATOM      2  C   UNL d   1      25.683 -16.743  -1.239  0.00  0.00    -0.035 A 
ATOM      3  C   UNL d   1      25.572 -17.894  -0.437  0.00  0.00     0.011 A 
ATOM      4  C   UNL d   1      24.340 -18.356   0.009  0.00  0.00     0.030 A 
ATOM      5  C   UNL d   1      23.183 -17.665  -0.347  0.00  0.00     0.036 A 
ATOM      6  C   UNL d   1      23.307 -16.496  -1.142  0.00  0.00     0.059 A 
ATOM      7  C   UNL d   1      24.545 -16.006  -1.615  0.00  0.00     0.044 A 
ENDROOT
BRANCH   7   8
ATOM      8  N   UNL d   1      24.519 -14.807  -2.429  0.00  0.00    -0.307 N 
ATOM      9  C   UNL d   1      25.203 -14.543  -3.601  0.00  0.00     0.344 C 
ATOM     10  O   UNL d   1      25.965 -15.295  -4.205  0.00  0.00    -0.245 OA
ATOM     11  N   UNL d   1      25.049 -13.297  -4.160  0.00  0.00    -0.216 N 
ATOM     12  H   UNL d   1      24.400 -12.564  -3.932  0.00  0.00     0.199 HD
ATOM     13  H   UNL d   1      23.907 -14.074  -2.095  0.00  0.00     0.170 HD
BRANCH  11  14
ATOM     14  O   UNL d   1      25.834 -13.249  -5.359  0.00  0.00    -0.272 OA
BRANCH  14  15
ATOM     15  C   UNL d   1      26.753 -12.186  -5.392  0.00  0.00     0.240 C 
BRANCH  15  16
ATOM     16  C   UNL d   1      26.076 -10.865  -5.078  0.00  0.00    -0.032 A 
ATOM     17  C   UNL d   1      25.530 -10.136  -6.146  0.00  0.00     0.009 A 
ATOM     18  C   UNL d   1      24.906  -8.906  -5.931  0.00  0.00     0.001 A 
ATOM     19  C   UNL d   1      24.816  -8.382  -4.644  0.00  0.00     0.000 A 
ATOM     20  C   UNL d   1      25.345  -9.094  -3.569  0.00  0.00     0.001 A 
ATOM     21  C   UNL d   1      25.972 -10.327  -3.783  0.00  0.00     0.009 A 
ENDBRANCH  15  16
ENDBRANCH  14  15
ENDBRANCH  11  14
ENDBRANCH   7   8
BRANCH   5  22
ATOM     22  N   UNL d   1      21.934 -18.180   0.103  0.00  0.00    -0.327 N 
ATOM     23  C   UNL d   1      21.083 -18.971  -0.648  0.00  0.00     0.226 C 
ATOM     24  O   UNL d   1      21.241 -19.325  -1.806  0.00  0.00    -0.273 OA
ATOM     25  H   UNL d   1      21.655 -17.956   1.053  0.00  0.00     0.169 HD
BRANCH  23  26
ATOM     26  C   UNL d   1      19.829 -19.409   0.025  0.00  0.00     0.078 A 
ATOM     27  C   UNL d   1      19.827 -20.820   0.600  0.00  0.00     0.015 A 
ATOM     28  C   UNL d   1      19.713 -19.635   1.510  0.00  0.00     0.015 A 
ENDBRANCH  23  26
ENDBRANCH   5  22
TORSDOF 6
ENDMDL
MODEL 2
REMARK VINA RESULT:    -9.135      4.009      6.400
REMARK INTER + INTRA:         -11.759
REMARK INTER:                 -10.924
REMARK INTRA:                  -0.834
REMARK CONF_INDEPENDENT:        1.790
REMARK UNBOUND:                -0.834
REMARK  6 active torsions:
REMARK  status: ('A' for Active; 'I' for Inactive)
REMARK    1  A    between atoms: C_5  and  N_6 
REMARK       I    between atoms: N_6  and  C_7 
REMARK    2  A    between atoms: C_7  and  C_9 
REMARK    3  A    between atoms: C_13  and  N_14 
REMARK       I    between atoms: N_14  and  C_15 
REMARK       I    between atoms: C_15  and  N_17 
REMARK    4  A    between atoms: N_17  and  O_18 
REMARK    5  A    between atoms: O_18  and  C_19 
REMARK    6  A    between atoms: C_19  and  C_20 
ROOT
ATOM      1  C   UNL d   1      26.483 -14.991  -1.601  0.00  0.00     0.050 C 
ATOM      2  C   UNL d   1      25.620 -16.134  -1.193  0.00  0.00    -0.035 A 
ATOM      3  C   UNL d   1      24.249 -15.957  -1.456  0.00  0.00     0.011 A 
ATOM      4  C   UNL d   1      23.311 -16.924  -1.118  0.00  0.00     0.030 A 
ATOM      5  C   UNL d   1      23.735 -18.099  -0.503  0.00  0.00     0.036 A 
ATOM      6  C   UNL d   1      25.120 -18.276  -0.257  0.00  0.00     0.059 A 
ATOM      7  C   UNL d   1      26.097 -17.308  -0.582  0.00  0.00     0.044 A 
ENDROOT
BRANCH   7   8
ATOM      8  N   UNL d   1      27.476 -17.619  -0.261  0.00  0.00    -0.307 N 
ATOM      9  C   UNL d   1      28.606 -17.433  -1.034  0.00  0.00     0.344 C 
ATOM     10  O   UNL d   1      28.669 -16.940  -2.158  0.00  0.00    -0.245 OA
ATOM     11  N   UNL d   1      29.806 -17.864  -0.519  0.00  0.00    -0.216 N 
ATOM     12  H   UNL d   1      30.034 -18.179   0.408  0.00  0.00     0.199 HD
ATOM     13  H   UNL d   1      27.624 -18.014   0.659  0.00  0.00     0.170 HD
BRANCH  11  14
ATOM     14  O   UNL d   1      30.831 -17.566  -1.477  0.00  0.00    -0.272 OA
BRANCH  14  15
ATOM     15  C   UNL d   1      31.436 -18.707  -2.033  0.00  0.00     0.240 C 
BRANCH  15  16
ATOM     16  C   UNL d   1      31.074 -18.860  -3.498  0.00  0.00    -0.032 A 
ATOM     17  C   UNL d   1      31.091 -20.151  -4.047  0.00  0.00     0.009 A 
ATOM     18  C   UNL d   1      30.784 -20.364  -5.393  0.00  0.00     0.001 A 
ATOM     19  C   UNL d   1      30.453 -19.288  -6.213  0.00  0.00     0.000 A 
ATOM     20  C   UNL d   1      30.422 -17.999  -5.685  0.00  0.00     0.001 A 
ATOM     21  C   UNL d   1      30.732 -17.785  -4.336  0.00  0.00     0.009 A 
ENDBRANCH  15  16
ENDBRANCH  14  15
ENDBRANCH  11  14
ENDBRANCH   7   8
BRANCH   5  22
ATOM     22  N   UNL d   1      22.745 -19.059  -0.145  0.00  0.00    -0.327 N 
ATOM     23  C   UNL d   1      21.390 -18.937  -0.400  0.00  0.00     0.226 C 
ATOM     24  O   UNL d   1      20.826 -17.994  -0.932  0.00  0.00    -0.273 OA
ATOM     25  H   UNL d   1      23.063 -19.901   0.323  0.00  0.00     0.169 HD
BRANCH  23  26
ATOM     26  C   UNL d   1      20.533 -20.067   0.054  0.00  0.00     0.078 A 
ATOM     27  C   UNL d   1      19.720 -19.833   1.321  0.00  0.00     0.015 A 
ATOM     28  C   UNL d   1      19.028 -20.045   0.008  0.00  0.00     0.015 A 
ENDBRANCH  23  26
ENDBRANCH   5  22
TORSDOF 6
ENDMDL
MODEL 3
REMARK VINA RESULT:    -9.103      1.918      3.469
REMARK INTER + INTRA:         -12.103
REMARK INTER:                 -10.892
REMARK INTRA:                  -1.211
REMARK CONF_INDEPENDENT:        1.790
REMARK UNBOUND:                -1.211
REMARK  6 active torsions:
REMARK  status: ('A' for Active; 'I' for Inactive)
REMARK    1  A    between atoms: C_5  and  N_6 
REMARK       I    between atoms: N_6  and  C_7 
REMARK    2  A    between atoms: C_7  and  C_9 
REMARK    3  A    between atoms: C_13  and  N_14 
REMARK       I    between atoms: N_14  and  C_15 
REMARK       I    between atoms: C_15  and  N_17 
REMARK    4  A    between atoms: N_17  and  O_18 
REMARK    5  A    between atoms: O_18  and  C_19 
REMARK    6  A    between atoms: C_19  and  C_20 
ROOT
ATOM      1  C   UNL d   1      27.004 -16.537  -1.615  0.00  0.00     0.050 C 
ATOM      2  C   UNL d   1      25.600 -16.845  -1.229  0.00  0.00    -0.035 A 
ATOM      3  C   UNL d   1      25.446 -18.006  -0.448  0.00  0.00     0.011 A 
ATOM      4  C   UNL d   1      24.197 -18.438  -0.022  0.00  0.00     0.030 A 
ATOM      5  C   UNL d   1      23.065 -17.708  -0.376  0.00  0.00     0.036 A 
ATOM      6  C   UNL d   1      23.231 -16.530  -1.150  0.00  0.00     0.059 A 
ATOM      7  C   UNL d   1      24.487 -16.069  -1.603  0.00  0.00     0.044 A 
ENDROOT
BRANCH   7   8
ATOM      8  N   UNL d   1      24.504 -14.856  -2.397  0.00  0.00    -0.307 N 
ATOM      9  C   UNL d   1      25.155 -14.615  -3.592  0.00  0.00     0.344 C 
ATOM     10  O   UNL d   1      25.842 -15.402  -4.240  0.00  0.00    -0.245 OA
ATOM     11  N   UNL d   1      25.058 -13.352  -4.125  0.00  0.00    -0.216 N 
ATOM     12  H   UNL d   1      24.467 -12.583  -3.858  0.00  0.00     0.199 HD
ATOM     13  H   UNL d   1      23.955 -14.091  -2.026  0.00  0.00     0.170 HD
BRANCH  11  14
ATOM     14  O   UNL d   1      25.794 -13.332  -5.355  0.00  0.00    -0.272 OA
BRANCH  14  15
ATOM     15  C   UNL d   1      27.101 -12.830  -5.226  0.00  0.00     0.240 C 
BRANCH  15  16
ATOM     16  C   UNL d   1      28.128 -13.945  -5.314  0.00  0.00    -0.032 A 
ATOM     17  C   UNL d   1      28.728 -14.380  -4.122  0.00  0.00     0.009 A 
ATOM     18  C   UNL d   1      29.691 -15.390  -4.131  0.00  0.00     0.001 A 
ATOM     19  C   UNL d   1      30.072 -15.984  -5.332  0.00  0.00     0.000 A 
ATOM     20  C   UNL d   1      29.481 -15.572  -6.525  0.00  0.00     0.001 A 
ATOM     21  C   UNL d   1      28.516 -14.557  -6.518  0.00  0.00     0.009 A 
ENDBRANCH  15  16
ENDBRANCH  14  15
ENDBRANCH  11  14
ENDBRANCH   7   8
BRANCH   5  22
ATOM     22  N   UNL d   1      21.797 -18.193   0.053  0.00  0.00    -0.327 N 
ATOM     23  C   UNL d   1      20.940 -18.966  -0.712  0.00  0.00     0.226 C 
ATOM     24  O   UNL d   1      21.110 -19.325  -1.867  0.00  0.00    -0.273 OA
ATOM     25  H   UNL d   1      21.507 -17.962   0.998  0.00  0.00     0.169 HD
BRANCH  23  26
ATOM     26  C   UNL d   1      19.665 -19.374  -0.059  0.00  0.00     0.078 A 
ATOM     27  C   UNL d   1      19.556 -20.835   0.356  0.00  0.00     0.015 A 
ATOM     28  C   UNL d   1      19.554 -19.753   1.394  0.00  0.00     0.015 A 
ENDBRANCH  23  26
ENDBRANCH   5  22
TORSDOF 6
ENDMDL
MODEL 4
REMARK VINA RESULT:    -8.942      3.619      9.117
REMARK INTER + INTRA:         -11.452
REMARK INTER:                 -10.732
REMARK INTRA:                  -0.720
REMARK CONF_INDEPENDENT:        1.790
REMARK UNBOUND:                -0.720
REMARK  6 active torsions:
REMARK  status: ('A' for Active; 'I' for Inactive)
REMARK    1  A    between atoms: C_5  and  N_6 
REMARK       I    between atoms: N_6  and  C_7 
REMARK    2  A    between atoms: C_7  and  C_9 
REMARK    3  A    between atoms: C_13  and  N_14 
REMARK       I    between atoms: N_14  and  C_15 
REMARK       I    between atoms: C_15  and  N_17 
REMARK    4  A    between atoms: N_17  and  O_18 
REMARK    5  A    between atoms: O_18  and  C_19 
REMARK    6  A    between atoms: C_19  and  C_20 
ROOT
ATOM      1  C   UNL d   1      25.488 -14.672  -3.222  0.00  0.00     0.050 C 
ATOM      2  C   UNL d   1      26.086 -14.851  -1.870  0.00  0.00    -0.035 A 
ATOM      3  C   UNL d   1      27.031 -13.872  -1.511  0.00  0.00     0.011 A 
ATOM      4  C   UNL d   1      27.691 -13.909  -0.290  0.00  0.00     0.030 A 
ATOM      5  C   UNL d   1      27.414 -14.941   0.604  0.00  0.00     0.036 A 
ATOM      6  C   UNL d   1      26.448 -15.914   0.241  0.00  0.00     0.059 A 
ATOM      7  C   UNL d   1      25.765 -15.906  -0.996  0.00  0.00     0.044 A 
ENDROOT
BRANCH   7   8
ATOM      8  N   UNL d   1      24.813 -16.973  -1.238  0.00  0.00    -0.307 N 
ATOM      9  C   UNL d   1      23.451 -16.985  -1.002  0.00  0.00     0.344 C 
ATOM     10  O   UNL d   1      22.764 -16.070  -0.553  0.00  0.00    -0.245 OA
ATOM     11  N   UNL d   1      22.770 -18.149  -1.270  0.00  0.00    -0.216 N 
ATOM     12  H   UNL d   1      23.075 -18.978  -1.748  0.00  0.00     0.199 HD
ATOM     13  H   UNL d   1      25.203 -17.813  -1.644  0.00  0.00     0.170 HD
BRANCH  11  14
ATOM     14  O   UNL d   1      21.387 -17.933  -0.962  0.00  0.00    -0.272 OA
BRANCH  14  15
ATOM     15  C   UNL d   1      20.560 -19.028  -1.270  0.00  0.00     0.240 C 
BRANCH  15  16
ATOM     16  C   UNL d   1      19.976 -19.644  -0.012  0.00  0.00    -0.032 A 
ATOM     17  C   UNL d   1      18.834 -20.448  -0.144  0.00  0.00     0.009 A 
ATOM     18  C   UNL d   1      18.234 -21.033   0.973  0.00  0.00     0.001 A 
ATOM     19  C   UNL d   1      18.767 -20.825   2.243  0.00  0.00     0.000 A 
ATOM     20  C   UNL d   1      19.906 -20.036   2.394  0.00  0.00     0.001 A 
ATOM     21  C   UNL d   1      20.506 -19.447   1.275  0.00  0.00     0.009 A 
ENDBRANCH  15  16
ENDBRANCH  14  15
ENDBRANCH  11  14
ENDBRANCH   7   8
BRANCH   5  22
ATOM     22  N   UNL d   1      28.128 -14.965   1.837  0.00  0.00    -0.327 N 
ATOM     23  C   UNL d   1      27.846 -14.171   2.935  0.00  0.00     0.226 C 
ATOM     24  O   UNL d   1      26.980 -13.315   3.018  0.00  0.00    -0.273 OA
ATOM     25  H   UNL d   1      28.895 -15.625   1.915  0.00  0.00     0.169 HD
BRANCH  23  26
ATOM     26  C   UNL d   1      28.716 -14.369   4.127  0.00  0.00     0.078 A 
ATOM     27  C   UNL d   1      28.254 -13.705   5.418  0.00  0.00     0.015 A 
ATOM     28  C   UNL d   1      28.322 -15.199   5.321  0.00  0.00     0.015 A 
ENDBRANCH  23  26
ENDBRANCH   5  22
TORSDOF 6
ENDMDL
MODEL 5
REMARK VINA RESULT:    -8.824      1.558      2.641
REMARK INTER + INTRA:         -11.376
REMARK INTER:                 -10.614
REMARK INTRA:                  -0.762
REMARK CONF_INDEPENDENT:        1.790
REMARK UNBOUND:                -0.762
REMARK  6 active torsions:
REMARK  status: ('A' for Active; 'I' for Inactive)
REMARK    1  A    between atoms: C_5  and  N_6 
REMARK       I    between atoms: N_6  and  C_7 
REMARK    2  A    between atoms: C_7  and  C_9 
REMARK    3  A    between atoms: C_13  and  N_14 
REMARK       I    between atoms: N_14  and  C_15 
REMARK       I    between atoms: C_15  and  N_17 
REMARK    4  A    between atoms: N_17  and  O_18 
REMARK    5  A    between atoms: O_18  and  C_19 
REMARK    6  A    between atoms: C_19  and  C_20 
ROOT
ATOM      1  C   UNL d   1      26.955 -16.615  -1.638  0.00  0.00     0.050 C 
ATOM      2  C   UNL d   1      25.561 -16.903  -1.201  0.00  0.00    -0.035 A 
ATOM      3  C   UNL d   1      25.421 -18.056  -0.407  0.00  0.00     0.011 A 
ATOM      4  C   UNL d   1      24.182 -18.470   0.066  0.00  0.00     0.030 A 
ATOM      5  C   UNL d   1      23.048 -17.727  -0.254  0.00  0.00     0.036 A 
ATOM      6  C   UNL d   1      23.201 -16.557  -1.041  0.00  0.00     0.059 A 
ATOM      7  C   UNL d   1      24.446 -16.115  -1.541  0.00  0.00     0.044 A 
ENDROOT
BRANCH   7   8
ATOM      8  N   UNL d   1      24.451 -14.907  -2.344  0.00  0.00    -0.307 N 
ATOM      9  C   UNL d   1      25.170 -14.636  -3.492  0.00  0.00     0.344 C 
ATOM     10  O   UNL d   1      25.945 -15.386  -4.081  0.00  0.00    -0.245 OA
ATOM     11  N   UNL d   1      25.040 -13.383  -4.043  0.00  0.00    -0.216 N 
ATOM     12  H   UNL d   1      24.389 -12.648  -3.826  0.00  0.00     0.199 HD
ATOM     13  H   UNL d   1      23.834 -14.174  -2.020  0.00  0.00     0.170 HD
BRANCH  11  14
ATOM     14  O   UNL d   1      25.860 -13.328  -5.217  0.00  0.00    -0.272 OA
BRANCH  14  15
ATOM     15  C   UNL d   1      26.606 -12.142  -5.333  0.00  0.00     0.240 C 
BRANCH  15  16
ATOM     16  C   UNL d   1      27.452 -12.147  -6.593  0.00  0.00    -0.032 A 
ATOM     17  C   UNL d   1      28.495 -13.081  -6.679  0.00  0.00     0.009 A 
ATOM     18  C   UNL d   1      29.323 -13.131  -7.802  0.00  0.00     0.001 A 
ATOM     19  C   UNL d   1      29.121 -12.248  -8.860  0.00  0.00     0.000 A 
ATOM     20  C   UNL d   1      28.085 -11.318  -8.797  0.00  0.00     0.001 A 
ATOM     21  C   UNL d   1      27.255 -11.266  -7.670  0.00  0.00     0.009 A 
ENDBRANCH  15  16
ENDBRANCH  14  15
ENDBRANCH  11  14
ENDBRANCH   7   8
BRANCH   5  22
ATOM     22  N   UNL d   1      21.789 -18.194   0.223  0.00  0.00    -0.327 N 
ATOM     23  C   UNL d   1      20.896 -18.959  -0.507  0.00  0.00     0.226 C 
ATOM     24  O   UNL d   1      21.020 -19.326  -1.665  0.00  0.00    -0.273 OA
ATOM     25  H   UNL d   1      21.537 -17.954   1.176  0.00  0.00     0.169 HD
BRANCH  23  26
ATOM     26  C   UNL d   1      19.640 -19.346   0.193  0.00  0.00     0.078 A 
ATOM     27  C   UNL d   1      19.324 -20.836   0.239  0.00  0.00     0.015 A 
ATOM     28  C   UNL d   1      19.608 -20.085   1.505  0.00  0.00     0.015 A 
ENDBRANCH  23  26
ENDBRANCH   5  22
TORSDOF 6
ENDMDL
MODEL 6
REMARK VINA RESULT:    -8.705      1.096      1.739
REMARK INTER + INTRA:         -11.508
REMARK INTER:                 -10.495
REMARK INTRA:                  -1.012
REMARK CONF_INDEPENDENT:        1.790
REMARK UNBOUND:                -1.012
REMARK  6 active torsions:
REMARK  status: ('A' for Active; 'I' for Inactive)
REMARK    1  A    between atoms: C_5  and  N_6 
REMARK       I    between atoms: N_6  and  C_7 
REMARK    2  A    between atoms: C_7  and  C_9 
REMARK    3  A    between atoms: C_13  and  N_14 
REMARK       I    between atoms: N_14  and  C_15 
REMARK       I    between atoms: C_15  and  N_17 
REMARK    4  A    between atoms: N_17  and  O_18 
REMARK    5  A    between atoms: O_18  and  C_19 
REMARK    6  A    between atoms: C_19  and  C_20 
ROOT
ATOM      1  C   UNL d   1      27.085 -15.771  -0.880  0.00  0.00     0.050 C 
ATOM      2  C   UNL d   1      25.826 -16.560  -0.778  0.00  0.00    -0.035 A 
ATOM      3  C   UNL d   1      25.911 -17.698   0.046  0.00  0.00     0.011 A 
ATOM      4  C   UNL d   1      24.828 -18.547   0.230  0.00  0.00     0.030 A 
ATOM      5  C   UNL d   1      23.625 -18.269  -0.417  0.00  0.00     0.036 A 
ATOM      6  C   UNL d   1      23.544 -17.111  -1.232  0.00  0.00     0.059 A 
ATOM      7  C   UNL d   1      24.630 -16.232  -1.443  0.00  0.00     0.044 A 
ENDROOT
BRANCH   7   8
ATOM      8  N   UNL d   1      24.406 -15.093  -2.313  0.00  0.00    -0.307 N 
ATOM      9  C   UNL d   1      25.178 -14.649  -3.370  0.00  0.00     0.344 C 
ATOM     10  O   UNL d   1      26.213 -15.152  -3.802  0.00  0.00    -0.245 OA
ATOM     11  N   UNL d   1      24.776 -13.501  -4.011  0.00  0.00    -0.216 N 
ATOM     12  H   UNL d   1      23.918 -12.984  -3.930  0.00  0.00     0.199 HD
ATOM     13  H   UNL d   1      23.565 -14.565  -2.121  0.00  0.00     0.170 HD
BRANCH  11  14
ATOM     14  O   UNL d   1      25.709 -13.234  -5.067  0.00  0.00    -0.272 OA
BRANCH  14  15
ATOM     15  C   UNL d   1      25.904 -11.865  -5.318  0.00  0.00     0.240 C 
BRANCH  15  16
ATOM     16  C   UNL d   1      26.282 -11.123  -4.050  0.00  0.00    -0.032 A 
ATOM     17  C   UNL d   1      27.057 -11.802  -3.098  0.00  0.00     0.009 A 
ATOM     18  C   UNL d   1      27.428 -11.185  -1.901  0.00  0.00     0.001 A 
ATOM     19  C   UNL d   1      27.030  -9.877  -1.636  0.00  0.00     0.000 A 
ATOM     20  C   UNL d   1      26.267  -9.182  -2.572  0.00  0.00     0.001 A 
ATOM     21  C   UNL d   1      25.893  -9.801  -3.772  0.00  0.00     0.009 A 
ENDBRANCH  15  16
ENDBRANCH  14  15
ENDBRANCH  11  14
ENDBRANCH   7   8
BRANCH   5  22
ATOM     22  N   UNL d   1      22.542 -19.174  -0.229  0.00  0.00    -0.327 N 
ATOM     23  C   UNL d   1      21.238 -18.950  -0.636  0.00  0.00     0.226 C 
ATOM     24  O   UNL d   1      20.803 -17.949  -1.183  0.00  0.00    -0.273 OA
ATOM     25  H   UNL d   1      22.748 -20.056   0.230  0.00  0.00     0.169 HD
BRANCH  23  26
ATOM     26  C   UNL d   1      20.265 -20.039  -0.347  0.00  0.00     0.078 A 
ATOM     27  C   UNL d   1      19.619 -20.019   1.033  0.00  0.00     0.015 A 
ATOM     28  C   UNL d   1      18.783 -19.816  -0.194  0.00  0.00     0.015 A 
ENDBRANCH  23  26
ENDBRANCH   5  22
TORSDOF 6
ENDMDL
MODEL 7
REMARK VINA RESULT:    -8.491      5.778      7.658
REMARK INTER + INTRA:         -11.082
REMARK INTER:                 -10.281
REMARK INTRA:                  -0.801
REMARK CONF_INDEPENDENT:        1.790
REMARK UNBOUND:                -0.801
REMARK  6 active torsions:
REMARK  status: ('A' for Active; 'I' for Inactive)
REMARK    1  A    between atoms: C_5  and  N_6 
REMARK       I    between atoms: N_6  and  C_7 
REMARK    2  A    between atoms: C_7  and  C_9 
REMARK    3  A    between atoms: C_13  and  N_14 
REMARK       I    between atoms: N_14  and  C_15 
REMARK       I    between atoms: C_15  and  N_17 
REMARK    4  A    between atoms: N_17  and  O_18 
REMARK    5  A    between atoms: O_18  and  C_19 
REMARK    6  A    between atoms: C_19  and  C_20 
ROOT
ATOM      1  C   UNL d   1      27.583 -14.410  -1.647  0.00  0.00     0.050 C 
ATOM      2  C   UNL d   1      26.631 -15.486  -1.257  0.00  0.00    -0.035 A 
ATOM      3  C   UNL d   1      25.674 -15.808  -2.239  0.00  0.00     0.011 A 
ATOM      4  C   UNL d   1      24.705 -16.778  -2.022  0.00  0.00     0.030 A 
ATOM      5  C   UNL d   1      24.675 -17.452  -0.803  0.00  0.00     0.036 A 
ATOM      6  C   UNL d   1      25.654 -17.134   0.174  0.00  0.00     0.059 A 
ATOM      7  C   UNL d   1      26.648 -16.148  -0.016  0.00  0.00     0.044 A 
ENDROOT
BRANCH   7   8
ATOM      8  N   UNL d   1      27.575 -15.918   1.075  0.00  0.00    -0.307 N 
ATOM      9  C   UNL d   1      27.665 -14.827   1.918  0.00  0.00     0.344 C 
ATOM     10  O   UNL d   1      26.951 -13.827   1.922  0.00  0.00    -0.245 OA
ATOM     11  N   UNL d   1      28.676 -14.825   2.849  0.00  0.00    -0.216 N 
ATOM     12  H   UNL d   1      29.301 -15.563   3.124  0.00  0.00     0.199 HD
ATOM     13  H   UNL d   1      28.234 -16.668   1.243  0.00  0.00     0.170 HD
BRANCH  11  14
ATOM     14  O   UNL d   1      28.575 -13.614   3.610  0.00  0.00    -0.272 OA
BRANCH  14  15
ATOM     15  C   UNL d   1      27.648 -13.682   4.664  0.00  0.00     0.240 C 
BRANCH  15  16
ATOM     16  C   UNL d   1      28.323 -13.453   6.004  0.00  0.00    -0.032 A 
ATOM     17  C   UNL d   1      27.966 -12.308   6.731  0.00  0.00     0.009 A 
ATOM     18  C   UNL d   1      28.559 -12.027   7.964  0.00  0.00     0.001 A 
ATOM     19  C   UNL d   1      29.518 -12.887   8.492  0.00  0.00     0.000 A 
ATOM     20  C   UNL d   1      29.880 -14.035   7.789  0.00  0.00     0.001 A 
ATOM     21  C   UNL d   1      29.287 -14.317   6.552  0.00  0.00     0.009 A 
ENDBRANCH  15  16
ENDBRANCH  14  15
ENDBRANCH  11  14
ENDBRANCH   7   8
BRANCH   5  22
ATOM     22  N   UNL d   1      23.652 -18.422  -0.602  0.00  0.00    -0.327 N 
ATOM     23  C   UNL d   1      22.293 -18.172  -0.679  0.00  0.00     0.226 C 
ATOM     24  O   UNL d   1      21.756 -17.097  -0.894  0.00  0.00    -0.273 OA
ATOM     25  H   UNL d   1      23.946 -19.372  -0.397  0.00  0.00     0.169 HD
BRANCH  23  26
ATOM     26  C   UNL d   1      21.397 -19.338  -0.443  0.00  0.00     0.078 A 
ATOM     27  C   UNL d   1      20.610 -19.333   0.862  0.00  0.00     0.015 A 
ATOM     28  C   UNL d   1      19.894 -19.253  -0.452  0.00  0.00     0.015 A 
ENDBRANCH  23  26
ENDBRANCH   5  22
TORSDOF 6
ENDMDL
MODEL 8
REMARK VINA RESULT:    -8.343      1.735      9.181
REMARK INTER + INTRA:         -11.004
REMARK INTER:                 -10.133
REMARK INTRA:                  -0.871
REMARK CONF_INDEPENDENT:        1.790
REMARK UNBOUND:                -0.871
REMARK  6 active torsions:
REMARK  status: ('A' for Active; 'I' for Inactive)
REMARK    1  A    between atoms: C_5  and  N_6 
REMARK       I    between atoms: N_6  and  C_7 
REMARK    2  A    between atoms: C_7  and  C_9 
REMARK    3  A    between atoms: C_13  and  N_14 
REMARK       I    between atoms: N_14  and  C_15 
REMARK       I    between atoms: C_15  and  N_17 
REMARK    4  A    between atoms: N_17  and  O_18 
REMARK    5  A    between atoms: O_18  and  C_19 
REMARK    6  A    between atoms: C_19  and  C_20 
ROOT
ATOM      1  C   UNL d   1      26.538 -18.269   0.834  0.00  0.00     0.050 C 
ATOM      2  C   UNL d   1      26.457 -17.116  -0.104  0.00  0.00    -0.035 A 
ATOM      3  C   UNL d   1      27.472 -16.155   0.058  0.00  0.00     0.011 A 
ATOM      4  C   UNL d   1      27.526 -15.011  -0.729  0.00  0.00     0.030 A 
ATOM      5  C   UNL d   1      26.551 -14.807  -1.703  0.00  0.00     0.036 A 
ATOM      6  C   UNL d   1      25.542 -15.790  -1.871  0.00  0.00     0.059 A 
ATOM      7  C   UNL d   1      25.457 -16.959  -1.082  0.00  0.00     0.044 A 
ENDROOT
BRANCH   7   8
ATOM      8  N   UNL d   1      24.363 -17.870  -1.357  0.00  0.00    -0.307 N 
ATOM      9  C   UNL d   1      23.007 -17.666  -1.190  0.00  0.00     0.344 C 
ATOM     10  O   UNL d   1      22.449 -16.646  -0.789  0.00  0.00    -0.245 OA
ATOM     11  N   UNL d   1      22.166 -18.716  -1.475  0.00  0.00    -0.216 N 
ATOM     12  H   UNL d   1      22.361 -19.593  -1.926  0.00  0.00     0.199 HD
ATOM     13  H   UNL d   1      24.637 -18.769  -1.731  0.00  0.00     0.170 HD
BRANCH  11  14
ATOM     14  O   UNL d   1      20.820 -18.282  -1.241  0.00  0.00    -0.272 OA
BRANCH  14  15
ATOM     15  C   UNL d   1      19.884 -19.330  -1.207  0.00  0.00     0.240 C 
BRANCH  15  16
ATOM     16  C   UNL d   1      19.676 -19.834   0.209  0.00  0.00    -0.032 A 
ATOM     17  C   UNL d   1      18.595 -20.696   0.447  0.00  0.00     0.009 A 
ATOM     18  C   UNL d   1      18.335 -21.185   1.729  0.00  0.00     0.001 A 
ATOM     19  C   UNL d   1      19.154 -20.821   2.796  0.00  0.00     0.000 A 
ATOM     20  C   UNL d   1      20.238 -19.974   2.578  0.00  0.00     0.001 A 
ATOM     21  C   UNL d   1      20.498 -19.481   1.293  0.00  0.00     0.009 A 
ENDBRANCH  15  16
ENDBRANCH  14  15
ENDBRANCH  11  14
ENDBRANCH   7   8
BRANCH   5  22
ATOM     22  N   UNL d   1      26.619 -13.612  -2.474  0.00  0.00    -0.327 N 
ATOM     23  C   UNL d   1      25.784 -13.300  -3.533  0.00  0.00     0.226 C 
ATOM     24  O   UNL d   1      24.891 -13.994  -3.992  0.00  0.00    -0.273 OA
ATOM     25  H   UNL d   1      27.329 -12.934  -2.218  0.00  0.00     0.169 HD
BRANCH  23  26
ATOM     26  C   UNL d   1      26.026 -11.987  -4.194  0.00  0.00     0.078 A 
ATOM     27  C   UNL d   1      27.010 -11.988  -5.357  0.00  0.00     0.015 A 
ATOM     28  C   UNL d   1      25.567 -11.658  -5.590  0.00  0.00     0.015 A 
ENDBRANCH  23  26
ENDBRANCH   5  22
TORSDOF 6
ENDMDL
