MODEL 1
REMARK VINA RESULT:   -29.462      0.000      0.000
REMARK INTER + INTRA:         -35.582
REMARK INTER:                 -32.743
REMARK INTRA:                  -2.839
REMARK CONF_INDEPENDENT:        3.281
REMARK UNBOUND:                -2.839
REMARK  11 active torsions:
REMARK  status: ('A' for Active; 'I' for Inactive)
REMARK    1  A    between atoms: C_2  and  C_3 
REMARK    2  A    between atoms: C_4  and  C_3 
REMARK    3  A    between atoms: C_4  and  N_13 
REMARK    4  A    between atoms: C_4  and  C_5 
REMARK       I    between atoms: C_5  and  N_7 
REMARK    5  A    between atoms: N_7  and  C_8 
REMARK    6  A    between atoms: C_8  and  C_9 
REMARK    7  A    between atoms: C_9  and  C_10 
REMARK       I    between atoms: N_13  and  C_14 
REMARK    8  A    between atoms: N_13  and  C_25 
REMARK    9  A    between atoms: C_14  and  C_16 
REMARK   10  A    between atoms: C_19  and  C_20 
REMARK       I    between atoms: C_20  and  N_21 
REMARK   11  A    between atoms: C_23  and  N_24 
ROOT
ATOM      1  N   UNL d   1      26.848 -15.592  -1.623  0.00  0.00    -0.300 N 
ATOM      2  C   UNL d   1      26.144 -16.809  -1.168  0.00  0.00     0.269 C 
ATOM      3  O   UNL d   1      26.760 -17.880  -1.091  0.00  0.00    -0.266 OA
ENDROOT
BRANCH   1   4
ATOM      4  C   UNL d   1      26.317 -14.076  -1.733  0.00  0.00     0.179 C 
BRANCH   4   5
ATOM      5  C   UNL d   1      26.694 -13.044  -0.686  0.00  0.00     0.220 C 
ATOM      6  O   UNL d   1      27.069 -11.845  -0.900  0.00  0.00    -0.278 OA
ATOM      7  N   UNL d   1      26.560 -13.599   0.539  0.00  0.00    -0.261 NA
ATOM      8  H   UNL d   1      26.946 -14.485   0.274  0.00  0.00     0.130 HD
BRANCH   7   9
ATOM      9  C   UNL d   1      27.242 -12.987   1.682  0.00  0.00     0.095 C 
BRANCH   9  10
ATOM     10  C   UNL d   1      28.182 -13.881   3.180  0.00  0.00     0.018 C 
BRANCH  10  11
ATOM     11  C   UNL d   1      27.889 -13.877   4.819  0.00  0.00    -0.022 C 
ATOM     12  C   UNL d   1      28.859 -14.842   5.464  0.00  0.00     0.009 C 
ATOM     13  C   UNL d   1      28.010 -12.535   5.580  0.00  0.00     0.009 C 
ENDBRANCH  10  11
ENDBRANCH   9  10
ENDBRANCH   7   9
ENDBRANCH   4   5
BRANCH   4  14
ATOM     14  C   UNL d   1      26.542 -13.172  -2.949  0.00  0.00     0.034 C 
BRANCH  14  15
ATOM     15  C   UNL d   1      25.762 -13.589  -4.087  0.00  0.00    -0.002 C 
ATOM     16  C   UNL d   1      25.816 -14.974  -4.587  0.00  0.00     0.005 C 
ENDBRANCH  14  15
ENDBRANCH   4  14
ENDBRANCH   1   4
BRANCH   1  17
ATOM     17  C   UNL d   1      28.257 -15.816  -2.141  0.00  0.00     0.039 C 
ATOM     18  C   UNL d   1      29.305 -16.323  -1.357  0.00  0.00     0.030 C 
ATOM     19  C   UNL d   1      30.653 -16.491  -1.623  0.00  0.00     0.003 C 
ATOM     20  C   UNL d   1      30.990 -16.436  -2.923  0.00  0.00     0.007 C 
ATOM     21  C   UNL d   1      29.995 -16.070  -3.843  0.00  0.00    -0.060 C 
ATOM     22  C   UNL d   1      30.393 -16.087  -5.275  0.00  0.00     0.048 C 
ATOM     23  C   UNL d   1      28.653 -15.716  -3.463  0.00  0.00     0.036 C 
ENDBRANCH   1  17
BRANCH   2  24
ATOM     24  C   UNL d   1      24.707 -16.838  -0.868  0.00  0.00     0.115 C 
ATOM     25  S   UNL d   1      23.564 -15.734  -1.498  0.00  0.00     0.019 SA
ATOM     26  N   UNL d   1      22.107 -16.444  -1.094  0.00  0.00    -0.204 NA
ATOM     27  C   UNL d   1      22.329 -17.574  -0.430  0.00  0.00     0.149 C 
ATOM     28  C   UNL d   1      24.061 -17.591   0.080  0.00  0.00     0.065 C 
BRANCH  27  29
ATOM     29  C   UNL d   1      21.082 -18.858  -0.586  0.00  0.00     0.249 C 
ATOM     30  N   UNL d   1      19.905 -18.857  -1.263  0.00  0.00    -0.267 NA
ATOM     31  H   UNL d   1      19.442 -17.980  -1.324  0.00  0.00     0.127 HD
ATOM     32  H   UNL d   1      19.344 -19.581  -0.768  0.00  0.00     0.127 HD
ATOM     33  O   UNL d   1      20.932 -19.911   0.086  0.00  0.00    -0.272 OA
ENDBRANCH  27  29
BRANCH  28  34
ATOM     34  N   UNL d   1      24.944 -18.561   0.945  0.00  0.00    -0.299 NA
ATOM     35  H   UNL d   1      25.820 -18.917   0.512  0.00  0.00     0.124 HD
ATOM     36  H   UNL d   1      25.462 -18.376   1.834  0.00  0.00     0.124 HD
ENDBRANCH  28  34
ENDBRANCH   2  24
TORSDOF 11
ENDMDL
MODEL 2
REMARK VINA RESULT:   -29.328      2.962      4.558
REMARK INTER + INTRA:         -34.844
REMARK INTER:                 -32.610
REMARK INTRA:                  -2.234
REMARK CONF_INDEPENDENT:        3.281
REMARK UNBOUND:                -2.234
REMARK  11 active torsions:
REMARK  status: ('A' for Active; 'I' for Inactive)
REMARK    1  A    between atoms: C_2  and  C_3 
REMARK    2  A    between atoms: C_4  and  C_3 
REMARK    3  A    between atoms: C_4  and  N_13 
REMARK    4  A    between atoms: C_4  and  C_5 
REMARK       I    between atoms: C_5  and  N_7 
REMARK    5  A    between atoms: N_7  and  C_8 
REMARK    6  A    between atoms: C_8  and  C_9 
REMARK    7  A    between atoms: C_9  and  C_10 
REMARK       I    between atoms: N_13  and  C_14 
REMARK    8  A    between atoms: N_13  and  C_25 
REMARK    9  A    between atoms: C_14  and  C_16 
REMARK   10  A    between atoms: C_19  and  C_20 
REMARK       I    between atoms: C_20  and  N_21 
REMARK   11  A    between atoms: C_23  and  N_24 
ROOT
ATOM      1  N   UNL d   1      26.396 -16.178  -2.213  0.00  0.00    -0.300 N 
ATOM      2  C   UNL d   1      25.870 -16.672  -0.924  0.00  0.00     0.269 C 
ATOM      3  O   UNL d   1      26.657 -17.026  -0.036  0.00  0.00    -0.266 OA
ENDROOT
BRANCH   1   4
ATOM      4  C   UNL d   1      25.610 -15.584  -3.487  0.00  0.00     0.179 C 
BRANCH   4   5
ATOM      5  C   UNL d   1      25.096 -14.157  -3.485  0.00  0.00     0.220 C 
ATOM      6  O   UNL d   1      24.086 -13.710  -4.122  0.00  0.00    -0.278 OA
ATOM      7  N   UNL d   1      25.884 -13.412  -2.676  0.00  0.00    -0.261 NA
ATOM      8  H   UNL d   1      26.740 -13.836  -2.978  0.00  0.00     0.130 HD
BRANCH   7   9
ATOM      9  C   UNL d   1      25.877 -11.954  -2.814  0.00  0.00     0.095 C 
BRANCH   9  10
ATOM     10  C   UNL d   1      26.094 -10.871  -4.459  0.00  0.00     0.018 C 
BRANCH  10  11
ATOM     11  C   UNL d   1      25.338  -9.475  -4.963  0.00  0.00    -0.022 C 
ATOM     12  C   UNL d   1      26.045  -8.307  -4.313  0.00  0.00     0.009 C 
ATOM     13  C   UNL d   1      25.279  -9.183  -6.482  0.00  0.00     0.009 C 
ENDBRANCH  10  11
ENDBRANCH   9  10
ENDBRANCH   7   9
ENDBRANCH   4   5
BRANCH   4  14
ATOM     14  C   UNL d   1      26.174 -15.558  -4.911  0.00  0.00     0.034 C 
BRANCH  14  15
ATOM     15  C   UNL d   1      26.389 -14.214  -5.385  0.00  0.00    -0.002 C 
ATOM     16  C   UNL d   1      27.744 -13.646  -5.488  0.00  0.00     0.005 C 
ENDBRANCH  14  15
ENDBRANCH   4  14
ENDBRANCH   1   4
BRANCH   1  17
ATOM     17  C   UNL d   1      27.896 -16.326  -2.399  0.00  0.00     0.039 C 
ATOM     18  C   UNL d   1      28.654 -15.538  -3.277  0.00  0.00     0.030 C 
ATOM     19  C   UNL d   1      29.986 -15.599  -3.651  0.00  0.00     0.003 C 
ATOM     20  C   UNL d   1      30.770 -16.339  -2.848  0.00  0.00     0.007 C 
ATOM     21  C   UNL d   1      30.151 -17.079  -1.828  0.00  0.00    -0.060 C 
ATOM     22  C   UNL d   1      31.061 -17.829  -0.923  0.00  0.00     0.048 C 
ATOM     23  C   UNL d   1      28.727 -17.118  -1.627  0.00  0.00     0.036 C 
ENDBRANCH   1  17
BRANCH   2  24
ATOM     24  C   UNL d   1      24.436 -16.843  -0.657  0.00  0.00     0.115 C 
ATOM     25  S   UNL d   1      23.207 -15.838  -1.289  0.00  0.00     0.019 SA
ATOM     26  N   UNL d   1      21.815 -16.691  -0.931  0.00  0.00    -0.204 NA
ATOM     27  C   UNL d   1      22.130 -17.809  -0.285  0.00  0.00     0.149 C 
ATOM     28  C   UNL d   1      23.846 -17.674   0.262  0.00  0.00     0.065 C 
BRANCH  27  29
ATOM     29  C   UNL d   1      21.015 -19.202  -0.494  0.00  0.00     0.249 C 
ATOM     30  N   UNL d   1      19.905 -19.325  -1.268  0.00  0.00    -0.267 NA
ATOM     31  H   UNL d   1      19.377 -18.494  -1.402  0.00  0.00     0.127 HD
ATOM     32  H   UNL d   1      19.365 -20.079  -0.794  0.00  0.00     0.127 HD
ATOM     33  O   UNL d   1      20.895 -20.241   0.204  0.00  0.00    -0.272 OA
ENDBRANCH  27  29
BRANCH  28  34
ATOM     34  N   UNL d   1      24.800 -18.575   1.126  0.00  0.00    -0.299 NA
ATOM     35  H   UNL d   1      25.708 -18.849   0.700  0.00  0.00     0.124 HD
ATOM     36  H   UNL d   1      25.289 -18.358   2.024  0.00  0.00     0.124 HD
ENDBRANCH  28  34
ENDBRANCH   2  24
TORSDOF 11
ENDMDL
MODEL 3
REMARK VINA RESULT:   -29.221      0.694      1.361
REMARK INTER + INTRA:         -35.346
REMARK INTER:                 -32.502
REMARK INTRA:                  -2.843
REMARK CONF_INDEPENDENT:        3.281
REMARK UNBOUND:                -2.843
REMARK  11 active torsions:
REMARK  status: ('A' for Active; 'I' for Inactive)
REMARK    1  A    between atoms: C_2  and  C_3 
REMARK    2  A    between atoms: C_4  and  C_3 
REMARK    3  A    between atoms: C_4  and  N_13 
REMARK    4  A    between atoms: C_4  and  C_5 
REMARK       I    between atoms: C_5  and  N_7 
REMARK    5  A    between atoms: N_7  and  C_8 
REMARK    6  A    between atoms: C_8  and  C_9 
REMARK    7  A    between atoms: C_9  and  C_10 
REMARK       I    between atoms: N_13  and  C_14 
REMARK    8  A    between atoms: N_13  and  C_25 
REMARK    9  A    between atoms: C_14  and  C_16 
REMARK   10  A    between atoms: C_19  and  C_20 
REMARK       I    between atoms: C_20  and  N_21 
REMARK   11  A    between atoms: C_23  and  N_24 
ROOT
ATOM      1  N   UNL d   1      27.074 -15.954  -1.769  0.00  0.00    -0.300 N 
ATOM      2  C   UNL d   1      26.308 -17.052  -1.143  0.00  0.00     0.269 C 
ATOM      3  O   UNL d   1      26.869 -18.127  -0.895  0.00  0.00    -0.266 OA
ENDROOT
BRANCH   1   4
ATOM      4  C   UNL d   1      26.620 -14.449  -2.117  0.00  0.00     0.179 C 
BRANCH   4   5
ATOM      5  C   UNL d   1      27.087 -13.283  -1.266  0.00  0.00     0.220 C 
ATOM      6  O   UNL d   1      27.470 -12.141  -1.684  0.00  0.00    -0.278 OA
ATOM      7  N   UNL d   1      27.024 -13.642   0.036  0.00  0.00    -0.261 NA
ATOM      8  H   UNL d   1      27.374 -14.569  -0.115  0.00  0.00     0.130 HD
BRANCH   7   9
ATOM      9  C   UNL d   1      27.792 -12.884   1.026  0.00  0.00     0.095 C 
BRANCH   9  10
ATOM     10  C   UNL d   1      28.746 -13.560   2.626  0.00  0.00     0.018 C 
BRANCH  10  11
ATOM     11  C   UNL d   1      28.233 -14.521   3.886  0.00  0.00    -0.022 C 
ATOM     12  C   UNL d   1      29.399 -14.702   4.832  0.00  0.00     0.009 C 
ATOM     13  C   UNL d   1      27.033 -14.035   4.734  0.00  0.00     0.009 C 
ENDBRANCH  10  11
ENDBRANCH   9  10
ENDBRANCH   7   9
ENDBRANCH   4   5
BRANCH   4  14
ATOM     14  C   UNL d   1      26.851 -13.772  -3.471  0.00  0.00     0.034 C 
BRANCH  14  15
ATOM     15  C   UNL d   1      25.876 -14.176  -4.453  0.00  0.00    -0.002 C 
ATOM     16  C   UNL d   1      25.925 -15.509  -5.079  0.00  0.00     0.005 C 
ENDBRANCH  14  15
ENDBRANCH   4  14
ENDBRANCH   1   4
BRANCH   1  17
ATOM     17  C   UNL d   1      28.474 -16.323  -2.228  0.00  0.00     0.039 C 
ATOM     18  C   UNL d   1      28.966 -16.063  -3.515  0.00  0.00     0.030 C 
ATOM     19  C   UNL d   1      30.153 -16.415  -4.135  0.00  0.00     0.003 C 
ATOM     20  C   UNL d   1      31.129 -16.825  -3.306  0.00  0.00     0.007 C 
ATOM     21  C   UNL d   1      30.807 -16.999  -1.951  0.00  0.00    -0.060 C 
ATOM     22  C   UNL d   1      31.931 -17.388  -1.059  0.00  0.00     0.048 C 
ATOM     23  C   UNL d   1      29.487 -16.799  -1.415  0.00  0.00     0.036 C 
ENDBRANCH   1  17
BRANCH   2  24
ATOM     24  C   UNL d   1      24.869 -16.965  -0.863  0.00  0.00     0.115 C 
ATOM     25  S   UNL d   1      23.809 -15.831  -1.579  0.00  0.00     0.019 SA
ATOM     26  N   UNL d   1      22.304 -16.414  -1.149  0.00  0.00    -0.204 NA
ATOM     27  C   UNL d   1      22.443 -17.510  -0.410  0.00  0.00     0.149 C 
ATOM     28  C   UNL d   1      24.165 -17.608   0.124  0.00  0.00     0.065 C 
BRANCH  27  29
ATOM     29  C   UNL d   1      21.114 -18.715  -0.498  0.00  0.00     0.249 C 
ATOM     30  N   UNL d   1      19.833 -18.575  -0.928  0.00  0.00    -0.267 NA
ATOM     31  H   UNL d   1      19.421 -17.685  -0.775  0.00  0.00     0.127 HD
ATOM     32  H   UNL d   1      19.332 -19.346  -0.440  0.00  0.00     0.127 HD
ATOM     33  O   UNL d   1      21.028 -19.851   0.037  0.00  0.00    -0.272 OA
ENDBRANCH  27  29
BRANCH  28  34
ATOM     34  N   UNL d   1      24.973 -18.576   1.063  0.00  0.00    -0.299 NA
ATOM     35  H   UNL d   1      26.009 -18.567   0.973  0.00  0.00     0.124 HD
ATOM     36  H   UNL d   1      25.065 -18.571   2.104  0.00  0.00     0.124 HD
ENDBRANCH  28  34
ENDBRANCH   2  24
TORSDOF 11
ENDMDL
MODEL 4
REMARK VINA RESULT:   -28.798      1.304      1.687
REMARK INTER + INTRA:         -34.857
REMARK INTER:                 -32.079
REMARK INTRA:                  -2.778
REMARK CONF_INDEPENDENT:        3.281
REMARK UNBOUND:                -2.778
REMARK  11 active torsions:
REMARK  status: ('A' for Active; 'I' for Inactive)
REMARK    1  A    between atoms: C_2  and  C_3 
REMARK    2  A    between atoms: C_4  and  C_3 
REMARK    3  A    between atoms: C_4  and  N_13 
REMARK    4  A    between atoms: C_4  and  C_5 
REMARK       I    between atoms: C_5  and  N_7 
REMARK    5  A    between atoms: N_7  and  C_8 
REMARK    6  A    between atoms: C_8  and  C_9 
REMARK    7  A    between atoms: C_9  and  C_10 
REMARK       I    between atoms: N_13  and  C_14 
REMARK    8  A    between atoms: N_13  and  C_25 
REMARK    9  A    between atoms: C_14  and  C_16 
REMARK   10  A    between atoms: C_19  and  C_20 
REMARK       I    between atoms: C_20  and  N_21 
REMARK   11  A    between atoms: C_23  and  N_24 
ROOT
ATOM      1  N   UNL d   1      26.854 -15.679  -1.645  0.00  0.00    -0.300 N 
ATOM      2  C   UNL d   1      26.159 -16.856  -1.083  0.00  0.00     0.269 C 
ATOM      3  O   UNL d   1      26.791 -17.900  -0.877  0.00  0.00    -0.266 OA
ENDROOT
BRANCH   1   4
ATOM      4  C   UNL d   1      26.299 -14.194  -1.929  0.00  0.00     0.179 C 
BRANCH   4   5
ATOM      5  C   UNL d   1      27.002 -12.980  -1.350  0.00  0.00     0.220 C 
ATOM      6  O   UNL d   1      27.562 -12.040  -2.004  0.00  0.00    -0.278 OA
ATOM      7  N   UNL d   1      26.936 -13.041  -0.001  0.00  0.00    -0.261 NA
ATOM      8  H   UNL d   1      27.110 -14.027   0.048  0.00  0.00     0.130 HD
BRANCH   7   9
ATOM      9  C   UNL d   1      27.871 -12.247   0.799  0.00  0.00     0.095 C 
BRANCH   9  10
ATOM     10  C   UNL d   1      27.641 -11.563   2.645  0.00  0.00     0.018 C 
BRANCH  10  11
ATOM     11  C   UNL d   1      26.663 -10.362   3.258  0.00  0.00    -0.022 C 
ATOM     12  C   UNL d   1      27.543  -9.388   4.008  0.00  0.00     0.009 C 
ATOM     13  C   UNL d   1      25.812  -9.535   2.265  0.00  0.00     0.009 C 
ENDBRANCH  10  11
ENDBRANCH   9  10
ENDBRANCH   7   9
ENDBRANCH   4   5
BRANCH   4  14
ATOM     14  C   UNL d   1      26.079 -13.610  -3.327  0.00  0.00     0.034 C 
BRANCH  14  15
ATOM     15  C   UNL d   1      25.492 -14.569  -4.229  0.00  0.00    -0.002 C 
ATOM     16  C   UNL d   1      26.289 -15.211  -5.289  0.00  0.00     0.005 C 
ENDBRANCH  14  15
ENDBRANCH   4  14
ENDBRANCH   1   4
BRANCH   1  17
ATOM     17  C   UNL d   1      28.281 -15.927  -2.100  0.00  0.00     0.039 C 
ATOM     18  C   UNL d   1      29.317 -16.314  -1.238  0.00  0.00     0.030 C 
ATOM     19  C   UNL d   1      30.676 -16.479  -1.449  0.00  0.00     0.003 C 
ATOM     20  C   UNL d   1      31.046 -16.566  -2.738  0.00  0.00     0.007 C 
ATOM     21  C   UNL d   1      30.068 -16.333  -3.718  0.00  0.00    -0.060 C 
ATOM     22  C   UNL d   1      30.504 -16.505  -5.129  0.00  0.00     0.048 C 
ATOM     23  C   UNL d   1      28.710 -15.970  -3.414  0.00  0.00     0.036 C 
ENDBRANCH   1  17
BRANCH   2  24
ATOM     24  C   UNL d   1      24.714 -16.883  -0.820  0.00  0.00     0.115 C 
ATOM     25  S   UNL d   1      23.586 -15.791  -1.496  0.00  0.00     0.019 SA
ATOM     26  N   UNL d   1      22.120 -16.497  -1.118  0.00  0.00    -0.204 NA
ATOM     27  C   UNL d   1      22.328 -17.616  -0.430  0.00  0.00     0.149 C 
ATOM     28  C   UNL d   1      24.046 -17.621   0.124  0.00  0.00     0.065 C 
BRANCH  27  29
ATOM     29  C   UNL d   1      21.087 -18.905  -0.596  0.00  0.00     0.249 C 
ATOM     30  N   UNL d   1      19.905 -18.901  -1.265  0.00  0.00    -0.267 NA
ATOM     31  H   UNL d   1      19.436 -18.026  -1.309  0.00  0.00     0.127 HD
ATOM     32  H   UNL d   1      19.352 -19.636  -0.778  0.00  0.00     0.127 HD
ATOM     33  O   UNL d   1      20.948 -19.969   0.060  0.00  0.00    -0.272 OA
ENDBRANCH  27  29
BRANCH  28  34
ATOM     34  N   UNL d   1      24.909 -18.575   1.027  0.00  0.00    -0.299 NA
ATOM     35  H   UNL d   1      25.627 -19.156   0.550  0.00  0.00     0.124 HD
ATOM     36  H   UNL d   1      25.599 -18.340   1.776  0.00  0.00     0.124 HD
ENDBRANCH  28  34
ENDBRANCH   2  24
TORSDOF 11
ENDMDL
MODEL 5
REMARK VINA RESULT:   -28.497      2.258      5.314
REMARK INTER + INTRA:         -34.960
REMARK INTER:                 -31.778
REMARK INTRA:                  -3.181
REMARK CONF_INDEPENDENT:        3.281
REMARK UNBOUND:                -3.181
REMARK  11 active torsions:
REMARK  status: ('A' for Active; 'I' for Inactive)
REMARK    1  A    between atoms: C_2  and  C_3 
REMARK    2  A    between atoms: C_4  and  C_3 
REMARK    3  A    between atoms: C_4  and  N_13 
REMARK    4  A    between atoms: C_4  and  C_5 
REMARK       I    between atoms: C_5  and  N_7 
REMARK    5  A    between atoms: N_7  and  C_8 
REMARK    6  A    between atoms: C_8  and  C_9 
REMARK    7  A    between atoms: C_9  and  C_10 
REMARK       I    between atoms: N_13  and  C_14 
REMARK    8  A    between atoms: N_13  and  C_25 
REMARK    9  A    between atoms: C_14  and  C_16 
REMARK   10  A    between atoms: C_19  and  C_20 
REMARK       I    between atoms: C_20  and  N_21 
REMARK   11  A    between atoms: C_23  and  N_24 
ROOT
ATOM      1  N   UNL d   1      26.777 -15.300  -1.417  0.00  0.00    -0.300 N 
ATOM      2  C   UNL d   1      25.702 -15.699  -0.484  0.00  0.00     0.269 C 
ATOM      3  O   UNL d   1      25.589 -15.119   0.604  0.00  0.00    -0.266 OA
ENDROOT
BRANCH   1   4
ATOM      4  C   UNL d   1      27.094 -15.822  -2.907  0.00  0.00     0.179 C 
BRANCH   4   5
ATOM      5  C   UNL d   1      26.447 -15.165  -4.112  0.00  0.00     0.220 C 
ATOM      6  O   UNL d   1      26.865 -15.203  -5.316  0.00  0.00    -0.278 OA
ATOM      7  N   UNL d   1      25.326 -14.524  -3.709  0.00  0.00    -0.261 NA
ATOM      8  H   UNL d   1      25.731 -14.168  -2.864  0.00  0.00     0.130 HD
BRANCH   7   9
ATOM      9  C   UNL d   1      24.751 -13.482  -4.561  0.00  0.00     0.095 C 
BRANCH   9  10
ATOM     10  C   UNL d   1      25.682 -12.007  -5.503  0.00  0.00     0.018 C 
BRANCH  10  11
ATOM     11  C   UNL d   1      26.218 -10.525  -4.965  0.00  0.00    -0.022 C 
ATOM     12  C   UNL d   1      25.590  -9.462  -5.837  0.00  0.00     0.009 C 
ATOM     13  C   UNL d   1      25.931 -10.134  -3.495  0.00  0.00     0.009 C 
ENDBRANCH  10  11
ENDBRANCH   9  10
ENDBRANCH   7   9
ENDBRANCH   4   5
BRANCH   4  14
ATOM     14  C   UNL d   1      28.500 -15.920  -3.504  0.00  0.00     0.034 C 
BRANCH  14  15
ATOM     15  C   UNL d   1      29.355 -16.792  -2.738  0.00  0.00    -0.002 C 
ATOM     16  C   UNL d   1      30.406 -17.598  -3.384  0.00  0.00     0.005 C 
ENDBRANCH  14  15
ENDBRANCH   4  14
ENDBRANCH   1   4
BRANCH   1  17
ATOM     17  C   UNL d   1      27.784 -14.310  -0.858  0.00  0.00     0.039 C 
ATOM     18  C   UNL d   1      27.926 -12.996  -1.327  0.00  0.00     0.030 C 
ATOM     19  C   UNL d   1      28.842 -12.004  -1.018  0.00  0.00     0.003 C 
ATOM     20  C   UNL d   1      29.543 -12.205   0.111  0.00  0.00     0.007 C 
ATOM     21  C   UNL d   1      29.391 -13.439   0.765  0.00  0.00    -0.060 C 
ATOM     22  C   UNL d   1      30.131 -13.593   2.045  0.00  0.00     0.048 C 
ATOM     23  C   UNL d   1      28.561 -14.504   0.270  0.00  0.00     0.036 C 
ENDBRANCH   1  17
BRANCH   2  24
ATOM     24  C   UNL d   1      24.788 -16.818  -0.747  0.00  0.00     0.115 C 
ATOM     25  S   UNL d   1      25.190 -18.466  -0.537  0.00  0.00     0.019 SA
ATOM     26  N   UNL d   1      23.706 -19.224  -0.660  0.00  0.00    -0.204 NA
ATOM     27  C   UNL d   1      22.760 -18.318  -0.888  0.00  0.00     0.149 C 
ATOM     28  C   UNL d   1      23.566 -16.776  -1.369  0.00  0.00     0.065 C 
BRANCH  27  29
ATOM     29  C   UNL d   1      21.112 -18.707  -0.286  0.00  0.00     0.249 C 
ATOM     30  N   UNL d   1      19.905 -18.575  -0.895  0.00  0.00    -0.267 NA
ATOM     31  H   UNL d   1      19.821 -17.816  -1.530  0.00  0.00     0.127 HD
ATOM     32  H   UNL d   1      19.240 -18.514  -0.096  0.00  0.00     0.127 HD
ATOM     33  O   UNL d   1      20.725 -18.945   0.887  0.00  0.00    -0.272 OA
ENDBRANCH  27  29
BRANCH  28  34
ATOM     34  N   UNL d   1      23.054 -15.368  -1.845  0.00  0.00    -0.299 NA
ATOM     35  H   UNL d   1      23.452 -14.994  -2.730  0.00  0.00     0.124 HD
ATOM     36  H   UNL d   1      22.099 -15.076  -2.152  0.00  0.00     0.124 HD
ENDBRANCH  28  34
ENDBRANCH   2  24
TORSDOF 11
ENDMDL
MODEL 6
REMARK VINA RESULT:   -28.495      2.090      4.780
REMARK INTER + INTRA:         -34.712
REMARK INTER:                 -31.776
REMARK INTRA:                  -2.936
REMARK CONF_INDEPENDENT:        3.281
REMARK UNBOUND:                -2.936
REMARK  11 active torsions:
REMARK  status: ('A' for Active; 'I' for Inactive)
REMARK    1  A    between atoms: C_2  and  C_3 
REMARK    2  A    between atoms: C_4  and  C_3 
REMARK    3  A    between atoms: C_4  and  N_13 
REMARK    4  A    between atoms: C_4  and  C_5 
REMARK       I    between atoms: C_5  and  N_7 
REMARK    5  A    between atoms: N_7  and  C_8 
REMARK    6  A    between atoms: C_8  and  C_9 
REMARK    7  A    between atoms: C_9  and  C_10 
REMARK       I    between atoms: N_13  and  C_14 
REMARK    8  A    between atoms: N_13  and  C_25 
REMARK    9  A    between atoms: C_14  and  C_16 
REMARK   10  A    between atoms: C_19  and  C_20 
REMARK       I    between atoms: C_20  and  N_21 
REMARK   11  A    between atoms: C_23  and  N_24 
ROOT
ATOM      1  N   UNL d   1      27.174 -16.164  -1.655  0.00  0.00    -0.300 N 
ATOM      2  C   UNL d   1      26.349 -17.232  -1.052  0.00  0.00     0.269 C 
ATOM      3  O   UNL d   1      26.850 -18.343  -0.834  0.00  0.00    -0.266 OA
ENDROOT
BRANCH   1   4
ATOM      4  C   UNL d   1      26.804 -14.627  -1.962  0.00  0.00     0.179 C 
BRANCH   4   5
ATOM      5  C   UNL d   1      25.982 -14.257  -3.183  0.00  0.00     0.220 C 
ATOM      6  O   UNL d   1      25.429 -15.064  -4.001  0.00  0.00    -0.278 OA
ATOM      7  N   UNL d   1      25.913 -12.910  -3.270  0.00  0.00    -0.261 NA
ATOM      8  H   UNL d   1      26.870 -12.759  -3.011  0.00  0.00     0.130 HD
BRANCH   7   9
ATOM      9  C   UNL d   1      25.553 -12.292  -4.547  0.00  0.00     0.095 C 
BRANCH   9  10
ATOM     10  C   UNL d   1      26.733 -11.832  -6.071  0.00  0.00     0.018 C 
BRANCH  10  11
ATOM     11  C   UNL d   1      28.128 -12.546  -6.635  0.00  0.00    -0.022 C 
ATOM     12  C   UNL d   1      28.113 -13.995  -6.201  0.00  0.00     0.009 C 
ATOM     13  C   UNL d   1      28.393 -12.531  -8.159  0.00  0.00     0.009 C 
ENDBRANCH  10  11
ENDBRANCH   9  10
ENDBRANCH   7   9
ENDBRANCH   4   5
BRANCH   4  14
ATOM     14  C   UNL d   1      26.074 -13.705  -0.982  0.00  0.00     0.034 C 
BRANCH  14  15
ATOM     15  C   UNL d   1      26.710 -13.674   0.311  0.00  0.00    -0.002 C 
ATOM     16  C   UNL d   1      28.119 -13.269   0.462  0.00  0.00     0.005 C 
ENDBRANCH  14  15
ENDBRANCH   4  14
ENDBRANCH   1   4
BRANCH   1  17
ATOM     17  C   UNL d   1      28.549 -16.599  -2.130  0.00  0.00     0.039 C 
ATOM     18  C   UNL d   1      29.472 -17.280  -1.324  0.00  0.00     0.030 C 
ATOM     19  C   UNL d   1      30.787 -17.655  -1.547  0.00  0.00     0.003 C 
ATOM     20  C   UNL d   1      31.177 -17.629  -2.833  0.00  0.00     0.007 C 
ATOM     21  C   UNL d   1      30.287 -17.093  -3.777  0.00  0.00    -0.060 C 
ATOM     22  C   UNL d   1      30.731 -17.146  -5.195  0.00  0.00     0.048 C 
ATOM     23  C   UNL d   1      29.005 -16.538  -3.435  0.00  0.00     0.036 C 
ENDBRANCH   1  17
BRANCH   2  24
ATOM     24  C   UNL d   1      24.918 -17.072  -0.762  0.00  0.00     0.115 C 
ATOM     25  S   UNL d   1      23.896 -15.937  -1.529  0.00  0.00     0.019 SA
ATOM     26  N   UNL d   1      22.374 -16.434  -1.053  0.00  0.00    -0.204 NA
ATOM     27  C   UNL d   1      22.479 -17.493  -0.254  0.00  0.00     0.149 C 
ATOM     28  C   UNL d   1      24.202 -17.631   0.266  0.00  0.00     0.065 C 
BRANCH  27  29
ATOM     29  C   UNL d   1      21.102 -18.647  -0.262  0.00  0.00     0.249 C 
ATOM     30  N   UNL d   1      19.906 -18.577  -0.902  0.00  0.00    -0.267 NA
ATOM     31  H   UNL d   1      19.533 -17.665  -1.024  0.00  0.00     0.127 HD
ATOM     32  H   UNL d   1      19.293 -19.195  -0.330  0.00  0.00     0.127 HD
ATOM     33  O   UNL d   1      20.870 -19.619   0.503  0.00  0.00    -0.272 OA
ENDBRANCH  27  29
BRANCH  28  34
ATOM     34  N   UNL d   1      24.983 -18.576   1.249  0.00  0.00    -0.299 NA
ATOM     35  H   UNL d   1      25.699 -19.205   0.833  0.00  0.00     0.124 HD
ATOM     36  H   UNL d   1      25.646 -18.335   2.020  0.00  0.00     0.124 HD
ENDBRANCH  28  34
ENDBRANCH   2  24
TORSDOF 11
ENDMDL
MODEL 7
REMARK VINA RESULT:   -28.311      2.138      4.913
REMARK INTER + INTRA:         -34.062
REMARK INTER:                 -31.592
REMARK INTRA:                  -2.470
REMARK CONF_INDEPENDENT:        3.281
REMARK UNBOUND:                -2.470
REMARK  11 active torsions:
REMARK  status: ('A' for Active; 'I' for Inactive)
REMARK    1  A    between atoms: C_2  and  C_3 
REMARK    2  A    between atoms: C_4  and  C_3 
REMARK    3  A    between atoms: C_4  and  N_13 
REMARK    4  A    between atoms: C_4  and  C_5 
REMARK       I    between atoms: C_5  and  N_7 
REMARK    5  A    between atoms: N_7  and  C_8 
REMARK    6  A    between atoms: C_8  and  C_9 
REMARK    7  A    between atoms: C_9  and  C_10 
REMARK       I    between atoms: N_13  and  C_14 
REMARK    8  A    between atoms: N_13  and  C_25 
REMARK    9  A    between atoms: C_14  and  C_16 
REMARK   10  A    between atoms: C_19  and  C_20 
REMARK       I    between atoms: C_20  and  N_21 
REMARK   11  A    between atoms: C_23  and  N_24 
ROOT
ATOM      1  N   UNL d   1      27.173 -16.028  -1.655  0.00  0.00    -0.300 N 
ATOM      2  C   UNL d   1      26.360 -17.126  -1.092  0.00  0.00     0.269 C 
ATOM      3  O   UNL d   1      26.886 -18.223  -0.864  0.00  0.00    -0.266 OA
ENDROOT
BRANCH   1   4
ATOM      4  C   UNL d   1      26.767 -14.500  -1.965  0.00  0.00     0.179 C 
BRANCH   4   5
ATOM      5  C   UNL d   1      25.978 -14.146  -3.212  0.00  0.00     0.220 C 
ATOM      6  O   UNL d   1      25.342 -14.954  -3.965  0.00  0.00    -0.278 OA
ATOM      7  N   UNL d   1      26.042 -12.809  -3.403  0.00  0.00    -0.261 NA
ATOM      8  H   UNL d   1      27.011 -12.735  -3.156  0.00  0.00     0.130 HD
BRANCH   7   9
ATOM      9  C   UNL d   1      25.736 -12.259  -4.724  0.00  0.00     0.095 C 
BRANCH   9  10
ATOM     10  C   UNL d   1      26.180 -10.467  -5.447  0.00  0.00     0.018 C 
BRANCH  10  11
ATOM     11  C   UNL d   1      25.570  -8.959  -5.095  0.00  0.00    -0.022 C 
ATOM     12  C   UNL d   1      26.409  -7.938  -5.830  0.00  0.00     0.009 C 
ATOM     13  C   UNL d   1      24.091  -8.668  -5.447  0.00  0.00     0.009 C 
ENDBRANCH  10  11
ENDBRANCH   9  10
ENDBRANCH   7   9
ENDBRANCH   4   5
BRANCH   4  14
ATOM     14  C   UNL d   1      25.975 -13.609  -1.005  0.00  0.00     0.034 C 
BRANCH  14  15
ATOM     15  C   UNL d   1      26.834 -12.889  -0.099  0.00  0.00    -0.002 C 
ATOM     16  C   UNL d   1      27.522 -13.571   1.011  0.00  0.00     0.005 C 
ENDBRANCH  14  15
ENDBRANCH   4  14
ENDBRANCH   1   4
BRANCH   1  17
ATOM     17  C   UNL d   1      28.577 -16.416  -2.081  0.00  0.00     0.039 C 
ATOM     18  C   UNL d   1      29.007 -16.443  -3.416  0.00  0.00     0.030 C 
ATOM     19  C   UNL d   1      30.194 -16.865  -3.992  0.00  0.00     0.003 C 
ATOM     20  C   UNL d   1      31.222 -17.010  -3.138  0.00  0.00     0.007 C 
ATOM     21  C   UNL d   1      30.958 -16.873  -1.766  0.00  0.00    -0.060 C 
ATOM     22  C   UNL d   1      32.135 -16.974  -0.863  0.00  0.00     0.048 C 
ATOM     23  C   UNL d   1      29.647 -16.626  -1.230  0.00  0.00     0.036 C 
ENDBRANCH   1  17
BRANCH   2  24
ATOM     24  C   UNL d   1      24.915 -17.013  -0.855  0.00  0.00     0.115 C 
ATOM     25  S   UNL d   1      23.892 -15.883  -1.629  0.00  0.00     0.019 SA
ATOM     26  N   UNL d   1      22.367 -16.434  -1.228  0.00  0.00    -0.204 NA
ATOM     27  C   UNL d   1      22.470 -17.513  -0.458  0.00  0.00     0.149 C 
ATOM     28  C   UNL d   1      24.175 -17.621   0.127  0.00  0.00     0.065 C 
BRANCH  27  29
ATOM     29  C   UNL d   1      21.127 -18.702  -0.554  0.00  0.00     0.249 C 
ATOM     30  N   UNL d   1      19.904 -18.595  -1.136  0.00  0.00    -0.267 NA
ATOM     31  H   UNL d   1      19.501 -17.688  -1.133  0.00  0.00     0.127 HD
ATOM     32  H   UNL d   1      19.332 -19.297  -0.620  0.00  0.00     0.127 HD
ATOM     33  O   UNL d   1      20.953 -19.765   0.095  0.00  0.00    -0.272 OA
ENDBRANCH  27  29
BRANCH  28  34
ATOM     34  N   UNL d   1      24.942 -18.575   1.112  0.00  0.00    -0.299 NA
ATOM     35  H   UNL d   1      25.980 -18.517   1.116  0.00  0.00     0.124 HD
ATOM     36  H   UNL d   1      24.942 -18.593   2.158  0.00  0.00     0.124 HD
ENDBRANCH  28  34
ENDBRANCH   2  24
TORSDOF 11
ENDMDL
MODEL 8
REMARK VINA RESULT:   -28.014      2.526      4.900
REMARK INTER + INTRA:         -34.963
REMARK INTER:                 -31.296
REMARK INTRA:                  -3.668
REMARK CONF_INDEPENDENT:        3.281
REMARK UNBOUND:                -3.668
REMARK  11 active torsions:
REMARK  status: ('A' for Active; 'I' for Inactive)
REMARK    1  A    between atoms: C_2  and  C_3 
REMARK    2  A    between atoms: C_4  and  C_3 
REMARK    3  A    between atoms: C_4  and  N_13 
REMARK    4  A    between atoms: C_4  and  C_5 
REMARK       I    between atoms: C_5  and  N_7 
REMARK    5  A    between atoms: N_7  and  C_8 
REMARK    6  A    between atoms: C_8  and  C_9 
REMARK    7  A    between atoms: C_9  and  C_10 
REMARK       I    between atoms: N_13  and  C_14 
REMARK    8  A    between atoms: N_13  and  C_25 
REMARK    9  A    between atoms: C_14  and  C_16 
REMARK   10  A    between atoms: C_19  and  C_20 
REMARK       I    between atoms: C_20  and  N_21 
REMARK   11  A    between atoms: C_23  and  N_24 
ROOT
ATOM      1  N   UNL d   1      26.834 -15.408  -1.400  0.00  0.00    -0.300 N 
ATOM      2  C   UNL d   1      25.741 -15.779  -0.477  0.00  0.00     0.269 C 
ATOM      3  O   UNL d   1      25.626 -15.187   0.605  0.00  0.00    -0.266 OA
ENDROOT
BRANCH   1   4
ATOM      4  C   UNL d   1      27.158 -15.950  -2.882  0.00  0.00     0.179 C 
BRANCH   4   5
ATOM      5  C   UNL d   1      26.426 -15.393  -4.088  0.00  0.00     0.220 C 
ATOM      6  O   UNL d   1      26.723 -15.582  -5.313  0.00  0.00    -0.278 OA
ATOM      7  N   UNL d   1      25.377 -14.656  -3.658  0.00  0.00    -0.261 NA
ATOM      8  H   UNL d   1      25.876 -14.233  -2.899  0.00  0.00     0.130 HD
BRANCH   7   9
ATOM      9  C   UNL d   1      24.766 -13.682  -4.566  0.00  0.00     0.095 C 
BRANCH   9  10
ATOM     10  C   UNL d   1      25.539 -11.998  -5.269  0.00  0.00     0.018 C 
BRANCH  10  11
ATOM     11  C   UNL d   1      26.568 -10.888  -4.575  0.00  0.00    -0.022 C 
ATOM     12  C   UNL d   1      25.980 -10.484  -3.241  0.00  0.00     0.009 C 
ATOM     13  C   UNL d   1      28.033 -11.312  -4.314  0.00  0.00     0.009 C 
ENDBRANCH  10  11
ENDBRANCH   9  10
ENDBRANCH   7   9
ENDBRANCH   4   5
BRANCH   4  14
ATOM     14  C   UNL d   1      28.553 -15.944  -3.514  0.00  0.00     0.034 C 
BRANCH  14  15
ATOM     15  C   UNL d   1      29.108 -14.616  -3.590  0.00  0.00    -0.002 C 
ATOM     16  C   UNL d   1      30.297 -14.329  -4.412  0.00  0.00     0.005 C 
ENDBRANCH  14  15
ENDBRANCH   4  14
ENDBRANCH   1   4
BRANCH   1  17
ATOM     17  C   UNL d   1      27.851 -14.430  -0.840  0.00  0.00     0.039 C 
ATOM     18  C   UNL d   1      29.023 -14.820  -0.176  0.00  0.00     0.030 C 
ATOM     19  C   UNL d   1      29.995 -14.085   0.482  0.00  0.00     0.003 C 
ATOM     20  C   UNL d   1      29.992 -12.767   0.216  0.00  0.00     0.007 C 
ATOM     21  C   UNL d   1      28.938 -12.258  -0.560  0.00  0.00    -0.060 C 
ATOM     22  C   UNL d   1      29.010 -10.809  -0.886  0.00  0.00     0.048 C 
ATOM     23  C   UNL d   1      27.850 -13.062  -1.047  0.00  0.00     0.036 C 
ENDBRANCH   1  17
BRANCH   2  24
ATOM     24  C   UNL d   1      24.812 -16.885  -0.739  0.00  0.00     0.115 C 
ATOM     25  S   UNL d   1      25.189 -18.539  -0.527  0.00  0.00     0.019 SA
ATOM     26  N   UNL d   1      23.695 -19.275  -0.650  0.00  0.00    -0.204 NA
ATOM     27  C   UNL d   1      22.762 -18.356  -0.880  0.00  0.00     0.149 C 
ATOM     28  C   UNL d   1      23.591 -16.826  -1.363  0.00  0.00     0.065 C 
BRANCH  27  29
ATOM     29  C   UNL d   1      21.108 -18.720  -0.280  0.00  0.00     0.249 C 
ATOM     30  N   UNL d   1      19.905 -18.589  -0.898  0.00  0.00    -0.267 NA
ATOM     31  H   UNL d   1      19.831 -17.841  -1.547  0.00  0.00     0.127 HD
ATOM     32  H   UNL d   1      19.236 -18.507  -0.104  0.00  0.00     0.127 HD
ATOM     33  O   UNL d   1      20.713 -18.934   0.895  0.00  0.00    -0.272 OA
ENDBRANCH  27  29
BRANCH  28  34
ATOM     34  N   UNL d   1      23.100 -15.412  -1.840  0.00  0.00    -0.299 NA
ATOM     35  H   UNL d   1      23.443 -15.079  -2.764  0.00  0.00     0.124 HD
ATOM     36  H   UNL d   1      22.137 -15.088  -2.084  0.00  0.00     0.124 HD
ENDBRANCH  28  34
ENDBRANCH   2  24
TORSDOF 11
ENDMDL
MODEL 9
REMARK VINA RESULT:   -27.961      2.351      3.359
REMARK INTER + INTRA:         -34.869
REMARK INTER:                 -31.243
REMARK INTRA:                  -3.626
REMARK CONF_INDEPENDENT:        3.281
REMARK UNBOUND:                -3.626
REMARK  11 active torsions:
REMARK  status: ('A' for Active; 'I' for Inactive)
REMARK    1  A    between atoms: C_2  and  C_3 
REMARK    2  A    between atoms: C_4  and  C_3 
REMARK    3  A    between atoms: C_4  and  N_13 
REMARK    4  A    between atoms: C_4  and  C_5 
REMARK       I    between atoms: C_5  and  N_7 
REMARK    5  A    between atoms: N_7  and  C_8 
REMARK    6  A    between atoms: C_8  and  C_9 
REMARK    7  A    between atoms: C_9  and  C_10 
REMARK       I    between atoms: N_13  and  C_14 
REMARK    8  A    between atoms: N_13  and  C_25 
REMARK    9  A    between atoms: C_14  and  C_16 
REMARK   10  A    between atoms: C_19  and  C_20 
REMARK       I    between atoms: C_20  and  N_21 
REMARK   11  A    between atoms: C_23  and  N_24 
ROOT
ATOM      1  N   UNL d   1      26.539 -15.598  -1.817  0.00  0.00    -0.300 N 
ATOM      2  C   UNL d   1      25.946 -16.790  -1.176  0.00  0.00     0.269 C 
ATOM      3  O   UNL d   1      26.649 -17.788  -0.969  0.00  0.00    -0.266 OA
ENDROOT
BRANCH   1   4
ATOM      4  C   UNL d   1      25.883 -14.159  -2.122  0.00  0.00     0.179 C 
BRANCH   4   5
ATOM      5  C   UNL d   1      26.730 -12.901  -2.098  0.00  0.00     0.220 C 
ATOM      6  O   UNL d   1      26.752 -11.981  -2.980  0.00  0.00    -0.278 OA
ATOM      7  N   UNL d   1      27.470 -12.896  -0.966  0.00  0.00    -0.261 NA
ATOM      8  H   UNL d   1      27.689 -13.873  -1.003  0.00  0.00     0.130 HD
BRANCH   7   9
ATOM      9  C   UNL d   1      28.655 -12.039  -0.889  0.00  0.00     0.095 C 
BRANCH   9  10
ATOM     10  C   UNL d   1      29.675 -11.208  -2.372  0.00  0.00     0.018 C 
BRANCH  10  11
ATOM     11  C   UNL d   1      30.182 -11.821  -3.835  0.00  0.00    -0.022 C 
ATOM     12  C   UNL d   1      31.074 -13.010  -3.553  0.00  0.00     0.009 C 
ATOM     13  C   UNL d   1      29.105 -12.290  -4.843  0.00  0.00     0.009 C 
ENDBRANCH  10  11
ENDBRANCH   9  10
ENDBRANCH   7   9
ENDBRANCH   4   5
BRANCH   4  14
ATOM     14  C   UNL d   1      25.111 -13.819  -3.400  0.00  0.00     0.034 C 
BRANCH  14  15
ATOM     15  C   UNL d   1      25.807 -14.251  -4.585  0.00  0.00    -0.002 C 
ATOM     16  C   UNL d   1      25.618 -15.606  -5.134  0.00  0.00     0.005 C 
ENDBRANCH  14  15
ENDBRANCH   4  14
ENDBRANCH   1   4
BRANCH   1  17
ATOM     17  C   UNL d   1      27.952 -15.781  -2.342  0.00  0.00     0.039 C 
ATOM     18  C   UNL d   1      29.034 -16.179  -1.543  0.00  0.00     0.030 C 
ATOM     19  C   UNL d   1      30.387 -16.293  -1.818  0.00  0.00     0.003 C 
ATOM     20  C   UNL d   1      30.704 -16.307  -3.124  0.00  0.00     0.007 C 
ATOM     21  C   UNL d   1      29.679 -16.056  -4.050  0.00  0.00    -0.060 C 
ATOM     22  C   UNL d   1      30.060 -16.147  -5.484  0.00  0.00     0.048 C 
ATOM     23  C   UNL d   1      28.326 -15.749  -3.673  0.00  0.00     0.036 C 
ENDBRANCH   1  17
BRANCH   2  24
ATOM     24  C   UNL d   1      24.522 -16.890  -0.832  0.00  0.00     0.115 C 
ATOM     25  S   UNL d   1      23.305 -15.854  -1.438  0.00  0.00     0.019 SA
ATOM     26  N   UNL d   1      21.899 -16.633  -0.981  0.00  0.00    -0.204 NA
ATOM     27  C   UNL d   1      22.200 -17.742  -0.312  0.00  0.00     0.149 C 
ATOM     28  C   UNL d   1      23.945 -17.663   0.144  0.00  0.00     0.065 C 
BRANCH  27  29
ATOM     29  C   UNL d   1      21.018 -19.091  -0.415  0.00  0.00     0.249 C 
ATOM     30  N   UNL d   1      19.905 -19.222  -1.183  0.00  0.00    -0.267 NA
ATOM     31  H   UNL d   1      19.419 -18.380  -1.387  0.00  0.00     0.127 HD
ATOM     32  H   UNL d   1      19.329 -19.908  -0.653  0.00  0.00     0.127 HD
ATOM     33  O   UNL d   1      20.846 -20.064   0.363  0.00  0.00    -0.272 OA
ENDBRANCH  27  29
BRANCH  28  34
ATOM     34  N   UNL d   1      24.904 -18.575   0.992  0.00  0.00    -0.299 NA
ATOM     35  H   UNL d   1      25.906 -18.594   0.716  0.00  0.00     0.124 HD
ATOM     36  H   UNL d   1      25.184 -18.496   1.996  0.00  0.00     0.124 HD
ENDBRANCH  28  34
ENDBRANCH   2  24
TORSDOF 11
ENDMDL
