MODEL 1
REMARK VINA RESULT:    -9.547      0.000      0.000
REMARK INTER + INTRA:         -12.720
REMARK INTER:                 -11.336
REMARK INTRA:                  -1.384
REMARK CONF_INDEPENDENT:        1.790
REMARK UNBOUND:                -1.384
REMARK  6 active torsions:
REMARK  status: ('A' for Active; 'I' for Inactive)
REMARK    1  A    between atoms: C_4  and  C_5 
REMARK    2  A    between atoms: C_5  and  O_6 
REMARK    3  A    between atoms: C_5  and  C_7 
REMARK    4  A    between atoms: N_28  and  C_29 
REMARK    5  A    between atoms: C_29  and  C_30 
REMARK    6  A    between atoms: C_30  and  C_31 
ROOT
ATOM      1  O   UNL d   1      30.045 -17.371  -2.866  0.00  0.00    -0.272 OA
ATOM      2  C   UNL d   1      29.381 -16.519  -3.435  0.00  0.00     0.233 C 
ATOM      3  C   UNL d   1      28.155 -15.891  -2.869  0.00  0.00     0.131 A 
ATOM      4  C   UNL d   1      28.448 -14.872  -1.780  0.00  0.00     0.269 A 
ATOM      5  N   UNL d   1      27.905 -13.576  -2.242  0.00  0.00     0.116 N 
ATOM      6  C   UNL d   1      27.230 -13.756  -3.528  0.00  0.00     0.279 A 
ATOM      7  C   UNL d   1      25.700 -13.367  -3.327  0.00  0.00     0.267 C 
ATOM      8  O   UNL d   1      24.966 -13.657  -2.395  0.00  0.00    -0.270 OA
ATOM      9  N   UNL d   1      25.335 -12.567  -4.406  0.00  0.00    -0.324 N 
ATOM     10  C   UNL d   1      26.453 -12.188  -5.132  0.00  0.00     0.044 A 
ATOM     11  C   UNL d   1      26.501 -11.353  -6.224  0.00  0.00     0.030 A 
ATOM     12  C   UNL d   1      27.753 -11.141  -6.808  0.00  0.00     0.002 A 
ATOM     13  C   UNL d   1      28.914 -11.733  -6.278  0.00  0.00     0.001 A 
ATOM     14  C   UNL d   1      28.850 -12.526  -5.139  0.00  0.00     0.012 A 
ATOM     15  C   UNL d   1      27.603 -12.770  -4.594  0.00  0.00     0.017 A 
ATOM     16  C   UNL d   1      27.440 -15.200  -4.002  0.00  0.00     0.147 A 
ATOM     17  C   UNL d   1      28.400 -15.471  -5.157  0.00  0.00     0.234 C 
ATOM     18  O   UNL d   1      28.150 -15.239  -6.333  0.00  0.00    -0.272 OA
ATOM     19  N   UNL d   1      29.554 -16.048  -4.693  0.00  0.00    -0.287 N 
ATOM     20  H   UNL d   1      28.579 -12.814  -2.251  0.00  0.00     0.318 HD
ATOM     21  H   UNL d   1      24.405 -12.188  -4.520  0.00  0.00     0.169 HD
ENDROOT
BRANCH   4  22
ATOM     22  C   UNL d   1      27.843 -15.259  -0.378  0.00  0.00     0.185 C 
BRANCH  22  23
ATOM     23  O   UNL d   1      28.920 -15.743   0.443  0.00  0.00    -0.389 OA
ATOM     24  H   UNL d   1      28.532 -16.035   1.286  0.00  0.00     0.210 HD
ENDBRANCH  22  23
BRANCH  22  25
ATOM     25  C   UNL d   1      26.678 -16.251  -0.376  0.00  0.00    -0.028 A 
ATOM     26  C   UNL d   1      25.463 -15.931  -1.029  0.00  0.00     0.011 A 
ATOM     27  C   UNL d   1      24.428 -16.864  -1.147  0.00  0.00     0.024 A 
ATOM     28  C   UNL d   1      24.549 -18.094  -0.517  0.00  0.00     0.034 A 
ATOM     29 CL   UNL d   1      23.223 -19.188  -0.520  0.00  0.00    -0.084 Cl
ATOM     30  C   UNL d   1      25.722 -18.424   0.157  0.00  0.00     0.024 A 
ATOM     31  C   UNL d   1      26.777 -17.509   0.229  0.00  0.00     0.011 A 
ENDBRANCH  22  25
ENDBRANCH   4  22
BRANCH  19  32
ATOM     32  C   UNL d   1      30.736 -16.386  -5.484  0.00  0.00     0.139 C 
BRANCH  32  33
ATOM     33  C   UNL d   1      30.462 -17.244  -6.724  0.00  0.00     0.059 C 
BRANCH  33  34
ATOM     34  C   UNL d   1      30.704 -18.734  -6.532  0.00  0.00    -0.057 A 
ATOM     35  C   UNL d   1      30.568 -19.339  -5.272  0.00  0.00     0.007 A 
ATOM     36  C   UNL d   1      31.014 -20.648  -5.057  0.00  0.00     0.001 A 
ATOM     37  C   UNL d   1      31.530 -21.396  -6.112  0.00  0.00     0.000 A 
ATOM     38  C   UNL d   1      31.572 -20.846  -7.390  0.00  0.00     0.001 A 
ATOM     39  C   UNL d   1      31.187 -19.516  -7.593  0.00  0.00     0.007 A 
ENDBRANCH  33  34
ENDBRANCH  32  33
ENDBRANCH  19  32
TORSDOF 6
ENDMDL
MODEL 2
REMARK VINA RESULT:    -9.015      4.821      7.807
REMARK INTER + INTRA:         -12.457
REMARK INTER:                 -10.805
REMARK INTRA:                  -1.652
REMARK CONF_INDEPENDENT:        1.790
REMARK UNBOUND:                -1.652
REMARK  6 active torsions:
REMARK  status: ('A' for Active; 'I' for Inactive)
REMARK    1  A    between atoms: C_4  and  C_5 
REMARK    2  A    between atoms: C_5  and  O_6 
REMARK    3  A    between atoms: C_5  and  C_7 
REMARK    4  A    between atoms: N_28  and  C_29 
REMARK    5  A    between atoms: C_29  and  C_30 
REMARK    6  A    between atoms: C_30  and  C_31 
ROOT
ATOM      1  O   UNL d   1      25.905 -14.581   0.439  0.00  0.00    -0.272 OA
ATOM      2  C   UNL d   1      27.081 -14.748   0.159  0.00  0.00     0.233 C 
ATOM      3  C   UNL d   1      28.196 -13.905   0.674  0.00  0.00     0.131 A 
ATOM      4  C   UNL d   1      28.546 -14.190   2.125  0.00  0.00     0.269 A 
ATOM      5  N   UNL d   1      29.958 -14.628   2.153  0.00  0.00     0.116 N 
ATOM      6  C   UNL d   1      30.520 -14.563   0.803  0.00  0.00     0.279 A 
ATOM      7  C   UNL d   1      31.722 -13.522   0.831  0.00  0.00     0.267 C 
ATOM      8  O   UNL d   1      31.762 -12.432   1.383  0.00  0.00    -0.270 OA
ATOM      9  N   UNL d   1      32.783 -14.100   0.141  0.00  0.00    -0.324 N 
ATOM     10  C   UNL d   1      32.527 -15.440  -0.112  0.00  0.00     0.044 A 
ATOM     11  C   UNL d   1      33.360 -16.353  -0.715  0.00  0.00     0.030 A 
ATOM     12  C   UNL d   1      32.864 -17.649  -0.885  0.00  0.00     0.002 A 
ATOM     13  C   UNL d   1      31.582 -18.005  -0.430  0.00  0.00     0.001 A 
ATOM     14  C   UNL d   1      30.781 -17.080   0.230  0.00  0.00     0.012 A 
ATOM     15  C   UNL d   1      31.257 -15.788   0.353  0.00  0.00     0.017 A 
ATOM     16  C   UNL d   1      29.404 -14.188  -0.182  0.00  0.00     0.147 A 
ATOM     17  C   UNL d   1      28.850 -15.256  -1.120  0.00  0.00     0.234 C 
ATOM     18  O   UNL d   1      29.433 -15.674  -2.113  0.00  0.00    -0.272 OA
ATOM     19  N   UNL d   1      27.598 -15.641  -0.718  0.00  0.00    -0.287 N 
ATOM     20  H   UNL d   1      30.113 -15.526   2.604  0.00  0.00     0.318 HD
ATOM     21  H   UNL d   1      33.672 -13.638   0.010  0.00  0.00     0.169 HD
ENDROOT
BRANCH   4  22
ATOM     22  C   UNL d   1      28.331 -12.952   3.077  0.00  0.00     0.185 C 
BRANCH  22  23
ATOM     23  O   UNL d   1      29.129 -11.869   2.572  0.00  0.00    -0.389 OA
ATOM     24  H   UNL d   1      30.050 -12.182   2.533  0.00  0.00     0.210 HD
ENDBRANCH  22  23
BRANCH  22  25
ATOM     25  C   UNL d   1      28.599 -13.169   4.567  0.00  0.00    -0.028 A 
ATOM     26  C   UNL d   1      28.024 -12.307   5.533  0.00  0.00     0.011 A 
ATOM     27  C   UNL d   1      28.154 -12.553   6.903  0.00  0.00     0.024 A 
ATOM     28  C   UNL d   1      28.953 -13.604   7.331  0.00  0.00     0.034 A 
ATOM     29 CL   UNL d   1      29.248 -13.822   9.010  0.00  0.00    -0.084 Cl
ATOM     30  C   UNL d   1      29.554 -14.451   6.403  0.00  0.00     0.024 A 
ATOM     31  C   UNL d   1      29.380 -14.234   5.032  0.00  0.00     0.011 A 
ENDBRANCH  22  25
ENDBRANCH   4  22
BRANCH  19  32
ATOM     32  C   UNL d   1      26.776 -16.692  -1.317  0.00  0.00     0.139 C 
BRANCH  32  33
ATOM     33  C   UNL d   1      26.144 -17.667  -0.318  0.00  0.00     0.059 C 
BRANCH  33  34
ATOM     34  C   UNL d   1      24.625 -17.730  -0.366  0.00  0.00    -0.057 A 
ATOM     35  C   UNL d   1      23.940 -18.949  -0.243  0.00  0.00     0.007 A 
ATOM     36  C   UNL d   1      22.570 -19.030  -0.519  0.00  0.00     0.001 A 
ATOM     37  C   UNL d   1      21.851 -17.884  -0.847  0.00  0.00     0.000 A 
ATOM     38  C   UNL d   1      22.496 -16.650  -0.868  0.00  0.00     0.001 A 
ATOM     39  C   UNL d   1      23.877 -16.577  -0.656  0.00  0.00     0.007 A 
ENDBRANCH  33  34
ENDBRANCH  32  33
ENDBRANCH  19  32
TORSDOF 6
ENDMDL
MODEL 3
REMARK VINA RESULT:    -8.932      2.322      4.507
REMARK INTER + INTRA:         -12.477
REMARK INTER:                 -10.721
REMARK INTRA:                  -1.756
REMARK CONF_INDEPENDENT:        1.790
REMARK UNBOUND:                -1.756
REMARK  6 active torsions:
REMARK  status: ('A' for Active; 'I' for Inactive)
REMARK    1  A    between atoms: C_4  and  C_5 
REMARK    2  A    between atoms: C_5  and  O_6 
REMARK    3  A    between atoms: C_5  and  C_7 
REMARK    4  A    between atoms: N_28  and  C_29 
REMARK    5  A    between atoms: C_29  and  C_30 
REMARK    6  A    between atoms: C_30  and  C_31 
ROOT
ATOM      1  O   UNL d   1      26.879 -15.322  -4.919  0.00  0.00    -0.272 OA
ATOM      2  C   UNL d   1      27.755 -15.507  -4.090  0.00  0.00     0.233 C 
ATOM      3  C   UNL d   1      27.603 -15.247  -2.632  0.00  0.00     0.131 A 
ATOM      4  C   UNL d   1      26.767 -16.296  -1.916  0.00  0.00     0.269 A 
ATOM      5  N   UNL d   1      27.630 -16.905  -0.882  0.00  0.00     0.116 N 
ATOM      6  C   UNL d   1      28.934 -16.240  -0.874  0.00  0.00     0.279 A 
ATOM      7  C   UNL d   1      29.125 -15.575   0.559  0.00  0.00     0.267 C 
ATOM      8  O   UNL d   1      28.304 -14.954   1.216  0.00  0.00    -0.270 OA
ATOM      9  N   UNL d   1      30.418 -15.873   0.980  0.00  0.00    -0.324 N 
ATOM     10  C   UNL d   1      30.993 -16.824   0.152  0.00  0.00     0.044 A 
ATOM     11  C   UNL d   1      32.230 -17.412   0.282  0.00  0.00     0.030 A 
ATOM     12  C   UNL d   1      32.603 -18.332  -0.703  0.00  0.00     0.002 A 
ATOM     13  C   UNL d   1      31.736 -18.660  -1.760  0.00  0.00     0.001 A 
ATOM     14  C   UNL d   1      30.467 -18.097  -1.839  0.00  0.00     0.012 A 
ATOM     15  C   UNL d   1      30.122 -17.154  -0.889  0.00  0.00     0.017 A 
ATOM     16  C   UNL d   1      28.985 -15.234  -2.031  0.00  0.00     0.147 A 
ATOM     17  C   UNL d   1      29.835 -15.554  -3.257  0.00  0.00     0.234 C 
ATOM     18  O   UNL d   1      31.058 -15.483  -3.288  0.00  0.00    -0.272 OA
ATOM     19  N   UNL d   1      29.036 -15.884  -4.320  0.00  0.00    -0.287 N 
ATOM     20  H   UNL d   1      27.702 -17.919  -0.935  0.00  0.00     0.318 HD
ATOM     21  H   UNL d   1      30.794 -15.561   1.864  0.00  0.00     0.169 HD
ENDROOT
BRANCH   4  22
ATOM     22  C   UNL d   1      25.451 -15.717  -1.271  0.00  0.00     0.185 C 
BRANCH  22  23
ATOM     23  O   UNL d   1      25.828 -14.992  -0.088  0.00  0.00    -0.389 OA
ATOM     24  H   UNL d   1      26.720 -14.636  -0.239  0.00  0.00     0.210 HD
ENDBRANCH  22  23
BRANCH  22  25
ATOM     25  C   UNL d   1      24.335 -16.716  -0.958  0.00  0.00    -0.028 A 
ATOM     26  C   UNL d   1      22.977 -16.325  -1.044  0.00  0.00     0.011 A 
ATOM     27  C   UNL d   1      21.939 -17.246  -0.882  0.00  0.00     0.024 A 
ATOM     28  C   UNL d   1      22.241 -18.552  -0.522  0.00  0.00     0.034 A 
ATOM     29 CL   UNL d   1      20.970 -19.654  -0.165  0.00  0.00    -0.084 Cl
ATOM     30  C   UNL d   1      23.567 -18.957  -0.402  0.00  0.00     0.024 A 
ATOM     31  C   UNL d   1      24.607 -18.046  -0.616  0.00  0.00     0.011 A 
ENDBRANCH  22  25
ENDBRANCH   4  22
BRANCH  19  32
ATOM     32  C   UNL d   1      29.482 -16.323  -5.641  0.00  0.00     0.139 C 
BRANCH  32  33
ATOM     33  C   UNL d   1      30.846 -17.021  -5.665  0.00  0.00     0.059 C 
BRANCH  33  34
ATOM     34  C   UNL d   1      30.822 -18.444  -6.202  0.00  0.00    -0.057 A 
ATOM     35  C   UNL d   1      30.937 -19.550  -5.344  0.00  0.00     0.007 A 
ATOM     36  C   UNL d   1      31.148 -20.834  -5.859  0.00  0.00     0.001 A 
ATOM     37  C   UNL d   1      31.172 -21.043  -7.236  0.00  0.00     0.000 A 
ATOM     38  C   UNL d   1      30.953 -19.973  -8.098  0.00  0.00     0.001 A 
ATOM     39  C   UNL d   1      30.807 -18.679  -7.586  0.00  0.00     0.007 A 
ENDBRANCH  33  34
ENDBRANCH  32  33
ENDBRANCH  19  32
TORSDOF 6
ENDMDL
MODEL 4
REMARK VINA RESULT:    -8.853      2.919      5.248
REMARK INTER + INTRA:         -12.252
REMARK INTER:                 -10.643
REMARK INTRA:                  -1.609
REMARK CONF_INDEPENDENT:        1.790
REMARK UNBOUND:                -1.609
REMARK  6 active torsions:
REMARK  status: ('A' for Active; 'I' for Inactive)
REMARK    1  A    between atoms: C_4  and  C_5 
REMARK    2  A    between atoms: C_5  and  O_6 
REMARK    3  A    between atoms: C_5  and  C_7 
REMARK    4  A    between atoms: N_28  and  C_29 
REMARK    5  A    between atoms: C_29  and  C_30 
REMARK    6  A    between atoms: C_30  and  C_31 
ROOT
ATOM      1  O   UNL d   1      28.003 -15.950  -3.762  0.00  0.00    -0.272 OA
ATOM      2  C   UNL d   1      29.012 -15.990  -3.077  0.00  0.00     0.233 C 
ATOM      3  C   UNL d   1      29.075 -15.580  -1.646  0.00  0.00     0.131 A 
ATOM      4  C   UNL d   1      28.447 -16.593  -0.702  0.00  0.00     0.269 A 
ATOM      5  N   UNL d   1      29.508 -17.032   0.229  0.00  0.00     0.116 N 
ATOM      6  C   UNL d   1      30.741 -16.293  -0.046  0.00  0.00     0.279 A 
ATOM      7  C   UNL d   1      31.108 -15.465   1.262  0.00  0.00     0.267 C 
ATOM      8  O   UNL d   1      30.357 -14.825   1.983  0.00  0.00    -0.270 OA
ATOM      9  N   UNL d   1      32.470 -15.637   1.489  0.00  0.00    -0.324 N 
ATOM     10  C   UNL d   1      32.977 -16.637   0.674  0.00  0.00     0.044 A 
ATOM     11  C   UNL d   1      34.261 -17.132   0.654  0.00  0.00     0.030 A 
ATOM     12  C   UNL d   1      34.541 -18.130  -0.284  0.00  0.00     0.002 A 
ATOM     13  C   UNL d   1      33.544 -18.623  -1.144  0.00  0.00     0.001 A 
ATOM     14  C   UNL d   1      32.240 -18.150  -1.065  0.00  0.00     0.012 A 
ATOM     15  C   UNL d   1      31.979 -17.131  -0.169  0.00  0.00     0.017 A 
ATOM     16  C   UNL d   1      30.530 -15.419  -1.289  0.00  0.00     0.147 A 
ATOM     17  C   UNL d   1      31.196 -15.820  -2.602  0.00  0.00     0.234 C 
ATOM     18  O   UNL d   1      32.389 -15.680  -2.843  0.00  0.00    -0.272 OA
ATOM     19  N   UNL d   1      30.265 -16.313  -3.479  0.00  0.00    -0.287 N 
ATOM     20  H   UNL d   1      29.649 -18.039   0.265  0.00  0.00     0.318 HD
ATOM     21  H   UNL d   1      32.957 -15.207   2.263  0.00  0.00     0.169 HD
ENDROOT
BRANCH   4  22
ATOM     22  C   UNL d   1      27.210 -16.026   0.093  0.00  0.00     0.185 C 
BRANCH  22  23
ATOM     23  O   UNL d   1      27.521 -16.103   1.495  0.00  0.00    -0.389 OA
ATOM     24  H   UNL d   1      28.402 -15.711   1.618  0.00  0.00     0.210 HD
ENDBRANCH  22  23
BRANCH  22  25
ATOM     25  C   UNL d   1      25.851 -16.667  -0.192  0.00  0.00    -0.028 A 
ATOM     26  C   UNL d   1      25.590 -18.004   0.196  0.00  0.00     0.011 A 
ATOM     27  C   UNL d   1      24.322 -18.572   0.057  0.00  0.00     0.024 A 
ATOM     28  C   UNL d   1      23.319 -17.849  -0.574  0.00  0.00     0.034 A 
ATOM     29 CL   UNL d   1      21.803 -18.593  -0.893  0.00  0.00    -0.084 Cl
ATOM     30  C   UNL d   1      23.555 -16.542  -0.993  0.00  0.00     0.024 A 
ATOM     31  C   UNL d   1      24.811 -15.956  -0.805  0.00  0.00     0.011 A 
ENDBRANCH  22  25
ENDBRANCH   4  22
BRANCH  19  32
ATOM     32  C   UNL d   1      30.527 -16.866  -4.806  0.00  0.00     0.139 C 
BRANCH  32  33
ATOM     33  C   UNL d   1      30.409 -18.391  -4.907  0.00  0.00     0.059 C 
BRANCH  33  34
ATOM     34  C   UNL d   1      30.899 -18.981  -6.220  0.00  0.00    -0.057 A 
ATOM     35  C   UNL d   1      31.157 -18.168  -7.335  0.00  0.00     0.007 A 
ATOM     36  C   UNL d   1      31.380 -18.734  -8.595  0.00  0.00     0.001 A 
ATOM     37  C   UNL d   1      31.423 -20.117  -8.746  0.00  0.00     0.000 A 
ATOM     38  C   UNL d   1      31.274 -20.936  -7.630  0.00  0.00     0.001 A 
ATOM     39  C   UNL d   1      30.988 -20.373  -6.382  0.00  0.00     0.007 A 
ENDBRANCH  33  34
ENDBRANCH  32  33
ENDBRANCH  19  32
TORSDOF 6
ENDMDL
MODEL 5
REMARK VINA RESULT:    -8.766      5.311      8.384
REMARK INTER + INTRA:         -12.312
REMARK INTER:                 -10.555
REMARK INTRA:                  -1.757
REMARK CONF_INDEPENDENT:        1.790
REMARK UNBOUND:                -1.757
REMARK  6 active torsions:
REMARK  status: ('A' for Active; 'I' for Inactive)
REMARK    1  A    between atoms: C_4  and  C_5 
REMARK    2  A    between atoms: C_5  and  O_6 
REMARK    3  A    between atoms: C_5  and  C_7 
REMARK    4  A    between atoms: N_28  and  C_29 
REMARK    5  A    between atoms: C_29  and  C_30 
REMARK    6  A    between atoms: C_30  and  C_31 
ROOT
ATOM      1  O   UNL d   1      26.941 -14.927   0.522  0.00  0.00    -0.272 OA
ATOM      2  C   UNL d   1      28.158 -14.959   0.605  0.00  0.00     0.233 C 
ATOM      3  C   UNL d   1      28.971 -14.010   1.415  0.00  0.00     0.131 A 
ATOM      4  C   UNL d   1      28.906 -14.284   2.909  0.00  0.00     0.269 A 
ATOM      5  N   UNL d   1      30.287 -14.566   3.358  0.00  0.00     0.116 N 
ATOM      6  C   UNL d   1      31.211 -14.413   2.234  0.00  0.00     0.279 A 
ATOM      7  C   UNL d   1      32.229 -13.247   2.603  0.00  0.00     0.267 C 
ATOM      8  O   UNL d   1      31.984 -12.171   3.127  0.00  0.00    -0.270 OA
ATOM      9  N   UNL d   1      33.503 -13.693   2.265  0.00  0.00    -0.324 N 
ATOM     10  C   UNL d   1      33.483 -15.046   1.966  0.00  0.00     0.044 A 
ATOM     11  C   UNL d   1      34.552 -15.852   1.648  0.00  0.00     0.030 A 
ATOM     12  C   UNL d   1      34.274 -17.190   1.356  0.00  0.00     0.002 A 
ATOM     13  C   UNL d   1      32.962 -17.693   1.416  0.00  0.00     0.001 A 
ATOM     14  C   UNL d   1      31.905 -16.874   1.797  0.00  0.00     0.012 A 
ATOM     15  C   UNL d   1      32.179 -15.541   2.039  0.00  0.00     0.017 A 
ATOM     16  C   UNL d   1      30.402 -14.142   0.959  0.00  0.00     0.147 A 
ATOM     17  C   UNL d   1      30.271 -15.245  -0.087  0.00  0.00     0.234 C 
ATOM     18  O   UNL d   1      31.163 -15.577  -0.858  0.00  0.00    -0.272 OA
ATOM     19  N   UNL d   1      29.006 -15.773  -0.068  0.00  0.00    -0.287 N 
ATOM     20  H   UNL d   1      30.399 -15.451   3.847  0.00  0.00     0.318 HD
ATOM     21  H   UNL d   1      34.335 -13.134   2.397  0.00  0.00     0.169 HD
ENDROOT
BRANCH   4  22
ATOM     22  C   UNL d   1      28.284 -13.096   3.738  0.00  0.00     0.185 C 
BRANCH  22  23
ATOM     23  O   UNL d   1      28.879 -11.876   3.265  0.00  0.00    -0.389 OA
ATOM     24  H   UNL d   1      29.838 -11.944   3.413  0.00  0.00     0.210 HD
ENDBRANCH  22  23
BRANCH  22  25
ATOM     25  C   UNL d   1      28.384 -13.188   5.262  0.00  0.00    -0.028 A 
ATOM     26  C   UNL d   1      28.836 -14.379   5.881  0.00  0.00     0.011 A 
ATOM     27  C   UNL d   1      29.052 -14.450   7.260  0.00  0.00     0.024 A 
ATOM     28  C   UNL d   1      28.715 -13.364   8.056  0.00  0.00     0.034 A 
ATOM     29 CL   UNL d   1      28.826 -13.494   9.767  0.00  0.00    -0.084 Cl
ATOM     30  C   UNL d   1      28.241 -12.190   7.477  0.00  0.00     0.024 A 
ATOM     31  C   UNL d   1      28.075 -12.103   6.091  0.00  0.00     0.011 A 
ENDBRANCH  22  25
ENDBRANCH   4  22
BRANCH  19  32
ATOM     32  C   UNL d   1      28.519 -16.895  -0.870  0.00  0.00     0.139 C 
BRANCH  32  33
ATOM     33  C   UNL d   1      27.541 -17.829  -0.148  0.00  0.00     0.059 C 
BRANCH  33  34
ATOM     34  C   UNL d   1      26.078 -17.611  -0.500  0.00  0.00    -0.057 A 
ATOM     35  C   UNL d   1      25.694 -16.691  -1.488  0.00  0.00     0.007 A 
ATOM     36  C   UNL d   1      24.351 -16.328  -1.643  0.00  0.00     0.001 A 
ATOM     37  C   UNL d   1      23.366 -16.932  -0.866  0.00  0.00     0.000 A 
ATOM     38  C   UNL d   1      23.721 -17.924   0.045  0.00  0.00     0.001 A 
ATOM     39  C   UNL d   1      25.068 -18.241   0.246  0.00  0.00     0.007 A 
ENDBRANCH  33  34
ENDBRANCH  32  33
ENDBRANCH  19  32
TORSDOF 6
ENDMDL
MODEL 6
REMARK VINA RESULT:    -8.683      3.496      6.450
REMARK INTER + INTRA:         -12.460
REMARK INTER:                 -10.473
REMARK INTRA:                  -1.987
REMARK CONF_INDEPENDENT:        1.790
REMARK UNBOUND:                -1.987
REMARK  6 active torsions:
REMARK  status: ('A' for Active; 'I' for Inactive)
REMARK    1  A    between atoms: C_4  and  C_5 
REMARK    2  A    between atoms: C_5  and  O_6 
REMARK    3  A    between atoms: C_5  and  C_7 
REMARK    4  A    between atoms: N_28  and  C_29 
REMARK    5  A    between atoms: C_29  and  C_30 
REMARK    6  A    between atoms: C_30  and  C_31 
ROOT
ATOM      1  O   UNL d   1      27.736 -12.435  -2.309  0.00  0.00    -0.272 OA
ATOM      2  C   UNL d   1      27.169 -13.505  -2.154  0.00  0.00     0.233 C 
ATOM      3  C   UNL d   1      27.717 -14.639  -1.358  0.00  0.00     0.131 A 
ATOM      4  C   UNL d   1      27.625 -14.422   0.143  0.00  0.00     0.269 A 
ATOM      5  N   UNL d   1      26.793 -15.516   0.688  0.00  0.00     0.116 N 
ATOM      6  C   UNL d   1      26.424 -16.437  -0.388  0.00  0.00     0.279 A 
ATOM      7  C   UNL d   1      27.037 -17.862  -0.033  0.00  0.00     0.267 C 
ATOM      8  O   UNL d   1      28.148 -18.115   0.408  0.00  0.00    -0.270 OA
ATOM      9  N   UNL d   1      26.042 -18.806  -0.268  0.00  0.00    -0.324 N 
ATOM     10  C   UNL d   1      24.821 -18.186  -0.484  0.00  0.00     0.044 A 
ATOM     11  C   UNL d   1      23.600 -18.785  -0.688  0.00  0.00     0.030 A 
ATOM     12  C   UNL d   1      22.508 -17.941  -0.911  0.00  0.00     0.002 A 
ATOM     13  C   UNL d   1      22.652 -16.542  -0.896  0.00  0.00     0.001 A 
ATOM     14  C   UNL d   1      23.885 -15.958  -0.629  0.00  0.00     0.012 A 
ATOM     15  C   UNL d   1      24.970 -16.797  -0.455  0.00  0.00     0.017 A 
ATOM     16  C   UNL d   1      26.923 -15.867  -1.722  0.00  0.00     0.147 A 
ATOM     17  C   UNL d   1      25.913 -15.278  -2.703  0.00  0.00     0.234 C 
ATOM     18  O   UNL d   1      25.155 -15.943  -3.398  0.00  0.00    -0.272 OA
ATOM     19  N   UNL d   1      26.010 -13.911  -2.725  0.00  0.00    -0.287 N 
ATOM     20  H   UNL d   1      25.994 -15.207   1.237  0.00  0.00     0.318 HD
ATOM     21  H   UNL d   1      26.179 -19.797  -0.124  0.00  0.00     0.169 HD
ENDROOT
BRANCH   4  22
ATOM     22  C   UNL d   1      29.028 -14.382   0.859  0.00  0.00     0.185 C 
BRANCH  22  23
ATOM     23  O   UNL d   1      29.735 -15.581   0.500  0.00  0.00    -0.389 OA
ATOM     24  H   UNL d   1      29.317 -16.317   0.979  0.00  0.00     0.210 HD
ENDBRANCH  22  23
BRANCH  22  25
ATOM     25  C   UNL d   1      29.026 -14.192   2.377  0.00  0.00    -0.028 A 
ATOM     26  C   UNL d   1      27.806 -14.160   3.095  0.00  0.00     0.011 A 
ATOM     27  C   UNL d   1      27.780 -14.110   4.492  0.00  0.00     0.024 A 
ATOM     28  C   UNL d   1      28.974 -13.979   5.188  0.00  0.00     0.034 A 
ATOM     29 CL   UNL d   1      28.946 -13.757   6.893  0.00  0.00    -0.084 Cl
ATOM     30  C   UNL d   1      30.187 -13.978   4.506  0.00  0.00     0.024 A 
ATOM     31  C   UNL d   1      30.214 -14.082   3.111  0.00  0.00     0.011 A 
ENDBRANCH  22  25
ENDBRANCH   4  22
BRANCH  19  32
ATOM     32  C   UNL d   1      25.163 -12.990  -3.481  0.00  0.00     0.139 C 
BRANCH  32  33
ATOM     33  C   UNL d   1      25.533 -12.839  -4.961  0.00  0.00     0.059 C 
BRANCH  33  34
ATOM     34  C   UNL d   1      26.925 -13.334  -5.322  0.00  0.00    -0.057 A 
ATOM     35  C   UNL d   1      27.969 -12.437  -5.600  0.00  0.00     0.007 A 
ATOM     36  C   UNL d   1      29.172 -12.891  -6.153  0.00  0.00     0.001 A 
ATOM     37  C   UNL d   1      29.377 -14.251  -6.366  0.00  0.00     0.000 A 
ATOM     38  C   UNL d   1      28.392 -15.162  -5.996  0.00  0.00     0.001 A 
ATOM     39  C   UNL d   1      27.165 -14.705  -5.503  0.00  0.00     0.007 A 
ENDBRANCH  33  34
ENDBRANCH  32  33
ENDBRANCH  19  32
TORSDOF 6
ENDMDL
MODEL 7
REMARK VINA RESULT:    -8.497      2.605      6.739
REMARK INTER + INTRA:         -12.393
REMARK INTER:                 -10.287
REMARK INTRA:                  -2.106
REMARK CONF_INDEPENDENT:        1.790
REMARK UNBOUND:                -2.106
REMARK  6 active torsions:
REMARK  status: ('A' for Active; 'I' for Inactive)
REMARK    1  A    between atoms: C_4  and  C_5 
REMARK    2  A    between atoms: C_5  and  O_6 
REMARK    3  A    between atoms: C_5  and  C_7 
REMARK    4  A    between atoms: N_28  and  C_29 
REMARK    5  A    between atoms: C_29  and  C_30 
REMARK    6  A    between atoms: C_30  and  C_31 
ROOT
ATOM      1  O   UNL d   1      29.711 -18.055  -0.565  0.00  0.00    -0.272 OA
ATOM      2  C   UNL d   1      29.203 -17.083  -1.101  0.00  0.00     0.233 C 
ATOM      3  C   UNL d   1      29.803 -16.346  -2.248  0.00  0.00     0.131 A 
ATOM      4  C   UNL d   1      29.677 -17.084  -3.571  0.00  0.00     0.269 A 
ATOM      5  N   UNL d   1      28.901 -16.215  -4.480  0.00  0.00     0.116 N 
ATOM      6  C   UNL d   1      28.599 -14.949  -3.812  0.00  0.00     0.279 A 
ATOM      7  C   UNL d   1      29.286 -13.785  -4.653  0.00  0.00     0.267 C 
ATOM      8  O   UNL d   1      30.403 -13.773  -5.147  0.00  0.00    -0.270 OA
ATOM      9  N   UNL d   1      28.350 -12.764  -4.782  0.00  0.00    -0.324 N 
ATOM     10  C   UNL d   1      27.099 -13.194  -4.366  0.00  0.00     0.044 A 
ATOM     11  C   UNL d   1      25.916 -12.492  -4.401  0.00  0.00     0.030 A 
ATOM     12  C   UNL d   1      24.782 -13.134  -3.896  0.00  0.00     0.002 A 
ATOM     13  C   UNL d   1      24.847 -14.450  -3.404  0.00  0.00     0.001 A 
ATOM     14  C   UNL d   1      26.041 -15.161  -3.433  0.00  0.00     0.012 A 
ATOM     15  C   UNL d   1      27.169 -14.505  -3.890  0.00  0.00     0.017 A 
ATOM     16  C   UNL d   1      29.084 -15.026  -2.359  0.00  0.00     0.147 A 
ATOM     17  C   UNL d   1      28.057 -15.162  -1.239  0.00  0.00     0.234 C 
ATOM     18  O   UNL d   1      27.347 -14.248  -0.836  0.00  0.00    -0.272 OA
ATOM     19  N   UNL d   1      28.077 -16.432  -0.724  0.00  0.00    -0.287 N 
ATOM     20  H   UNL d   1      28.078 -16.655  -4.886  0.00  0.00     0.318 HD
ATOM     21  H   UNL d   1      28.540 -11.902  -5.274  0.00  0.00     0.169 HD
ENDROOT
BRANCH   4  22
ATOM     22  C   UNL d   1      31.066 -17.461  -4.213  0.00  0.00     0.185 C 
BRANCH  22  23
ATOM     23  O   UNL d   1      31.873 -16.272  -4.235  0.00  0.00    -0.389 OA
ATOM     24  H   UNL d   1      31.468 -15.658  -4.872  0.00  0.00     0.210 HD
ENDBRANCH  22  23
BRANCH  22  25
ATOM     25  C   UNL d   1      31.035 -18.115  -5.596  0.00  0.00    -0.028 A 
ATOM     26  C   UNL d   1      31.359 -17.365  -6.753  0.00  0.00     0.011 A 
ATOM     27  C   UNL d   1      31.456 -17.965  -8.011  0.00  0.00     0.024 A 
ATOM     28  C   UNL d   1      31.125 -19.306  -8.150  0.00  0.00     0.034 A 
ATOM     29 CL   UNL d   1      31.087 -20.016  -9.715  0.00  0.00    -0.084 Cl
ATOM     30  C   UNL d   1      30.775 -20.061  -7.035  0.00  0.00     0.024 A 
ATOM     31  C   UNL d   1      30.729 -19.471  -5.767  0.00  0.00     0.011 A 
ENDBRANCH  22  25
ENDBRANCH   4  22
BRANCH  19  32
ATOM     32  C   UNL d   1      27.190 -16.967   0.308  0.00  0.00     0.139 C 
BRANCH  32  33
ATOM     33  C   UNL d   1      26.355 -18.178  -0.121  0.00  0.00     0.059 C 
BRANCH  33  34
ATOM     34  C   UNL d   1      24.865 -17.908  -0.255  0.00  0.00    -0.057 A 
ATOM     35  C   UNL d   1      23.925 -18.949  -0.188  0.00  0.00     0.007 A 
ATOM     36  C   UNL d   1      22.589 -18.728  -0.542  0.00  0.00     0.001 A 
ATOM     37  C   UNL d   1      22.157 -17.453  -0.894  0.00  0.00     0.000 A 
ATOM     38  C   UNL d   1      23.055 -16.389  -0.863  0.00  0.00     0.001 A 
ATOM     39  C   UNL d   1      24.404 -16.620  -0.572  0.00  0.00     0.007 A 
ENDBRANCH  33  34
ENDBRANCH  32  33
ENDBRANCH  19  32
TORSDOF 6
ENDMDL
MODEL 8
REMARK VINA RESULT:    -8.080      2.656      5.529
REMARK INTER + INTRA:         -12.891
REMARK INTER:                  -9.870
REMARK INTRA:                  -3.021
REMARK CONF_INDEPENDENT:        1.790
REMARK UNBOUND:                -3.021
REMARK  6 active torsions:
REMARK  status: ('A' for Active; 'I' for Inactive)
REMARK    1  A    between atoms: C_4  and  C_5 
REMARK    2  A    between atoms: C_5  and  O_6 
REMARK    3  A    between atoms: C_5  and  C_7 
REMARK    4  A    between atoms: N_28  and  C_29 
REMARK    5  A    between atoms: C_29  and  C_30 
REMARK    6  A    between atoms: C_30  and  C_31 
ROOT
ATOM      1  O   UNL d   1      26.597 -13.186   0.144  0.00  0.00    -0.272 OA
ATOM      2  C   UNL d   1      27.516 -13.728  -0.448  0.00  0.00     0.233 C 
ATOM      3  C   UNL d   1      27.930 -15.144  -0.241  0.00  0.00     0.131 A 
ATOM      4  C   UNL d   1      26.984 -16.148  -0.880  0.00  0.00     0.269 A 
ATOM      5  N   UNL d   1      27.773 -16.921  -1.863  0.00  0.00     0.116 N 
ATOM      6  C   UNL d   1      29.172 -16.495  -1.816  0.00  0.00     0.279 A 
ATOM      7  C   UNL d   1      30.045 -17.755  -1.389  0.00  0.00     0.267 C 
ATOM      8  O   UNL d   1      29.801 -18.580  -0.521  0.00  0.00    -0.270 OA
ATOM      9  N   UNL d   1      31.150 -17.795  -2.233  0.00  0.00    -0.324 N 
ATOM     10  C   UNL d   1      30.993 -16.903  -3.284  0.00  0.00     0.044 A 
ATOM     11  C   UNL d   1      31.842 -16.703  -4.348  0.00  0.00     0.030 A 
ATOM     12  C   UNL d   1      31.478 -15.720  -5.273  0.00  0.00     0.002 A 
ATOM     13  C   UNL d   1      30.282 -14.994  -5.134  0.00  0.00     0.001 A 
ATOM     14  C   UNL d   1      29.411 -15.255  -4.083  0.00  0.00     0.012 A 
ATOM     15  C   UNL d   1      29.798 -16.194  -3.145  0.00  0.00     0.017 A 
ATOM     16  C   UNL d   1      29.297 -15.306  -0.855  0.00  0.00     0.147 A 
ATOM     17  C   UNL d   1      29.524 -13.909  -1.427  0.00  0.00     0.234 C 
ATOM     18  O   UNL d   1      30.591 -13.512  -1.880  0.00  0.00    -0.272 OA
ATOM     19  N   UNL d   1      28.383 -13.157  -1.318  0.00  0.00    -0.287 N 
ATOM     20  H   UNL d   1      27.390 -16.922  -2.806  0.00  0.00     0.318 HD
ATOM     21  H   UNL d   1      31.868 -18.503  -2.167  0.00  0.00     0.169 HD
ENDROOT
BRANCH   4  22
ATOM     22  C   UNL d   1      26.295 -17.111   0.160  0.00  0.00     0.185 C 
BRANCH  22  23
ATOM     23  O   UNL d   1      27.144 -18.261   0.318  0.00  0.00    -0.389 OA
ATOM     24  H   UNL d   1      28.024 -17.937   0.578  0.00  0.00     0.210 HD
ENDBRANCH  22  23
BRANCH  22  25
ATOM     25  C   UNL d   1      24.858 -17.540  -0.140  0.00  0.00    -0.028 A 
ATOM     26  C   UNL d   1      24.505 -18.912  -0.145  0.00  0.00     0.011 A 
ATOM     27  C   UNL d   1      23.178 -19.325  -0.295  0.00  0.00     0.024 A 
ATOM     28  C   UNL d   1      22.197 -18.377  -0.552  0.00  0.00     0.034 A 
ATOM     29 CL   UNL d   1      20.591 -18.884  -0.895  0.00  0.00    -0.084 Cl
ATOM     30  C   UNL d   1      22.521 -17.024  -0.581  0.00  0.00     0.024 A 
ATOM     31  C   UNL d   1      23.841 -16.608  -0.378  0.00  0.00     0.011 A 
ENDBRANCH  22  25
ENDBRANCH   4  22
BRANCH  19  32
ATOM     32  C   UNL d   1      28.186 -11.798  -1.818  0.00  0.00     0.139 C 
BRANCH  32  33
ATOM     33  C   UNL d   1      26.906 -11.589  -2.636  0.00  0.00     0.059 C 
BRANCH  33  34
ATOM     34  C   UNL d   1      26.444 -12.810  -3.416  0.00  0.00    -0.057 A 
ATOM     35  C   UNL d   1      25.550 -13.738  -2.858  0.00  0.00     0.007 A 
ATOM     36  C   UNL d   1      25.313 -14.967  -3.484  0.00  0.00     0.001 A 
ATOM     37  C   UNL d   1      25.905 -15.256  -4.711  0.00  0.00     0.000 A 
ATOM     38  C   UNL d   1      26.710 -14.302  -5.328  0.00  0.00     0.001 A 
ATOM     39  C   UNL d   1      26.999 -13.100  -4.673  0.00  0.00     0.007 A 
ENDBRANCH  33  34
ENDBRANCH  32  33
ENDBRANCH  19  32
TORSDOF 6
ENDMDL
MODEL 9
REMARK VINA RESULT:    -7.995      4.545      7.422
REMARK INTER + INTRA:         -12.281
REMARK INTER:                  -9.785
REMARK INTRA:                  -2.496
REMARK CONF_INDEPENDENT:        1.790
REMARK UNBOUND:                -2.496
REMARK  6 active torsions:
REMARK  status: ('A' for Active; 'I' for Inactive)
REMARK    1  A    between atoms: C_4  and  C_5 
REMARK    2  A    between atoms: C_5  and  O_6 
REMARK    3  A    between atoms: C_5  and  C_7 
REMARK    4  A    between atoms: N_28  and  C_29 
REMARK    5  A    between atoms: C_29  and  C_30 
REMARK    6  A    between atoms: C_30  and  C_31 
ROOT
ATOM      1  O   UNL d   1      26.926 -12.856  -1.189  0.00  0.00    -0.272 OA
ATOM      2  C   UNL d   1      28.015 -13.214  -0.771  0.00  0.00     0.233 C 
ATOM      3  C   UNL d   1      28.471 -13.048   0.637  0.00  0.00     0.131 A 
ATOM      4  C   UNL d   1      27.828 -14.034   1.600  0.00  0.00     0.269 A 
ATOM      5  N   UNL d   1      28.921 -14.825   2.204  0.00  0.00     0.116 N 
ATOM      6  C   UNL d   1      30.211 -14.334   1.718  0.00  0.00     0.279 A 
ATOM      7  C   UNL d   1      31.032 -13.810   2.977  0.00  0.00     0.267 C 
ATOM      8  O   UNL d   1      30.625 -13.141   3.914  0.00  0.00    -0.270 OA
ATOM      9  N   UNL d   1      32.328 -14.302   2.855  0.00  0.00    -0.324 N 
ATOM     10  C   UNL d   1      32.396 -15.253   1.849  0.00  0.00     0.044 A 
ATOM     11  C   UNL d   1      33.488 -16.002   1.475  0.00  0.00     0.030 A 
ATOM     12  C   UNL d   1      33.316 -16.884   0.404  0.00  0.00     0.002 A 
ATOM     13  C   UNL d   1      32.073 -17.017  -0.239  0.00  0.00     0.001 A 
ATOM     14  C   UNL d   1      30.968 -16.293   0.194  0.00  0.00     0.012 A 
ATOM     15  C   UNL d   1      31.155 -15.389   1.223  0.00  0.00     0.017 A 
ATOM     16  C   UNL d   1      29.964 -13.258   0.653  0.00  0.00     0.147 A 
ATOM     17  C   UNL d   1      30.224 -13.590  -0.814  0.00  0.00     0.234 C 
ATOM     18  O   UNL d   1      31.338 -13.674  -1.317  0.00  0.00    -0.272 OA
ATOM     19  N   UNL d   1      29.040 -13.733  -1.488  0.00  0.00    -0.287 N 
ATOM     20  H   UNL d   1      28.817 -15.832   2.106  0.00  0.00     0.318 HD
ATOM     21  H   UNL d   1      33.055 -14.108   3.530  0.00  0.00     0.169 HD
ENDROOT
BRANCH   4  22
ATOM     22  C   UNL d   1      26.959 -13.342   2.718  0.00  0.00     0.185 C 
BRANCH  22  23
ATOM     23  O   UNL d   1      26.646 -12.013   2.267  0.00  0.00    -0.389 OA
ATOM     24  H   UNL d   1      26.503 -12.060   1.306  0.00  0.00     0.210 HD
ENDBRANCH  22  23
BRANCH  22  25
ATOM     25  C   UNL d   1      27.547 -13.307   4.130  0.00  0.00    -0.028 A 
ATOM     26  C   UNL d   1      27.880 -14.510   4.799  0.00  0.00     0.011 A 
ATOM     27  C   UNL d   1      28.529 -14.503   6.037  0.00  0.00     0.024 A 
ATOM     28  C   UNL d   1      28.757 -13.293   6.676  0.00  0.00     0.034 A 
ATOM     29 CL   UNL d   1      29.410 -13.278   8.267  0.00  0.00    -0.084 Cl
ATOM     30  C   UNL d   1      28.414 -12.095   6.054  0.00  0.00     0.024 A 
ATOM     31  C   UNL d   1      27.812 -12.102   4.792  0.00  0.00     0.011 A 
ENDBRANCH  22  25
ENDBRANCH   4  22
BRANCH  19  32
ATOM     32  C   UNL d   1      28.877 -14.123  -2.888  0.00  0.00     0.139 C 
BRANCH  32  33
ATOM     33  C   UNL d   1      28.359 -15.549  -3.106  0.00  0.00     0.059 C 
BRANCH  33  34
ATOM     34  C   UNL d   1      27.423 -16.058  -2.020  0.00  0.00    -0.057 A 
ATOM     35  C   UNL d   1      27.910 -16.772  -0.914  0.00  0.00     0.007 A 
ATOM     36  C   UNL d   1      27.032 -17.433  -0.047  0.00  0.00     0.001 A 
ATOM     37  C   UNL d   1      25.655 -17.329  -0.230  0.00  0.00     0.000 A 
ATOM     38  C   UNL d   1      25.155 -16.538  -1.261  0.00  0.00     0.001 A 
ATOM     39  C   UNL d   1      26.032 -15.929  -2.165  0.00  0.00     0.007 A 
ENDBRANCH  33  34
ENDBRANCH  32  33
ENDBRANCH  19  32
TORSDOF 6
ENDMDL
