MODEL 1
REMARK VINA RESULT:    -8.447      0.000      0.000
REMARK INTER + INTRA:         -13.432
REMARK INTER:                 -10.834
REMARK INTRA:                  -2.598
REMARK CONF_INDEPENDENT:        2.386
REMARK UNBOUND:                -2.598
REMARK  8 active torsions:
REMARK  status: ('A' for Active; 'I' for Inactive)
REMARK       I    between atoms: C_2  and  N_3 
REMARK       I    between atoms: C_2  and  N_12 
REMARK    1  A    between atoms: N_3  and  C_4 
REMARK    2  A    between atoms: C_4  and  C_5 
REMARK    3  A    between atoms: C_5  and  C_6 
REMARK    4  A    between atoms: C_6  and  N_7 
REMARK    5  A    between atoms: N_12  and  N_13 
REMARK       I    between atoms: N_13  and  C_14 
REMARK    6  A    between atoms: C_14  and  C_16 
REMARK    7  A    between atoms: C_21  and  C_22 
REMARK    8  A    between atoms: C_22  and  C_24 
ROOT
ATOM      1  N   UNL d   1      28.101 -14.998   2.259  0.00  0.00    -0.262 N 
ATOM      2  C   UNL d   1      27.193 -14.055   1.720  0.00  0.00     0.271 C 
ATOM      3  O   UNL d   1      26.555 -13.266   2.384  0.00  0.00    -0.266 OA
ATOM      4  H   UNL d   1      28.392 -15.764   1.682  0.00  0.00     0.190 HD
ENDROOT
BRANCH   1   5
ATOM      5  N   UNL d   1      28.123 -15.196   3.690  0.00  0.00    -0.249 N 
ATOM      6  C   UNL d   1      28.250 -14.237   4.694  0.00  0.00     0.334 C 
ATOM      7  O   UNL d   1      28.420 -14.563   5.867  0.00  0.00    -0.246 OA
ATOM      8  N   UNL d   1      28.275 -12.909   4.315  0.00  0.00    -0.342 N 
ATOM      9  H   UNL d   1      28.449 -12.774   3.339  0.00  0.00     0.164 HD
ATOM     10  H   UNL d   1      28.406 -16.136   3.982  0.00  0.00     0.192 HD
BRANCH   8  11
ATOM     11  C   UNL d   1      28.741 -11.853   5.246  0.00  0.00     0.126 C 
BRANCH  11  12
ATOM     12  C   UNL d   1      27.911 -11.828   6.535  0.00  0.00     0.040 C 
BRANCH  12  13
ATOM     13  C   UNL d   1      28.748 -11.630   7.800  0.00  0.00     0.130 C 
BRANCH  13  14
ATOM     14  N   UNL d   1      28.873 -12.862   8.614  0.00  0.00    -0.352 N 
ATOM     15  C   UNL d   1      28.154 -13.201   9.760  0.00  0.00     0.108 A 
ATOM     16  C   UNL d   1      28.566 -14.442  10.147  0.00  0.00     0.106 A 
ATOM     17  N   UNL d   1      29.529 -14.822   9.247  0.00  0.00    -0.361 N 
ATOM     18  C   UNL d   1      29.721 -13.870   8.328  0.00  0.00     0.182 A 
ATOM     19  H   UNL d   1      30.033 -15.706   9.271  0.00  0.00     0.166 HD
ENDBRANCH  13  14
ENDBRANCH  12  13
ENDBRANCH  11  12
ENDBRANCH   8  11
ENDBRANCH   1   5
BRANCH   2  20
ATOM     20  C   UNL d   1      26.980 -14.077   0.222  0.00  0.00     0.047 A 
ATOM     21  C   UNL d   1      27.141 -12.840  -0.439  0.00  0.00     0.018 A 
ATOM     22  C   UNL d   1      26.950 -12.717  -1.825  0.00  0.00     0.001 A 
ATOM     23  C   UNL d   1      26.634 -13.832  -2.588  0.00  0.00     0.001 A 
ATOM     24  C   UNL d   1      26.433 -15.052  -1.949  0.00  0.00     0.016 A 
ATOM     25  C   UNL d   1      26.562 -15.183  -0.544  0.00  0.00     0.030 A 
BRANCH  25  26
ATOM     26  C   UNL d   1      26.237 -16.538  -0.029  0.00  0.00     0.193 C 
ATOM     27  O   UNL d   1      27.066 -17.149   0.644  0.00  0.00    -0.287 OA
BRANCH  26  28
ATOM     28  C   UNL d   1      24.927 -17.179  -0.179  0.00  0.00     0.015 C 
ATOM     29  C   UNL d   1      23.877 -16.332  -0.524  0.00  0.00     0.015 C 
ATOM     30  C   UNL d   1      22.611 -16.871  -0.709  0.00  0.00     0.001 C 
ATOM     31  C   UNL d   1      22.437 -18.251  -0.782  0.00  0.00     0.000 C 
ATOM     32  C   UNL d   1      23.504 -19.098  -0.504  0.00  0.00     0.001 C 
ATOM     33  C   UNL d   1      24.732 -18.561  -0.114  0.00  0.00     0.015 C 
ENDBRANCH  26  28
ENDBRANCH  25  26
ENDBRANCH   2  20
TORSDOF 8
ENDMDL
MODEL 2
REMARK VINA RESULT:    -8.028      6.429      9.063
REMARK INTER + INTRA:         -12.949
REMARK INTER:                 -10.415
REMARK INTRA:                  -2.535
REMARK CONF_INDEPENDENT:        2.386
REMARK UNBOUND:                -2.535
REMARK  8 active torsions:
REMARK  status: ('A' for Active; 'I' for Inactive)
REMARK       I    between atoms: C_2  and  N_3 
REMARK       I    between atoms: C_2  and  N_12 
REMARK    1  A    between atoms: N_3  and  C_4 
REMARK    2  A    between atoms: C_4  and  C_5 
REMARK    3  A    between atoms: C_5  and  C_6 
REMARK    4  A    between atoms: C_6  and  N_7 
REMARK    5  A    between atoms: N_12  and  N_13 
REMARK       I    between atoms: N_13  and  C_14 
REMARK    6  A    between atoms: C_14  and  C_16 
REMARK    7  A    between atoms: C_21  and  C_22 
REMARK    8  A    between atoms: C_22  and  C_24 
ROOT
ATOM      1  N   UNL d   1      26.847 -12.987  -5.405  0.00  0.00    -0.262 N 
ATOM      2  C   UNL d   1      27.399 -14.160  -5.975  0.00  0.00     0.271 C 
ATOM      3  O   UNL d   1      26.813 -15.219  -6.059  0.00  0.00    -0.266 OA
ATOM      4  H   UNL d   1      27.468 -12.243  -5.152  0.00  0.00     0.190 HD
ENDROOT
BRANCH   1   5
ATOM      5  N   UNL d   1      25.600 -13.090  -4.684  0.00  0.00    -0.249 N 
ATOM      6  C   UNL d   1      25.201 -14.075  -3.781  0.00  0.00     0.334 C 
ATOM      7  O   UNL d   1      24.046 -14.127  -3.366  0.00  0.00    -0.246 OA
ATOM      8  N   UNL d   1      26.122 -15.048  -3.443  0.00  0.00    -0.342 N 
ATOM      9  H   UNL d   1      26.904 -15.094  -4.066  0.00  0.00     0.164 HD
ATOM     10  H   UNL d   1      24.818 -12.592  -5.119  0.00  0.00     0.192 HD
BRANCH   8  11
ATOM     11  C   UNL d   1      25.703 -16.304  -2.776  0.00  0.00     0.126 C 
BRANCH  11  12
ATOM     12  C   UNL d   1      26.256 -16.398  -1.348  0.00  0.00     0.040 C 
BRANCH  12  13
ATOM     13  C   UNL d   1      25.215 -16.102  -0.267  0.00  0.00     0.130 C 
BRANCH  13  14
ATOM     14  N   UNL d   1      24.105 -17.085  -0.243  0.00  0.00    -0.352 N 
ATOM     15  C   UNL d   1      22.784 -16.887  -0.645  0.00  0.00     0.108 A 
ATOM     16  C   UNL d   1      22.130 -18.074  -0.492  0.00  0.00     0.106 A 
ATOM     17  N   UNL d   1      23.053 -18.956   0.011  0.00  0.00    -0.361 N 
ATOM     18  C   UNL d   1      24.240 -18.362   0.168  0.00  0.00     0.182 A 
ATOM     19  H   UNL d   1      22.865 -19.931   0.236  0.00  0.00     0.166 HD
ENDBRANCH  13  14
ENDBRANCH  12  13
ENDBRANCH  11  12
ENDBRANCH   8  11
ENDBRANCH   1   5
BRANCH   2  20
ATOM     20  C   UNL d   1      28.830 -14.086  -6.463  0.00  0.00     0.047 A 
ATOM     21  C   UNL d   1      29.121 -13.030  -7.353  0.00  0.00     0.018 A 
ATOM     22  C   UNL d   1      30.405 -12.861  -7.898  0.00  0.00     0.001 A 
ATOM     23  C   UNL d   1      31.435 -13.717  -7.535  0.00  0.00     0.001 A 
ATOM     24  C   UNL d   1      31.158 -14.787  -6.690  0.00  0.00     0.016 A 
ATOM     25  C   UNL d   1      29.855 -15.009  -6.178  0.00  0.00     0.030 A 
BRANCH  25  26
ATOM     26  C   UNL d   1      29.729 -16.239  -5.355  0.00  0.00     0.193 C 
ATOM     27  O   UNL d   1      28.997 -16.238  -4.366  0.00  0.00    -0.287 OA
BRANCH  26  28
ATOM     28  C   UNL d   1      30.348 -17.522  -5.699  0.00  0.00     0.015 C 
ATOM     29  C   UNL d   1      30.369 -18.474  -4.683  0.00  0.00     0.015 C 
ATOM     30  C   UNL d   1      30.916 -19.723  -4.942  0.00  0.00     0.001 C 
ATOM     31  C   UNL d   1      31.220 -20.101  -6.248  0.00  0.00     0.000 C 
ATOM     32  C   UNL d   1      31.134 -19.169  -7.276  0.00  0.00     0.001 C 
ATOM     33  C   UNL d   1      30.781 -17.850  -6.986  0.00  0.00     0.015 C 
ENDBRANCH  26  28
ENDBRANCH  25  26
ENDBRANCH   2  20
TORSDOF 8
ENDMDL
MODEL 3
REMARK VINA RESULT:    -7.885      5.810      9.174
REMARK INTER + INTRA:         -12.938
REMARK INTER:                 -10.272
REMARK INTRA:                  -2.666
REMARK CONF_INDEPENDENT:        2.386
REMARK UNBOUND:                -2.666
REMARK  8 active torsions:
REMARK  status: ('A' for Active; 'I' for Inactive)
REMARK       I    between atoms: C_2  and  N_3 
REMARK       I    between atoms: C_2  and  N_12 
REMARK    1  A    between atoms: N_3  and  C_4 
REMARK    2  A    between atoms: C_4  and  C_5 
REMARK    3  A    between atoms: C_5  and  C_6 
REMARK    4  A    between atoms: C_6  and  N_7 
REMARK    5  A    between atoms: N_12  and  N_13 
REMARK       I    between atoms: N_13  and  C_14 
REMARK    6  A    between atoms: C_14  and  C_16 
REMARK    7  A    between atoms: C_21  and  C_22 
REMARK    8  A    between atoms: C_22  and  C_24 
ROOT
ATOM      1  N   UNL d   1      27.691 -16.994  -0.432  0.00  0.00    -0.262 N 
ATOM      2  C   UNL d   1      26.743 -17.953  -0.003  0.00  0.00     0.271 C 
ATOM      3  O   UNL d   1      27.030 -19.005   0.530  0.00  0.00    -0.266 OA
ATOM      4  H   UNL d   1      27.393 -16.284  -1.074  0.00  0.00     0.190 HD
ENDROOT
BRANCH   1   5
ATOM      5  N   UNL d   1      29.088 -17.359  -0.443  0.00  0.00    -0.249 N 
ATOM      6  C   UNL d   1      30.043 -17.098  -1.425  0.00  0.00     0.334 C 
ATOM      7  O   UNL d   1      31.158 -17.612  -1.380  0.00  0.00    -0.246 OA
ATOM      8  N   UNL d   1      29.663 -16.320  -2.501  0.00  0.00    -0.342 N 
ATOM      9  H   UNL d   1      28.671 -16.225  -2.596  0.00  0.00     0.164 HD
ATOM     10  H   UNL d   1      29.320 -18.159   0.152  0.00  0.00     0.192 HD
BRANCH   8  11
ATOM     11  C   UNL d   1      30.477 -16.270  -3.740  0.00  0.00     0.126 C 
BRANCH  11  12
ATOM     12  C   UNL d   1      29.640 -16.600  -4.981  0.00  0.00     0.040 C 
BRANCH  12  13
ATOM     13  C   UNL d   1      30.441 -17.264  -6.102  0.00  0.00     0.130 C 
BRANCH  13  14
ATOM     14  N   UNL d   1      30.602 -18.726  -5.915  0.00  0.00    -0.352 N 
ATOM     15  C   UNL d   1      30.672 -19.428  -4.711  0.00  0.00     0.108 A 
ATOM     16  C   UNL d   1      30.773 -20.752  -5.018  0.00  0.00     0.106 A 
ATOM     17  N   UNL d   1      30.780 -20.828  -6.388  0.00  0.00    -0.361 N 
ATOM     18  C   UNL d   1      30.685 -19.610  -6.930  0.00  0.00     0.182 A 
ATOM     19  H   UNL d   1      30.849 -21.690  -6.924  0.00  0.00     0.166 HD
ENDBRANCH  13  14
ENDBRANCH  12  13
ENDBRANCH  11  12
ENDBRANCH   8  11
ENDBRANCH   1   5
BRANCH   2  20
ATOM     20  C   UNL d   1      25.284 -17.656  -0.276  0.00  0.00     0.047 A 
ATOM     21  C   UNL d   1      24.391 -18.731  -0.075  0.00  0.00     0.018 A 
ATOM     22  C   UNL d   1      23.014 -18.596  -0.315  0.00  0.00     0.001 A 
ATOM     23  C   UNL d   1      22.491 -17.376  -0.719  0.00  0.00     0.001 A 
ATOM     24  C   UNL d   1      23.360 -16.316  -0.960  0.00  0.00     0.016 A 
ATOM     25  C   UNL d   1      24.760 -16.451  -0.783  0.00  0.00     0.030 A 
BRANCH  25  26
ATOM     26  C   UNL d   1      25.538 -15.242  -1.159  0.00  0.00     0.193 C 
ATOM     27  O   UNL d   1      26.189 -14.646  -0.302  0.00  0.00    -0.287 OA
BRANCH  26  28
ATOM     28  C   UNL d   1      25.675 -14.752  -2.533  0.00  0.00     0.015 C 
ATOM     29  C   UNL d   1      25.666 -13.367  -2.684  0.00  0.00     0.015 C 
ATOM     30  C   UNL d   1      25.818 -12.828  -3.953  0.00  0.00     0.001 C 
ATOM     31  C   UNL d   1      26.206 -13.634  -5.020  0.00  0.00     0.000 C 
ATOM     32  C   UNL d   1      26.281 -15.013  -4.853  0.00  0.00     0.001 C 
ATOM     33  C   UNL d   1      25.928 -15.582  -3.628  0.00  0.00     0.015 C 
ENDBRANCH  26  28
ENDBRANCH  25  26
ENDBRANCH   2  20
TORSDOF 8
ENDMDL
MODEL 4
REMARK VINA RESULT:    -7.160      2.185      3.062
REMARK INTER + INTRA:         -12.781
REMARK INTER:                  -9.546
REMARK INTRA:                  -3.235
REMARK CONF_INDEPENDENT:        2.386
REMARK UNBOUND:                -3.235
REMARK  8 active torsions:
REMARK  status: ('A' for Active; 'I' for Inactive)
REMARK       I    between atoms: C_2  and  N_3 
REMARK       I    between atoms: C_2  and  N_12 
REMARK    1  A    between atoms: N_3  and  C_4 
REMARK    2  A    between atoms: C_4  and  C_5 
REMARK    3  A    between atoms: C_5  and  C_6 
REMARK    4  A    between atoms: C_6  and  N_7 
REMARK    5  A    between atoms: N_12  and  N_13 
REMARK       I    between atoms: N_13  and  C_14 
REMARK    6  A    between atoms: C_14  and  C_16 
REMARK    7  A    between atoms: C_21  and  C_22 
REMARK    8  A    between atoms: C_22  and  C_24 
ROOT
ATOM      1  N   UNL d   1      27.894 -14.948   2.212  0.00  0.00    -0.262 N 
ATOM      2  C   UNL d   1      27.032 -14.026   1.570  0.00  0.00     0.271 C 
ATOM      3  O   UNL d   1      26.366 -13.195   2.152  0.00  0.00    -0.266 OA
ATOM      4  H   UNL d   1      28.208 -15.746   1.694  0.00  0.00     0.190 HD
ENDROOT
BRANCH   1   5
ATOM      5  N   UNL d   1      27.830 -15.068   3.650  0.00  0.00    -0.249 N 
ATOM      6  C   UNL d   1      27.885 -14.054   4.606  0.00  0.00     0.334 C 
ATOM      7  O   UNL d   1      27.986 -14.314   5.802  0.00  0.00    -0.246 OA
ATOM      8  N   UNL d   1      27.919 -12.749   4.157  0.00  0.00    -0.342 N 
ATOM      9  H   UNL d   1      28.151 -12.664   3.187  0.00  0.00     0.164 HD
ATOM     10  H   UNL d   1      28.105 -15.986   4.009  0.00  0.00     0.192 HD
BRANCH   8  11
ATOM     11  C   UNL d   1      28.315 -11.637   5.055  0.00  0.00     0.126 C 
BRANCH  11  12
ATOM     12  C   UNL d   1      29.674 -11.047   4.659  0.00  0.00     0.040 C 
BRANCH  12  13
ATOM     13  C   UNL d   1      30.807 -12.075   4.643  0.00  0.00     0.130 C 
BRANCH  13  14
ATOM     14  N   UNL d   1      30.743 -12.993   3.481  0.00  0.00    -0.352 N 
ATOM     15  C   UNL d   1      30.600 -12.655   2.135  0.00  0.00     0.108 A 
ATOM     16  C   UNL d   1      30.637 -13.814   1.418  0.00  0.00     0.106 A 
ATOM     17  N   UNL d   1      30.784 -14.825   2.334  0.00  0.00    -0.361 N 
ATOM     18  C   UNL d   1      30.840 -14.334   3.576  0.00  0.00     0.182 A 
ATOM     19  H   UNL d   1      30.841 -15.815   2.104  0.00  0.00     0.166 HD
ENDBRANCH  13  14
ENDBRANCH  12  13
ENDBRANCH  11  12
ENDBRANCH   8  11
ENDBRANCH   1   5
BRANCH   2  20
ATOM     20  C   UNL d   1      26.906 -14.127   0.065  0.00  0.00     0.047 A 
ATOM     21  C   UNL d   1      27.111 -12.928  -0.650  0.00  0.00     0.018 A 
ATOM     22  C   UNL d   1      27.001 -12.878  -2.049  0.00  0.00     0.001 A 
ATOM     23  C   UNL d   1      26.725 -14.031  -2.769  0.00  0.00     0.001 A 
ATOM     24  C   UNL d   1      26.480 -15.215  -2.079  0.00  0.00     0.016 A 
ATOM     25  C   UNL d   1      26.527 -15.271  -0.664  0.00  0.00     0.030 A 
BRANCH  25  26
ATOM     26  C   UNL d   1      26.165 -16.596  -0.098  0.00  0.00     0.193 C 
ATOM     27  O   UNL d   1      26.982 -17.208   0.590  0.00  0.00    -0.287 OA
BRANCH  26  28
ATOM     28  C   UNL d   1      24.835 -17.202  -0.213  0.00  0.00     0.015 C 
ATOM     29  C   UNL d   1      23.798 -16.325  -0.520  0.00  0.00     0.015 C 
ATOM     30  C   UNL d   1      22.514 -16.829  -0.672  0.00  0.00     0.001 C 
ATOM     31  C   UNL d   1      22.301 -18.203  -0.750  0.00  0.00     0.000 C 
ATOM     32  C   UNL d   1      23.353 -19.080  -0.510  0.00  0.00     0.001 C 
ATOM     33  C   UNL d   1      24.605 -18.578  -0.153  0.00  0.00     0.015 C 
ENDBRANCH  26  28
ENDBRANCH  25  26
ENDBRANCH   2  20
TORSDOF 8
ENDMDL
MODEL 5
REMARK VINA RESULT:    -7.124      5.840      8.835
REMARK INTER + INTRA:         -13.334
REMARK INTER:                  -9.510
REMARK INTRA:                  -3.824
REMARK CONF_INDEPENDENT:        2.386
REMARK UNBOUND:                -3.824
REMARK  8 active torsions:
REMARK  status: ('A' for Active; 'I' for Inactive)
REMARK       I    between atoms: C_2  and  N_3 
REMARK       I    between atoms: C_2  and  N_12 
REMARK    1  A    between atoms: N_3  and  C_4 
REMARK    2  A    between atoms: C_4  and  C_5 
REMARK    3  A    between atoms: C_5  and  C_6 
REMARK    4  A    between atoms: C_6  and  N_7 
REMARK    5  A    between atoms: N_12  and  N_13 
REMARK       I    between atoms: N_13  and  C_14 
REMARK    6  A    between atoms: C_14  and  C_16 
REMARK    7  A    between atoms: C_21  and  C_22 
REMARK    8  A    between atoms: C_22  and  C_24 
ROOT
ATOM      1  N   UNL d   1      28.182 -16.855  -0.223  0.00  0.00    -0.262 N 
ATOM      2  C   UNL d   1      27.183 -17.836  -0.016  0.00  0.00     0.271 C 
ATOM      3  O   UNL d   1      27.402 -18.954   0.402  0.00  0.00    -0.266 OA
ATOM      4  H   UNL d   1      27.959 -16.061  -0.794  0.00  0.00     0.190 HD
ENDROOT
BRANCH   1   5
ATOM      5  N   UNL d   1      29.569 -17.252  -0.146  0.00  0.00    -0.249 N 
ATOM      6  C   UNL d   1      30.619 -16.896  -0.991  0.00  0.00     0.334 C 
ATOM      7  O   UNL d   1      31.717 -17.440  -0.904  0.00  0.00    -0.246 OA
ATOM      8  N   UNL d   1      30.357 -15.981  -1.992  0.00  0.00    -0.342 N 
ATOM      9  H   UNL d   1      29.381 -15.848  -2.169  0.00  0.00     0.164 HD
ATOM     10  H   UNL d   1      29.730 -18.126   0.363  0.00  0.00     0.192 HD
BRANCH   8  11
ATOM     11  C   UNL d   1      31.290 -15.797  -3.130  0.00  0.00     0.126 C 
BRANCH  11  12
ATOM     12  C   UNL d   1      31.101 -16.882  -4.197  0.00  0.00     0.040 C 
BRANCH  12  13
ATOM     13  C   UNL d   1      29.657 -17.016  -4.685  0.00  0.00     0.130 C 
BRANCH  13  14
ATOM     14  N   UNL d   1      29.232 -15.895  -5.558  0.00  0.00    -0.352 N 
ATOM     15  C   UNL d   1      28.237 -14.951  -5.307  0.00  0.00     0.108 A 
ATOM     16  C   UNL d   1      28.223 -14.085  -6.360  0.00  0.00     0.106 A 
ATOM     17  N   UNL d   1      29.188 -14.525  -7.230  0.00  0.00    -0.361 N 
ATOM     18  C   UNL d   1      29.791 -15.619  -6.753  0.00  0.00     0.182 A 
ATOM     19  H   UNL d   1      29.416 -14.085  -8.118  0.00  0.00     0.166 HD
ENDBRANCH  13  14
ENDBRANCH  12  13
ENDBRANCH  11  12
ENDBRANCH   8  11
ENDBRANCH   1   5
BRANCH   2  20
ATOM     20  C   UNL d   1      25.763 -17.469  -0.388  0.00  0.00     0.047 A 
ATOM     21  C   UNL d   1      24.748 -18.172   0.296  0.00  0.00     0.018 A 
ATOM     22  C   UNL d   1      23.388 -17.944   0.029  0.00  0.00     0.001 A 
ATOM     23  C   UNL d   1      23.010 -16.981  -0.896  0.00  0.00     0.001 A 
ATOM     24  C   UNL d   1      23.996 -16.306  -1.609  0.00  0.00     0.016 A 
ATOM     25  C   UNL d   1      25.374 -16.566  -1.396  0.00  0.00     0.030 A 
BRANCH  25  26
ATOM     26  C   UNL d   1      26.279 -15.808  -2.297  0.00  0.00     0.193 C 
ATOM     27  O   UNL d   1      27.330 -16.322  -2.678  0.00  0.00    -0.287 OA
BRANCH  26  28
ATOM     28  C   UNL d   1      25.958 -14.496  -2.867  0.00  0.00     0.015 C 
ATOM     29  C   UNL d   1      26.557 -13.404  -2.243  0.00  0.00     0.015 C 
ATOM     30  C   UNL d   1      26.321 -12.131  -2.743  0.00  0.00     0.001 C 
ATOM     31  C   UNL d   1      25.695 -11.963  -3.976  0.00  0.00     0.000 C 
ATOM     32  C   UNL d   1      25.155 -13.063  -4.632  0.00  0.00     0.001 C 
ATOM     33  C   UNL d   1      25.209 -14.323  -4.033  0.00  0.00     0.015 C 
ENDBRANCH  26  28
ENDBRANCH  25  26
ENDBRANCH   2  20
TORSDOF 8
ENDMDL
MODEL 6
REMARK VINA RESULT:    -6.847      5.832      8.186
REMARK INTER + INTRA:         -12.546
REMARK INTER:                  -9.233
REMARK INTRA:                  -3.313
REMARK CONF_INDEPENDENT:        2.386
REMARK UNBOUND:                -3.313
REMARK  8 active torsions:
REMARK  status: ('A' for Active; 'I' for Inactive)
REMARK       I    between atoms: C_2  and  N_3 
REMARK       I    between atoms: C_2  and  N_12 
REMARK    1  A    between atoms: N_3  and  C_4 
REMARK    2  A    between atoms: C_4  and  C_5 
REMARK    3  A    between atoms: C_5  and  C_6 
REMARK    4  A    between atoms: C_6  and  N_7 
REMARK    5  A    between atoms: N_12  and  N_13 
REMARK       I    between atoms: N_13  and  C_14 
REMARK    6  A    between atoms: C_14  and  C_16 
REMARK    7  A    between atoms: C_21  and  C_22 
REMARK    8  A    between atoms: C_22  and  C_24 
ROOT
ATOM      1  N   UNL d   1      28.483 -16.431  -0.797  0.00  0.00    -0.262 N 
ATOM      2  C   UNL d   1      28.356 -16.469  -2.206  0.00  0.00     0.271 C 
ATOM      3  O   UNL d   1      29.106 -17.075  -2.942  0.00  0.00    -0.266 OA
ATOM      4  H   UNL d   1      27.986 -15.721  -0.292  0.00  0.00     0.190 HD
ENDROOT
BRANCH   1   5
ATOM      5  N   UNL d   1      29.688 -16.956  -0.196  0.00  0.00    -0.249 N 
ATOM      6  C   UNL d   1      31.012 -16.722  -0.567  0.00  0.00     0.334 C 
ATOM      7  O   UNL d   1      31.933 -17.366  -0.070  0.00  0.00    -0.246 OA
ATOM      8  N   UNL d   1      31.245 -15.811  -1.578  0.00  0.00    -0.342 N 
ATOM      9  H   UNL d   1      30.430 -15.591  -2.116  0.00  0.00     0.164 HD
ATOM     10  H   UNL d   1      29.555 -17.828   0.324  0.00  0.00     0.192 HD
BRANCH   8  11
ATOM     11  C   UNL d   1      32.557 -15.746  -2.266  0.00  0.00     0.126 C 
BRANCH  11  12
ATOM     12  C   UNL d   1      32.421 -15.199  -3.692  0.00  0.00     0.040 C 
BRANCH  12  13
ATOM     13  C   UNL d   1      31.563 -16.076  -4.606  0.00  0.00     0.130 C 
BRANCH  13  14
ATOM     14  N   UNL d   1      30.707 -15.292  -5.528  0.00  0.00    -0.352 N 
ATOM     15  C   UNL d   1      30.472 -13.917  -5.510  0.00  0.00     0.108 A 
ATOM     16  C   UNL d   1      29.661 -13.629  -6.568  0.00  0.00     0.106 A 
ATOM     17  N   UNL d   1      29.409 -14.824  -7.192  0.00  0.00    -0.361 N 
ATOM     18  C   UNL d   1      30.030 -15.827  -6.564  0.00  0.00     0.182 A 
ATOM     19  H   UNL d   1      28.828 -14.937  -8.020  0.00  0.00     0.166 HD
ENDBRANCH  13  14
ENDBRANCH  12  13
ENDBRANCH  11  12
ENDBRANCH   8  11
ENDBRANCH   1   5
BRANCH   2  20
ATOM     20  C   UNL d   1      27.237 -15.658  -2.823  0.00  0.00     0.047 A 
ATOM     21  C   UNL d   1      27.532 -15.049  -4.061  0.00  0.00     0.018 A 
ATOM     22  C   UNL d   1      26.589 -14.250  -4.730  0.00  0.00     0.001 A 
ATOM     23  C   UNL d   1      25.319 -14.077  -4.199  0.00  0.00     0.001 A 
ATOM     24  C   UNL d   1      25.023 -14.637  -2.960  0.00  0.00     0.016 A 
ATOM     25  C   UNL d   1      25.981 -15.395  -2.242  0.00  0.00     0.030 A 
BRANCH  25  26
ATOM     26  C   UNL d   1      25.516 -15.851  -0.907  0.00  0.00     0.193 C 
ATOM     27  O   UNL d   1      25.961 -15.317   0.108  0.00  0.00    -0.287 OA
BRANCH  26  28
ATOM     28  C   UNL d   1      24.459 -16.847  -0.704  0.00  0.00     0.015 C 
ATOM     29  C   UNL d   1      23.157 -16.392  -0.893  0.00  0.00     0.015 C 
ATOM     30  C   UNL d   1      22.104 -17.284  -0.743  0.00  0.00     0.001 C 
ATOM     31  C   UNL d   1      22.349 -18.651  -0.641  0.00  0.00     0.000 C 
ATOM     32  C   UNL d   1      23.655 -19.113  -0.520  0.00  0.00     0.001 C 
ATOM     33  C   UNL d   1      24.709 -18.200  -0.462  0.00  0.00     0.015 C 
ENDBRANCH  26  28
ENDBRANCH  25  26
ENDBRANCH   2  20
TORSDOF 8
ENDMDL
MODEL 7
REMARK VINA RESULT:    -6.392      5.628      7.723
REMARK INTER + INTRA:         -12.813
REMARK INTER:                  -8.778
REMARK INTRA:                  -4.035
REMARK CONF_INDEPENDENT:        2.386
REMARK UNBOUND:                -4.035
REMARK  8 active torsions:
REMARK  status: ('A' for Active; 'I' for Inactive)
REMARK       I    between atoms: C_2  and  N_3 
REMARK       I    between atoms: C_2  and  N_12 
REMARK    1  A    between atoms: N_3  and  C_4 
REMARK    2  A    between atoms: C_4  and  C_5 
REMARK    3  A    between atoms: C_5  and  C_6 
REMARK    4  A    between atoms: C_6  and  N_7 
REMARK    5  A    between atoms: N_12  and  N_13 
REMARK       I    between atoms: N_13  and  C_14 
REMARK    6  A    between atoms: C_14  and  C_16 
REMARK    7  A    between atoms: C_21  and  C_22 
REMARK    8  A    between atoms: C_22  and  C_24 
ROOT
ATOM      1  N   UNL d   1      27.681 -17.096  -0.486  0.00  0.00    -0.262 N 
ATOM      2  C   UNL d   1      26.721 -18.005   0.019  0.00  0.00     0.271 C 
ATOM      3  O   UNL d   1      26.996 -19.034   0.600  0.00  0.00    -0.266 OA
ATOM      4  H   UNL d   1      27.384 -16.413  -1.157  0.00  0.00     0.190 HD
ENDROOT
BRANCH   1   5
ATOM      5  N   UNL d   1      29.068 -17.498  -0.512  0.00  0.00    -0.249 N 
ATOM      6  C   UNL d   1      29.963 -17.449  -1.581  0.00  0.00     0.334 C 
ATOM      7  O   UNL d   1      31.069 -17.978  -1.508  0.00  0.00    -0.246 OA
ATOM      8  N   UNL d   1      29.529 -16.869  -2.756  0.00  0.00    -0.342 N 
ATOM      9  H   UNL d   1      28.535 -16.763  -2.808  0.00  0.00     0.164 HD
ATOM     10  H   UNL d   1      29.323 -18.183   0.205  0.00  0.00     0.192 HD
BRANCH   8  11
ATOM     11  C   UNL d   1      30.264 -17.068  -4.029  0.00  0.00     0.126 C 
BRANCH  11  12
ATOM     12  C   UNL d   1      30.091 -15.874  -4.975  0.00  0.00     0.040 C 
BRANCH  12  13
ATOM     13  C   UNL d   1      30.672 -14.569  -4.428  0.00  0.00     0.130 C 
BRANCH  13  14
ATOM     14  N   UNL d   1      30.086 -14.172  -3.125  0.00  0.00    -0.352 N 
ATOM     15  C   UNL d   1      30.761 -13.899  -1.935  0.00  0.00     0.108 A 
ATOM     16  C   UNL d   1      29.828 -13.531  -1.013  0.00  0.00     0.106 A 
ATOM     17  N   UNL d   1      28.614 -13.602  -1.648  0.00  0.00    -0.361 N 
ATOM     18  C   UNL d   1      28.766 -13.995  -2.916  0.00  0.00     0.182 A 
ATOM     19  H   UNL d   1      27.718 -13.387  -1.217  0.00  0.00     0.166 HD
ENDBRANCH  13  14
ENDBRANCH  12  13
ENDBRANCH  11  12
ENDBRANCH   8  11
ENDBRANCH   1   5
BRANCH   2  20
ATOM     20  C   UNL d   1      25.264 -17.685  -0.233  0.00  0.00     0.047 A 
ATOM     21  C   UNL d   1      24.354 -18.739   0.001  0.00  0.00     0.018 A 
ATOM     22  C   UNL d   1      22.975 -18.582  -0.215  0.00  0.00     0.001 A 
ATOM     23  C   UNL d   1      22.469 -17.358  -0.630  0.00  0.00     0.001 A 
ATOM     24  C   UNL d   1      23.354 -16.319  -0.905  0.00  0.00     0.016 A 
ATOM     25  C   UNL d   1      24.754 -16.478  -0.750  0.00  0.00     0.030 A 
BRANCH  25  26
ATOM     26  C   UNL d   1      25.547 -15.291  -1.160  0.00  0.00     0.193 C 
ATOM     27  O   UNL d   1      26.278 -14.734  -0.341  0.00  0.00    -0.287 OA
BRANCH  26  28
ATOM     28  C   UNL d   1      25.606 -14.779  -2.532  0.00  0.00     0.015 C 
ATOM     29  C   UNL d   1      25.473 -13.400  -2.668  0.00  0.00     0.015 C 
ATOM     30  C   UNL d   1      25.545 -12.839  -3.935  0.00  0.00     0.001 C 
ATOM     31  C   UNL d   1      25.974 -13.600  -5.020  0.00  0.00     0.000 C 
ATOM     32  C   UNL d   1      26.172 -14.968  -4.869  0.00  0.00     0.001 C 
ATOM     33  C   UNL d   1      25.901 -15.575  -3.641  0.00  0.00     0.015 C 
ENDBRANCH  26  28
ENDBRANCH  25  26
ENDBRANCH   2  20
TORSDOF 8
ENDMDL
MODEL 8
REMARK VINA RESULT:    -6.150      4.565      7.753
REMARK INTER + INTRA:         -12.573
REMARK INTER:                  -8.536
REMARK INTRA:                  -4.037
REMARK CONF_INDEPENDENT:        2.386
REMARK UNBOUND:                -4.037
REMARK  8 active torsions:
REMARK  status: ('A' for Active; 'I' for Inactive)
REMARK       I    between atoms: C_2  and  N_3 
REMARK       I    between atoms: C_2  and  N_12 
REMARK    1  A    between atoms: N_3  and  C_4 
REMARK    2  A    between atoms: C_4  and  C_5 
REMARK    3  A    between atoms: C_5  and  C_6 
REMARK    4  A    between atoms: C_6  and  N_7 
REMARK    5  A    between atoms: N_12  and  N_13 
REMARK       I    between atoms: N_13  and  C_14 
REMARK    6  A    between atoms: C_14  and  C_16 
REMARK    7  A    between atoms: C_21  and  C_22 
REMARK    8  A    between atoms: C_22  and  C_24 
ROOT
ATOM      1  N   UNL d   1      28.115 -15.993   0.486  0.00  0.00    -0.262 N 
ATOM      2  C   UNL d   1      26.944 -15.428  -0.073  0.00  0.00     0.271 C 
ATOM      3  O   UNL d   1      26.749 -14.236  -0.186  0.00  0.00    -0.266 OA
ATOM      4  H   UNL d   1      28.093 -16.954   0.768  0.00  0.00     0.190 HD
ENDROOT
BRANCH   1   5
ATOM      5  N   UNL d   1      29.049 -15.121   1.162  0.00  0.00    -0.249 N 
ATOM      6  C   UNL d   1      29.624 -13.940   0.694  0.00  0.00     0.334 C 
ATOM      7  O   UNL d   1      30.530 -13.386   1.312  0.00  0.00    -0.246 OA
ATOM      8  N   UNL d   1      29.209 -13.466  -0.535  0.00  0.00    -0.342 N 
ATOM      9  H   UNL d   1      28.717 -14.145  -1.082  0.00  0.00     0.164 HD
ATOM     10  H   UNL d   1      29.589 -15.575   1.904  0.00  0.00     0.192 HD
BRANCH   8  11
ATOM     11  C   UNL d   1      29.985 -12.433  -1.263  0.00  0.00     0.126 C 
BRANCH  11  12
ATOM     12  C   UNL d   1      29.571 -12.348  -2.737  0.00  0.00     0.040 C 
BRANCH  12  13
ATOM     13  C   UNL d   1      28.781 -11.084  -3.080  0.00  0.00     0.130 C 
BRANCH  13  14
ATOM     14  N   UNL d   1      27.497 -11.369  -3.765  0.00  0.00    -0.352 N 
ATOM     15  C   UNL d   1      27.172 -11.127  -5.100  0.00  0.00     0.108 A 
ATOM     16  C   UNL d   1      25.905 -11.588  -5.300  0.00  0.00     0.106 A 
ATOM     17  N   UNL d   1      25.482 -12.080  -4.091  0.00  0.00    -0.361 N 
ATOM     18  C   UNL d   1      26.435 -11.942  -3.164  0.00  0.00     0.182 A 
ATOM     19  H   UNL d   1      24.568 -12.493  -3.918  0.00  0.00     0.166 HD
ENDBRANCH  13  14
ENDBRANCH  12  13
ENDBRANCH  11  12
ENDBRANCH   8  11
ENDBRANCH   1   5
BRANCH   2  20
ATOM     20  C   UNL d   1      25.854 -16.383  -0.508  0.00  0.00     0.047 A 
ATOM     21  C   UNL d   1      25.583 -17.450   0.375  0.00  0.00     0.018 A 
ATOM     22  C   UNL d   1      24.612 -18.421   0.080  0.00  0.00     0.001 A 
ATOM     23  C   UNL d   1      23.861 -18.325  -1.082  0.00  0.00     0.001 A 
ATOM     24  C   UNL d   1      24.140 -17.303  -1.985  0.00  0.00     0.016 A 
ATOM     25  C   UNL d   1      25.158 -16.350  -1.733  0.00  0.00     0.030 A 
BRANCH  25  26
ATOM     26  C   UNL d   1      25.367 -15.379  -2.838  0.00  0.00     0.193 C 
ATOM     27  O   UNL d   1      24.540 -14.488  -3.030  0.00  0.00    -0.287 OA
BRANCH  26  28
ATOM     28  C   UNL d   1      26.569 -15.338  -3.676  0.00  0.00     0.015 C 
ATOM     29  C   UNL d   1      26.375 -14.915  -4.988  0.00  0.00     0.015 C 
ATOM     30  C   UNL d   1      27.471 -14.825  -5.835  0.00  0.00     0.001 C 
ATOM     31  C   UNL d   1      28.764 -14.925  -5.326  0.00  0.00     0.000 C 
ATOM     32  C   UNL d   1      28.958 -15.281  -3.996  0.00  0.00     0.001 C 
ATOM     33  C   UNL d   1      27.857 -15.575  -3.191  0.00  0.00     0.015 C 
ENDBRANCH  26  28
ENDBRANCH  25  26
ENDBRANCH   2  20
TORSDOF 8
ENDMDL
