MODEL 1
REMARK VINA RESULT:   -29.660      0.000      0.000
REMARK INTER + INTRA:         -32.083
REMARK INTER:                 -30.853
REMARK INTRA:                  -1.230
REMARK CONF_INDEPENDENT:        1.193
REMARK UNBOUND:                -1.230
REMARK  4 active torsions:
REMARK  status: ('A' for Active; 'I' for Inactive)
REMARK    1  A    between atoms: C_6  and  N_7 
REMARK       I    between atoms: N_7  and  C_8 
REMARK    2  A    between atoms: C_8  and  C_10 
REMARK    3  A    between atoms: C_10  and  N_12 
REMARK       I    between atoms: N_12  and  C_13 
REMARK    4  A    between atoms: C_13  and  C_15 
ROOT
ATOM      1  C   UNL d   1      24.061 -17.371  -0.399  0.00  0.00     0.173 C 
ATOM      2  C   UNL d   1      25.155 -18.257   0.179  0.00  0.00     0.042 C 
ENDROOT
BRANCH   1   3
ATOM      3  C   UNL d   1      22.805 -18.213  -0.727  0.00  0.00     0.245 C 
ATOM      4  N   UNL d   1      21.770 -18.252   0.204  0.00  0.00    -0.310 N 
ATOM      5  H   UNL d   1      21.816 -17.727   1.069  0.00  0.00     0.170 HD
ATOM      6  O   UNL d   1      22.802 -18.806  -1.812  0.00  0.00    -0.271 OA
BRANCH   4   7
ATOM      7  C   UNL d   1      20.570 -18.998   0.060  0.00  0.00     0.130 A 
ATOM      8  N   UNL d   1      19.905 -18.919  -1.117  0.00  0.00    -0.243 NA
ATOM      9  C   UNL d   1      18.754 -19.651  -1.234  0.00  0.00     0.119 A 
ATOM     10  C   UNL d   1      18.233 -20.474  -0.242  0.00  0.00     0.026 A 
ATOM     11  C   UNL d   1      18.927 -20.551   0.951  0.00  0.00    -0.057 A 
ATOM     12  C   UNL d   1      18.520 -21.412   2.105  0.00  0.00     0.048 C 
ATOM     13  C   UNL d   1      20.087 -19.792   1.089  0.00  0.00     0.057 A 
ENDBRANCH   4   7
ENDBRANCH   1   3
BRANCH   1  14
ATOM     14  N   UNL d   1      24.513 -16.737  -1.665  0.00  0.00    -0.344 N 
ATOM     15  C   UNL d   1      25.360 -15.655  -1.705  0.00  0.00     0.252 C 
ATOM     16  O   UNL d   1      25.789 -15.100  -0.691  0.00  0.00    -0.268 OA
ATOM     17  H   UNL d   1      24.207 -17.192  -2.524  0.00  0.00     0.163 HD
BRANCH  15  18
ATOM     18  C   UNL d   1      25.781 -15.129  -3.031  0.00  0.00     0.032 A 
ATOM     19  C   UNL d   1      26.996 -15.568  -3.580  0.00  0.00     0.017 A 
ATOM     20  C   UNL d   1      27.530 -14.941  -4.711  0.00  0.00     0.001 A 
ATOM     21  C   UNL d   1      26.825 -13.913  -5.332  0.00  0.00     0.000 A 
ATOM     22  C   UNL d   1      25.604 -13.489  -4.803  0.00  0.00     0.001 A 
ATOM     23  C   UNL d   1      25.081 -14.090  -3.651  0.00  0.00     0.017 A 
ENDBRANCH  15  18
ENDBRANCH   1  14
TORSDOF 4
ENDMDL
MODEL 2
REMARK VINA RESULT:   -28.945      2.435      3.303
REMARK INTER + INTRA:         -31.470
REMARK INTER:                 -30.138
REMARK INTRA:                  -1.333
REMARK CONF_INDEPENDENT:        1.193
REMARK UNBOUND:                -1.333
REMARK  4 active torsions:
REMARK  status: ('A' for Active; 'I' for Inactive)
REMARK    1  A    between atoms: C_6  and  N_7 
REMARK       I    between atoms: N_7  and  C_8 
REMARK    2  A    between atoms: C_8  and  C_10 
REMARK    3  A    between atoms: C_10  and  N_12 
REMARK       I    between atoms: N_12  and  C_13 
REMARK    4  A    between atoms: C_13  and  C_15 
ROOT
ATOM      1  C   UNL d   1      24.049 -17.033  -1.672  0.00  0.00     0.173 C 
ATOM      2  C   UNL d   1      23.496 -15.616  -1.645  0.00  0.00     0.042 C 
ENDROOT
BRANCH   1   3
ATOM      3  C   UNL d   1      23.143 -17.980  -0.850  0.00  0.00     0.245 C 
ATOM      4  N   UNL d   1      21.787 -18.040  -1.163  0.00  0.00    -0.310 N 
ATOM      5  H   UNL d   1      21.396 -17.499  -1.925  0.00  0.00     0.170 HD
ATOM      6  O   UNL d   1      23.690 -18.633   0.046  0.00  0.00    -0.271 OA
BRANCH   4   7
ATOM      7  C   UNL d   1      20.827 -18.837  -0.485  0.00  0.00     0.130 A 
ATOM      8  N   UNL d   1      19.784 -19.325  -1.196  0.00  0.00    -0.243 NA
ATOM      9  C   UNL d   1      18.874 -20.095  -0.522  0.00  0.00     0.119 A 
ATOM     10  C   UNL d   1      18.955 -20.418   0.827  0.00  0.00     0.026 A 
ATOM     11  C   UNL d   1      20.029 -19.918   1.539  0.00  0.00    -0.057 A 
ATOM     12  C   UNL d   1      20.279 -20.197   2.988  0.00  0.00     0.048 C 
ATOM     13  C   UNL d   1      20.949 -19.115   0.868  0.00  0.00     0.057 A 
ENDBRANCH   4   7
ENDBRANCH   1   3
BRANCH   1  14
ATOM     14  N   UNL d   1      25.405 -17.079  -1.065  0.00  0.00    -0.344 N 
ATOM     15  C   UNL d   1      26.481 -16.386  -1.568  0.00  0.00     0.252 C 
ATOM     16  O   UNL d   1      26.416 -15.694  -2.587  0.00  0.00    -0.268 OA
ATOM     17  H   UNL d   1      25.487 -17.612  -0.200  0.00  0.00     0.163 HD
BRANCH  15  18
ATOM     18  C   UNL d   1      27.782 -16.471  -0.853  0.00  0.00     0.032 A 
ATOM     19  C   UNL d   1      28.108 -15.476   0.082  0.00  0.00     0.017 A 
ATOM     20  C   UNL d   1      29.400 -15.399   0.611  0.00  0.00     0.001 A 
ATOM     21  C   UNL d   1      30.354 -16.350   0.256  0.00  0.00     0.000 A 
ATOM     22  C   UNL d   1      30.026 -17.357  -0.655  0.00  0.00     0.001 A 
ATOM     23  C   UNL d   1      28.744 -17.419  -1.215  0.00  0.00     0.017 A 
ENDBRANCH  15  18
ENDBRANCH   1  14
TORSDOF 4
ENDMDL
MODEL 3
REMARK VINA RESULT:   -28.866      2.478      3.340
REMARK INTER + INTRA:         -31.312
REMARK INTER:                 -30.059
REMARK INTRA:                  -1.253
REMARK CONF_INDEPENDENT:        1.193
REMARK UNBOUND:                -1.253
REMARK  4 active torsions:
REMARK  status: ('A' for Active; 'I' for Inactive)
REMARK    1  A    between atoms: C_6  and  N_7 
REMARK       I    between atoms: N_7  and  C_8 
REMARK    2  A    between atoms: C_8  and  C_10 
REMARK    3  A    between atoms: C_10  and  N_12 
REMARK       I    between atoms: N_12  and  C_13 
REMARK    4  A    between atoms: C_13  and  C_15 
ROOT
ATOM      1  C   UNL d   1      24.596 -18.015  -1.007  0.00  0.00     0.173 C 
ATOM      2  C   UNL d   1      24.249 -17.448  -2.375  0.00  0.00     0.042 C 
ENDROOT
BRANCH   1   3
ATOM      3  C   UNL d   1      23.307 -18.418  -0.250  0.00  0.00     0.245 C 
ATOM      4  N   UNL d   1      22.233 -18.914  -0.985  0.00  0.00    -0.310 N 
ATOM      5  H   UNL d   1      22.289 -19.035  -1.989  0.00  0.00     0.170 HD
ATOM      6  O   UNL d   1      23.316 -18.273   0.978  0.00  0.00    -0.271 OA
BRANCH   4   7
ATOM      7  C   UNL d   1      20.979 -19.299  -0.439  0.00  0.00     0.130 A 
ATOM      8  N   UNL d   1      19.905 -19.325  -1.262  0.00  0.00    -0.243 NA
ATOM      9  C   UNL d   1      18.708 -19.704  -0.715  0.00  0.00     0.119 A 
ATOM     10  C   UNL d   1      18.525 -20.075   0.612  0.00  0.00     0.026 A 
ATOM     11  C   UNL d   1      19.633 -20.050   1.439  0.00  0.00    -0.057 A 
ATOM     12  C   UNL d   1      19.613 -20.448   2.881  0.00  0.00     0.048 C 
ATOM     13  C   UNL d   1      20.851 -19.644   0.898  0.00  0.00     0.057 A 
ENDBRANCH   4   7
ENDBRANCH   1   3
BRANCH   1  14
ATOM     14  N   UNL d   1      25.297 -17.000  -0.179  0.00  0.00    -0.344 N 
ATOM     15  C   UNL d   1      26.328 -16.223  -0.651  0.00  0.00     0.252 C 
ATOM     16  O   UNL d   1      26.779 -16.330  -1.794  0.00  0.00    -0.268 OA
ATOM     17  H   UNL d   1      24.926 -16.858   0.760  0.00  0.00     0.163 HD
BRANCH  15  18
ATOM     18  C   UNL d   1      26.928 -15.207   0.253  0.00  0.00     0.032 A 
ATOM     19  C   UNL d   1      27.694 -15.640   1.347  0.00  0.00     0.017 A 
ATOM     20  C   UNL d   1      28.090 -14.736   2.338  0.00  0.00     0.001 A 
ATOM     21  C   UNL d   1      27.775 -13.384   2.209  0.00  0.00     0.000 A 
ATOM     22  C   UNL d   1      27.035 -12.945   1.110  0.00  0.00     0.001 A 
ATOM     23  C   UNL d   1      26.606 -13.852   0.133  0.00  0.00     0.017 A 
ENDBRANCH  15  18
ENDBRANCH   1  14
TORSDOF 4
ENDMDL
