MODEL 1
REMARK VINA RESULT:    -8.950      0.000      0.000
REMARK INTER + INTRA:         -11.442
REMARK INTER:                 -10.442
REMARK INTRA:                  -1.001
REMARK CONF_INDEPENDENT:        1.492
REMARK UNBOUND:                -1.001
REMARK  5 active torsions:
REMARK  status: ('A' for Active; 'I' for Inactive)
REMARK    1  A    between atoms: C_5  and  C_6 
REMARK    2  A    between atoms: C_9  and  S_10 
REMARK    3  A    between atoms: S_10  and  C_11 
REMARK    4  A    between atoms: C_11  and  C_12 
REMARK       I    between atoms: C_12  and  N_14 
REMARK    5  A    between atoms: N_14  and  C_15 
ROOT
ATOM      1  C   UNL d   1      27.132 -12.900  -1.834  0.00  0.00     0.229 C 
ATOM      2  O   UNL d   1      28.207 -13.290  -2.286  0.00  0.00    -0.273 OA
ATOM      3  N   UNL d   1      26.288 -12.067  -2.549  0.00  0.00    -0.330 N 
ATOM      4  H   UNL d   1      25.554 -11.551  -2.088  0.00  0.00     0.165 HD
ENDROOT
BRANCH   1   5
ATOM      5  C   UNL d   1      26.755 -13.279  -0.406  0.00  0.00     0.180 C 
BRANCH   5   6
ATOM      6  S   UNL d   1      28.088 -14.428   0.240  0.00  0.00    -0.112 SA
BRANCH   6   7
ATOM      7  C   UNL d   1      27.734 -16.009  -0.542  0.00  0.00     0.267 C 
ATOM      8  N   UNL d   1      27.805 -17.109   0.415  0.00  0.00    -0.279 N 
ATOM      9  N   UNL d   1      26.564 -17.667   0.630  0.00  0.00    -0.158 NA
ATOM     10  H   UNL d   1      28.476 -17.076   1.173  0.00  0.00     0.185 HD
ATOM     11  C   UNL d   1      25.780 -17.113  -0.280  0.00  0.00     0.157 C 
ATOM     12  N   UNL d   1      26.374 -16.090  -1.011  0.00  0.00    -0.337 N 
ATOM     13  C   UNL d   1      25.945 -15.558  -2.263  0.00  0.00     0.154 C 
BRANCH  11  14
ATOM     14  C   UNL d   1      24.386 -17.568  -0.488  0.00  0.00     0.011 A 
ATOM     15  C   UNL d   1      24.065 -18.921  -0.387  0.00  0.00     0.016 A 
ATOM     16  C   UNL d   1      22.732 -19.331  -0.520  0.00  0.00     0.007 A 
ATOM     17  C   UNL d   1      21.716 -18.396  -0.766  0.00  0.00    -0.062 A 
ATOM     18  C   UNL d   1      20.282 -18.819  -0.896  0.00  0.00     0.048 C 
ATOM     19  C   UNL d   1      22.054 -17.042  -0.892  0.00  0.00     0.007 A 
ATOM     20  C   UNL d   1      23.383 -16.632  -0.762  0.00  0.00     0.016 A 
ENDBRANCH  11  14
ENDBRANCH   6   7
ENDBRANCH   5   6
ENDBRANCH   1   5
BRANCH   3  21
ATOM     21  C   UNL d   1      26.436 -11.784  -3.974  0.00  0.00     0.264 C 
ATOM     22  O   UNL d   1      27.580 -10.900  -4.118  0.00  0.00    -0.353 OA
ATOM     23  C   UNL d   1      28.557 -11.544  -4.982  0.00  0.00     0.152 C 
ATOM     24  C   UNL d   1      27.969 -12.860  -5.318  0.00  0.00    -0.017 C 
ATOM     25  C   UNL d   1      29.890 -11.635  -4.264  0.00  0.00     0.044 C 
ATOM     26  C   UNL d   1      26.738 -12.932  -4.829  0.00  0.00     0.066 C 
ATOM     27  C   UNL d   1      28.633 -13.951  -6.060  0.00  0.00     0.105 C 
ATOM     28  C   UNL d   1      25.921 -14.126  -5.007  0.00  0.00     0.266 C 
ATOM     29  O   UNL d   1      24.742 -14.164  -4.640  0.00  0.00    -0.266 OA
ATOM     30  N   UNL d   1      26.565 -15.209  -5.557  0.00  0.00    -0.287 N 
ATOM     31  N   UNL d   1      27.851 -15.200  -6.154  0.00  0.00    -0.229 NA
ATOM     32  H   UNL d   1      26.070 -16.092  -5.478  0.00  0.00     0.184 HD
ATOM     33  H   UNL d   1      27.710 -15.427  -7.139  0.00  0.00     0.147 HD
ATOM     34  C   UNL d   1      28.901 -13.450  -7.473  0.00  0.00     0.033 C 
ENDBRANCH   3  21
TORSDOF 5
ENDMDL
MODEL 2
REMARK VINA RESULT:    -8.558      1.475      1.941
REMARK INTER + INTRA:         -11.364
REMARK INTER:                 -10.050
REMARK INTRA:                  -1.314
REMARK CONF_INDEPENDENT:        1.492
REMARK UNBOUND:                -1.314
REMARK  5 active torsions:
REMARK  status: ('A' for Active; 'I' for Inactive)
REMARK    1  A    between atoms: C_5  and  C_6 
REMARK    2  A    between atoms: C_9  and  S_10 
REMARK    3  A    between atoms: S_10  and  C_11 
REMARK    4  A    between atoms: C_11  and  C_12 
REMARK       I    between atoms: C_12  and  N_14 
REMARK    5  A    between atoms: N_14  and  C_15 
ROOT
ATOM      1  C   UNL d   1      28.678 -13.077  -3.189  0.00  0.00     0.229 C 
ATOM      2  O   UNL d   1      29.356 -12.590  -4.091  0.00  0.00    -0.273 OA
ATOM      3  N   UNL d   1      27.299 -13.167  -3.265  0.00  0.00    -0.330 N 
ATOM      4  H   UNL d   1      26.741 -13.320  -2.439  0.00  0.00     0.165 HD
ENDROOT
BRANCH   1   5
ATOM      5  C   UNL d   1      29.374 -13.522  -1.906  0.00  0.00     0.180 C 
BRANCH   5   6
ATOM      6  S   UNL d   1      28.040 -14.035  -0.694  0.00  0.00    -0.112 SA
BRANCH   6   7
ATOM      7  C   UNL d   1      27.748 -15.772  -1.058  0.00  0.00     0.267 C 
ATOM      8  N   UNL d   1      27.885 -16.601   0.136  0.00  0.00    -0.279 N 
ATOM      9  N   UNL d   1      26.674 -17.140   0.513  0.00  0.00    -0.158 NA
ATOM     10  H   UNL d   1      28.564 -16.356   0.846  0.00  0.00     0.185 HD
ATOM     11  C   UNL d   1      25.851 -16.859  -0.483  0.00  0.00     0.157 C 
ATOM     12  N   UNL d   1      26.385 -16.021  -1.457  0.00  0.00    -0.337 N 
ATOM     13  C   UNL d   1      25.913 -15.829  -2.789  0.00  0.00     0.154 C 
BRANCH  11  14
ATOM     14  C   UNL d   1      24.477 -17.407  -0.538  0.00  0.00     0.011 A 
ATOM     15  C   UNL d   1      23.392 -16.565  -0.778  0.00  0.00     0.016 A 
ATOM     16  C   UNL d   1      22.105 -17.106  -0.895  0.00  0.00     0.007 A 
ATOM     17  C   UNL d   1      21.892 -18.485  -0.759  0.00  0.00    -0.062 A 
ATOM     18  C   UNL d   1      20.520 -19.079  -0.896  0.00  0.00     0.048 C 
ATOM     19  C   UNL d   1      22.986 -19.318  -0.491  0.00  0.00     0.007 A 
ATOM     20  C   UNL d   1      24.270 -18.781  -0.374  0.00  0.00     0.016 A 
ENDBRANCH  11  14
ENDBRANCH   6   7
ENDBRANCH   5   6
ENDBRANCH   1   5
BRANCH   3  21
ATOM     21  C   UNL d   1      26.535 -12.955  -4.491  0.00  0.00     0.264 C 
ATOM     22  O   UNL d   1      26.219 -11.538  -4.559  0.00  0.00    -0.353 OA
ATOM     23  C   UNL d   1      26.780 -10.997  -5.788  0.00  0.00     0.152 C 
ATOM     24  C   UNL d   1      27.471 -12.136  -6.432  0.00  0.00    -0.017 C 
ATOM     25  C   UNL d   1      27.695  -9.831  -5.461  0.00  0.00     0.044 C 
ATOM     26  C   UNL d   1      27.235 -13.244  -5.743  0.00  0.00     0.066 C 
ATOM     27  C   UNL d   1      28.319 -12.074  -7.640  0.00  0.00     0.105 C 
ATOM     28  C   UNL d   1      27.799 -14.525  -6.150  0.00  0.00     0.266 C 
ATOM     29  O   UNL d   1      27.505 -15.575  -5.571  0.00  0.00    -0.266 OA
ATOM     30  N   UNL d   1      28.713 -14.471  -7.177  0.00  0.00    -0.287 N 
ATOM     31  N   UNL d   1      28.978 -13.346  -7.999  0.00  0.00    -0.229 NA
ATOM     32  H   UNL d   1      29.263 -15.314  -7.311  0.00  0.00     0.184 HD
ATOM     33  H   UNL d   1      28.695 -13.609  -8.943  0.00  0.00     0.147 HD
ATOM     34  C   UNL d   1      27.431 -11.654  -8.804  0.00  0.00     0.033 C 
ENDBRANCH   3  21
TORSDOF 5
ENDMDL
MODEL 3
REMARK VINA RESULT:    -8.340      4.405      7.038
REMARK INTER + INTRA:         -10.922
REMARK INTER:                  -9.831
REMARK INTRA:                  -1.091
REMARK CONF_INDEPENDENT:        1.492
REMARK UNBOUND:                -1.091
REMARK  5 active torsions:
REMARK  status: ('A' for Active; 'I' for Inactive)
REMARK    1  A    between atoms: C_5  and  C_6 
REMARK    2  A    between atoms: C_9  and  S_10 
REMARK    3  A    between atoms: S_10  and  C_11 
REMARK    4  A    between atoms: C_11  and  C_12 
REMARK       I    between atoms: C_12  and  N_14 
REMARK    5  A    between atoms: N_14  and  C_15 
ROOT
ATOM      1  C   UNL d   1      28.252 -13.784   1.960  0.00  0.00     0.229 C 
ATOM      2  O   UNL d   1      27.969 -12.655   2.354  0.00  0.00    -0.273 OA
ATOM      3  N   UNL d   1      29.339 -14.489   2.448  0.00  0.00    -0.330 N 
ATOM      4  H   UNL d   1      29.712 -15.282   1.949  0.00  0.00     0.165 HD
ENDROOT
BRANCH   1   5
ATOM      5  C   UNL d   1      27.424 -14.396   0.834  0.00  0.00     0.180 C 
BRANCH   5   6
ATOM      6  S   UNL d   1      28.608 -14.860  -0.543  0.00  0.00    -0.112 SA
BRANCH   6   7
ATOM      7  C   UNL d   1      28.013 -16.454  -1.129  0.00  0.00     0.267 C 
ATOM      8  N   UNL d   1      28.071 -17.466  -0.079  0.00  0.00    -0.279 N 
ATOM      9  N   UNL d   1      26.808 -17.861   0.306  0.00  0.00    -0.158 NA
ATOM     10  H   UNL d   1      28.817 -17.443   0.605  0.00  0.00     0.185 HD
ATOM     11  C   UNL d   1      25.994 -17.304  -0.575  0.00  0.00     0.157 C 
ATOM     12  N   UNL d   1      26.610 -16.422  -1.456  0.00  0.00    -0.337 N 
ATOM     13  C   UNL d   1      26.109 -15.957  -2.708  0.00  0.00     0.154 C 
BRANCH  11  14
ATOM     14  C   UNL d   1      24.546 -17.616  -0.605  0.00  0.00     0.011 A 
ATOM     15  C   UNL d   1      23.610 -16.595  -0.769  0.00  0.00     0.016 A 
ATOM     16  C   UNL d   1      22.249 -16.911  -0.863  0.00  0.00     0.007 A 
ATOM     17  C   UNL d   1      21.813 -18.241  -0.780  0.00  0.00    -0.062 A 
ATOM     18  C   UNL d   1      20.359 -18.593  -0.894  0.00  0.00     0.048 C 
ATOM     19  C   UNL d   1      22.760 -19.255  -0.588  0.00  0.00     0.007 A 
ATOM     20  C   UNL d   1      24.119 -18.943  -0.493  0.00  0.00     0.016 A 
ENDBRANCH  11  14
ENDBRANCH   6   7
ENDBRANCH   5   6
ENDBRANCH   1   5
BRANCH   3  21
ATOM     21  C   UNL d   1      30.092 -14.104   3.639  0.00  0.00     0.264 C 
ATOM     22  O   UNL d   1      31.102 -13.148   3.217  0.00  0.00    -0.353 OA
ATOM     23  C   UNL d   1      30.897 -11.906   3.947  0.00  0.00     0.152 C 
ATOM     24  C   UNL d   1      29.708 -12.146   4.793  0.00  0.00    -0.017 C 
ATOM     25  C   UNL d   1      30.731 -10.760   2.966  0.00  0.00     0.044 C 
ATOM     26  C   UNL d   1      29.334 -13.413   4.683  0.00  0.00     0.066 C 
ATOM     27  C   UNL d   1      29.008 -11.143   5.622  0.00  0.00     0.105 C 
ATOM     28  C   UNL d   1      28.179 -13.929   5.407  0.00  0.00     0.266 C 
ATOM     29  O   UNL d   1      27.884 -15.128   5.386  0.00  0.00    -0.266 OA
ATOM     30  N   UNL d   1      27.421 -12.987   6.063  0.00  0.00    -0.287 N 
ATOM     31  N   UNL d   1      27.777 -11.632   6.276  0.00  0.00    -0.229 NA
ATOM     32  H   UNL d   1      26.510 -13.308   6.377  0.00  0.00     0.184 HD
ATOM     33  H   UNL d   1      27.874 -11.517   7.286  0.00  0.00     0.147 HD
ATOM     34  C   UNL d   1      29.975 -10.688   6.707  0.00  0.00     0.033 C 
ENDBRANCH   3  21
TORSDOF 5
ENDMDL
MODEL 4
REMARK VINA RESULT:    -8.233      1.753      2.670
REMARK INTER + INTRA:         -11.448
REMARK INTER:                  -9.724
REMARK INTRA:                  -1.724
REMARK CONF_INDEPENDENT:        1.492
REMARK UNBOUND:                -1.724
REMARK  5 active torsions:
REMARK  status: ('A' for Active; 'I' for Inactive)
REMARK    1  A    between atoms: C_5  and  C_6 
REMARK    2  A    between atoms: C_9  and  S_10 
REMARK    3  A    between atoms: S_10  and  C_11 
REMARK    4  A    between atoms: C_11  and  C_12 
REMARK       I    between atoms: C_12  and  N_14 
REMARK    5  A    between atoms: N_14  and  C_15 
ROOT
ATOM      1  C   UNL d   1      28.314 -14.561  -2.524  0.00  0.00     0.229 C 
ATOM      2  O   UNL d   1      27.978 -13.395  -2.333  0.00  0.00    -0.273 OA
ATOM      3  N   UNL d   1      27.607 -15.409  -3.360  0.00  0.00    -0.330 N 
ATOM      4  H   UNL d   1      27.729 -16.409  -3.310  0.00  0.00     0.165 HD
ENDROOT
BRANCH   1   5
ATOM      5  C   UNL d   1      29.505 -15.117  -1.749  0.00  0.00     0.180 C 
BRANCH   5   6
ATOM      6  S   UNL d   1      29.035 -16.832  -1.154  0.00  0.00    -0.112 SA
BRANCH   6   7
ATOM      7  C   UNL d   1      27.736 -16.546   0.056  0.00  0.00     0.267 C 
ATOM      8  N   UNL d   1      27.048 -15.281  -0.183  0.00  0.00    -0.279 N 
ATOM      9  N   UNL d   1      25.745 -15.486  -0.579  0.00  0.00    -0.158 NA
ATOM     10  H   UNL d   1      27.562 -14.488  -0.547  0.00  0.00     0.185 HD
ATOM     11  C   UNL d   1      25.536 -16.780  -0.404  0.00  0.00     0.157 C 
ATOM     12  N   UNL d   1      26.668 -17.508  -0.056  0.00  0.00    -0.337 N 
ATOM     13  C   UNL d   1      26.716 -18.802   0.541  0.00  0.00     0.154 C 
BRANCH  11  14
ATOM     14  C   UNL d   1      24.192 -17.381  -0.568  0.00  0.00     0.011 A 
ATOM     15  C   UNL d   1      24.021 -18.761  -0.459  0.00  0.00     0.016 A 
ATOM     16  C   UNL d   1      22.736 -19.310  -0.549  0.00  0.00     0.007 A 
ATOM     17  C   UNL d   1      21.618 -18.490  -0.761  0.00  0.00    -0.062 A 
ATOM     18  C   UNL d   1      20.234 -19.065  -0.844  0.00  0.00     0.048 C 
ATOM     19  C   UNL d   1      21.806 -17.108  -0.895  0.00  0.00     0.007 A 
ATOM     20  C   UNL d   1      23.087 -16.558  -0.807  0.00  0.00     0.016 A 
ENDBRANCH  11  14
ENDBRANCH   6   7
ENDBRANCH   5   6
ENDBRANCH   1   5
BRANCH   3  21
ATOM     21  C   UNL d   1      26.576 -14.961  -4.291  0.00  0.00     0.264 C 
ATOM     22  O   UNL d   1      25.540 -14.314  -3.505  0.00  0.00    -0.353 OA
ATOM     23  C   UNL d   1      25.397 -12.942  -3.968  0.00  0.00     0.152 C 
ATOM     24  C   UNL d   1      26.409 -12.785  -5.035  0.00  0.00    -0.017 C 
ATOM     25  C   UNL d   1      25.583 -11.988  -2.802  0.00  0.00     0.044 C 
ATOM     26  C   UNL d   1      26.988 -13.955  -5.271  0.00  0.00     0.066 C 
ATOM     27  C   UNL d   1      26.761 -11.530  -5.730  0.00  0.00     0.105 C 
ATOM     28  C   UNL d   1      28.034 -14.095  -6.276  0.00  0.00     0.266 C 
ATOM     29  O   UNL d   1      28.507 -15.197  -6.569  0.00  0.00    -0.266 OA
ATOM     30  N   UNL d   1      28.487 -12.919  -6.827  0.00  0.00    -0.287 N 
ATOM     31  N   UNL d   1      27.891 -11.642  -6.675  0.00  0.00    -0.229 NA
ATOM     32  H   UNL d   1      29.352 -12.994  -7.354  0.00  0.00     0.184 HD
ATOM     33  H   UNL d   1      27.573 -11.362  -7.603  0.00  0.00     0.147 HD
ATOM     34  C   UNL d   1      25.533 -11.076  -6.508  0.00  0.00     0.033 C 
ENDBRANCH   3  21
TORSDOF 5
ENDMDL
MODEL 5
REMARK VINA RESULT:    -7.887      4.341      7.073
REMARK INTER + INTRA:         -11.246
REMARK INTER:                  -9.379
REMARK INTRA:                  -1.867
REMARK CONF_INDEPENDENT:        1.492
REMARK UNBOUND:                -1.867
REMARK  5 active torsions:
REMARK  status: ('A' for Active; 'I' for Inactive)
REMARK    1  A    between atoms: C_5  and  C_6 
REMARK    2  A    between atoms: C_9  and  S_10 
REMARK    3  A    between atoms: S_10  and  C_11 
REMARK    4  A    between atoms: C_11  and  C_12 
REMARK       I    between atoms: C_12  and  N_14 
REMARK    5  A    between atoms: N_14  and  C_15 
ROOT
ATOM      1  C   UNL d   1      29.478 -13.694   1.932  0.00  0.00     0.229 C 
ATOM      2  O   UNL d   1      30.176 -13.225   2.829  0.00  0.00    -0.273 OA
ATOM      3  N   UNL d   1      28.219 -14.218   2.171  0.00  0.00    -0.330 N 
ATOM      4  H   UNL d   1      27.771 -14.824   1.500  0.00  0.00     0.165 HD
ENDROOT
BRANCH   1   5
ATOM      5  C   UNL d   1      30.053 -13.776   0.521  0.00  0.00     0.180 C 
BRANCH   5   6
ATOM      6  S   UNL d   1      28.607 -13.844  -0.670  0.00  0.00    -0.112 SA
BRANCH   6   7
ATOM      7  C   UNL d   1      28.302 -15.600  -0.905  0.00  0.00     0.267 C 
ATOM      8  N   UNL d   1      28.383 -16.333   0.355  0.00  0.00    -0.279 N 
ATOM      9  N   UNL d   1      27.152 -16.826   0.728  0.00  0.00    -0.158 NA
ATOM     10  H   UNL d   1      29.040 -16.041   1.067  0.00  0.00     0.185 HD
ATOM     11  C   UNL d   1      26.369 -16.614  -0.317  0.00  0.00     0.157 C 
ATOM     12  N   UNL d   1      26.951 -15.864  -1.333  0.00  0.00    -0.337 N 
ATOM     13  C   UNL d   1      26.530 -15.774  -2.693  0.00  0.00     0.154 C 
BRANCH  11  14
ATOM     14  C   UNL d   1      24.990 -17.149  -0.379  0.00  0.00     0.011 A 
ATOM     15  C   UNL d   1      23.934 -16.328  -0.775  0.00  0.00     0.016 A 
ATOM     16  C   UNL d   1      22.645 -16.864  -0.894  0.00  0.00     0.007 A 
ATOM     17  C   UNL d   1      22.400 -18.214  -0.607  0.00  0.00    -0.062 A 
ATOM     18  C   UNL d   1      21.027 -18.803  -0.745  0.00  0.00     0.048 C 
ATOM     19  C   UNL d   1      23.463 -19.022  -0.185  0.00  0.00     0.007 A 
ATOM     20  C   UNL d   1      24.750 -18.491  -0.064  0.00  0.00     0.016 A 
ENDBRANCH  11  14
ENDBRANCH   6   7
ENDBRANCH   5   6
ENDBRANCH   1   5
BRANCH   3  21
ATOM     21  C   UNL d   1      27.484 -14.037   3.420  0.00  0.00     0.264 C 
ATOM     22  O   UNL d   1      27.964 -15.045   4.349  0.00  0.00    -0.353 OA
ATOM     23  C   UNL d   1      28.501 -14.374   5.523  0.00  0.00     0.152 C 
ATOM     24  C   UNL d   1      28.355 -12.928   5.244  0.00  0.00    -0.017 C 
ATOM     25  C   UNL d   1      29.936 -14.812   5.749  0.00  0.00     0.044 C 
ATOM     26  C   UNL d   1      27.690 -12.762   4.108  0.00  0.00     0.066 C 
ATOM     27  C   UNL d   1      28.878 -11.821   6.069  0.00  0.00     0.105 C 
ATOM     28  C   UNL d   1      27.406 -11.433   3.583  0.00  0.00     0.266 C 
ATOM     29  O   UNL d   1      26.705 -11.269   2.580  0.00  0.00    -0.266 OA
ATOM     30  N   UNL d   1      28.012 -10.391   4.247  0.00  0.00    -0.287 N 
ATOM     31  N   UNL d   1      28.685 -10.475   5.492  0.00  0.00    -0.229 NA
ATOM     32  H   UNL d   1      27.995  -9.501   3.760  0.00  0.00     0.184 HD
ATOM     33  H   UNL d   1      28.145  -9.910   6.148  0.00  0.00     0.147 HD
ATOM     34  C   UNL d   1      28.162 -11.870   7.412  0.00  0.00     0.033 C 
ENDBRANCH   3  21
TORSDOF 5
ENDMDL
MODEL 6
REMARK VINA RESULT:    -7.637      4.140      6.933
REMARK INTER + INTRA:         -11.323
REMARK INTER:                  -9.128
REMARK INTRA:                  -2.195
REMARK CONF_INDEPENDENT:        1.492
REMARK UNBOUND:                -2.195
REMARK  5 active torsions:
REMARK  status: ('A' for Active; 'I' for Inactive)
REMARK    1  A    between atoms: C_5  and  C_6 
REMARK    2  A    between atoms: C_9  and  S_10 
REMARK    3  A    between atoms: S_10  and  C_11 
REMARK    4  A    between atoms: C_11  and  C_12 
REMARK       I    between atoms: C_12  and  N_14 
REMARK    5  A    between atoms: N_14  and  C_15 
ROOT
ATOM      1  C   UNL d   1      28.116 -12.610   1.538  0.00  0.00     0.229 C 
ATOM      2  O   UNL d   1      27.343 -12.872   2.457  0.00  0.00    -0.273 OA
ATOM      3  N   UNL d   1      29.354 -12.029   1.753  0.00  0.00    -0.330 N 
ATOM      4  H   UNL d   1      29.859 -11.587   1.001  0.00  0.00     0.165 HD
ENDROOT
BRANCH   1   5
ATOM      5  C   UNL d   1      27.659 -12.858   0.103  0.00  0.00     0.180 C 
BRANCH   5   6
ATOM      6  S   UNL d   1      29.107 -13.607  -0.823  0.00  0.00    -0.112 SA
BRANCH   6   7
ATOM      7  C   UNL d   1      28.829 -15.382  -0.731  0.00  0.00     0.267 C 
ATOM      8  N   UNL d   1      28.757 -15.842   0.653  0.00  0.00    -0.279 N 
ATOM      9  N   UNL d   1      27.489 -16.277   0.970  0.00  0.00    -0.158 NA
ATOM     10  H   UNL d   1      29.324 -15.397   1.363  0.00  0.00     0.185 HD
ATOM     11  C   UNL d   1      26.838 -16.300  -0.181  0.00  0.00     0.157 C 
ATOM     12  N   UNL d   1      27.539 -15.757  -1.253  0.00  0.00    -0.337 N 
ATOM     13  C   UNL d   1      27.285 -15.953  -2.642  0.00  0.00     0.154 C 
BRANCH  11  14
ATOM     14  C   UNL d   1      25.475 -16.867  -0.295  0.00  0.00     0.011 A 
ATOM     15  C   UNL d   1      24.415 -16.069  -0.724  0.00  0.00     0.016 A 
ATOM     16  C   UNL d   1      23.144 -16.635  -0.892  0.00  0.00     0.007 A 
ATOM     17  C   UNL d   1      22.922 -17.993  -0.622  0.00  0.00    -0.062 A 
ATOM     18  C   UNL d   1      21.569 -18.614  -0.812  0.00  0.00     0.048 C 
ATOM     19  C   UNL d   1      23.989 -18.778  -0.166  0.00  0.00     0.007 A 
ATOM     20  C   UNL d   1      25.257 -18.216   0.003  0.00  0.00     0.016 A 
ENDBRANCH  11  14
ENDBRANCH   6   7
ENDBRANCH   5   6
ENDBRANCH   1   5
BRANCH   3  21
ATOM     21  C   UNL d   1      29.982 -11.912   3.066  0.00  0.00     0.264 C 
ATOM     22  O   UNL d   1      29.486 -10.688   3.671  0.00  0.00    -0.353 OA
ATOM     23  C   UNL d   1      28.829 -11.024   4.924  0.00  0.00     0.152 C 
ATOM     24  C   UNL d   1      28.920 -12.497   5.027  0.00  0.00    -0.017 C 
ATOM     25  C   UNL d   1      27.405 -10.498   4.910  0.00  0.00     0.044 C 
ATOM     26  C   UNL d   1      29.659 -12.965   4.030  0.00  0.00     0.066 C 
ATOM     27  C   UNL d   1      28.279 -13.344   6.053  0.00  0.00     0.105 C 
ATOM     28  C   UNL d   1      29.913 -14.392   3.878  0.00  0.00     0.266 C 
ATOM     29  O   UNL d   1      30.678 -14.826   3.012  0.00  0.00    -0.266 OA
ATOM     30  N   UNL d   1      29.206 -15.213   4.726  0.00  0.00    -0.287 N 
ATOM     31  N   UNL d   1      28.446 -14.797   5.848  0.00  0.00    -0.229 NA
ATOM     32  H   UNL d   1      29.213 -16.198   4.479  0.00  0.00     0.184 HD
ATOM     33  H   UNL d   1      28.905 -15.195   6.668  0.00  0.00     0.147 HD
ATOM     34  C   UNL d   1      28.894 -12.980   7.399  0.00  0.00     0.033 C 
ENDBRANCH   3  21
TORSDOF 5
ENDMDL
MODEL 7
REMARK VINA RESULT:    -7.295      1.802      2.778
REMARK INTER + INTRA:         -11.205
REMARK INTER:                  -8.787
REMARK INTRA:                  -2.419
REMARK CONF_INDEPENDENT:        1.492
REMARK UNBOUND:                -2.419
REMARK  5 active torsions:
REMARK  status: ('A' for Active; 'I' for Inactive)
REMARK    1  A    between atoms: C_5  and  C_6 
REMARK    2  A    between atoms: C_9  and  S_10 
REMARK    3  A    between atoms: S_10  and  C_11 
REMARK    4  A    between atoms: C_11  and  C_12 
REMARK       I    between atoms: C_12  and  N_14 
REMARK    5  A    between atoms: N_14  and  C_15 
ROOT
ATOM      1  C   UNL d   1      29.954 -14.488  -1.252  0.00  0.00     0.229 C 
ATOM      2  O   UNL d   1      29.613 -13.651  -0.419  0.00  0.00    -0.273 OA
ATOM      3  N   UNL d   1      29.757 -14.304  -2.610  0.00  0.00    -0.330 N 
ATOM      4  H   UNL d   1      29.795 -15.082  -3.252  0.00  0.00     0.165 HD
ENDROOT
BRANCH   1   5
ATOM      5  C   UNL d   1      30.540 -15.811  -0.766  0.00  0.00     0.180 C 
BRANCH   5   6
ATOM      6  S   UNL d   1      29.205 -17.115  -0.949  0.00  0.00    -0.112 SA
BRANCH   6   7
ATOM      7  C   UNL d   1      27.836 -16.498   0.041  0.00  0.00     0.267 C 
ATOM      8  N   UNL d   1      27.226 -15.318  -0.563  0.00  0.00    -0.279 N 
ATOM      9  N   UNL d   1      25.947 -15.584  -1.000  0.00  0.00    -0.158 NA
ATOM     10  H   UNL d   1      27.799 -14.657  -1.072  0.00  0.00     0.185 HD
ATOM     11  C   UNL d   1      25.667 -16.785  -0.523  0.00  0.00     0.157 C 
ATOM     12  N   UNL d   1      26.737 -17.429   0.089  0.00  0.00    -0.337 N 
ATOM     13  C   UNL d   1      26.684 -18.530   0.993  0.00  0.00     0.154 C 
BRANCH  11  14
ATOM     14  C   UNL d   1      24.313 -17.375  -0.638  0.00  0.00     0.011 A 
ATOM     15  C   UNL d   1      24.132 -18.751  -0.507  0.00  0.00     0.016 A 
ATOM     16  C   UNL d   1      22.838 -19.288  -0.551  0.00  0.00     0.007 A 
ATOM     17  C   UNL d   1      21.724 -18.458  -0.739  0.00  0.00    -0.062 A 
ATOM     18  C   UNL d   1      20.332 -19.019  -0.773  0.00  0.00     0.048 C 
ATOM     19  C   UNL d   1      21.921 -17.081  -0.896  0.00  0.00     0.007 A 
ATOM     20  C   UNL d   1      23.210 -16.543  -0.854  0.00  0.00     0.016 A 
ENDBRANCH  11  14
ENDBRANCH   6   7
ENDBRANCH   5   6
ENDBRANCH   1   5
BRANCH   3  21
ATOM     21  C   UNL d   1      29.384 -13.029  -3.215  0.00  0.00     0.264 C 
ATOM     22  O   UNL d   1      29.862 -13.049  -4.587  0.00  0.00    -0.353 OA
ATOM     23  C   UNL d   1      28.724 -12.868  -5.475  0.00  0.00     0.152 C 
ATOM     24  C   UNL d   1      27.547 -12.773  -4.584  0.00  0.00    -0.017 C 
ATOM     25  C   UNL d   1      28.657 -14.021  -6.459  0.00  0.00     0.044 C 
ATOM     26  C   UNL d   1      27.949 -12.762  -3.320  0.00  0.00     0.066 C 
ATOM     27  C   UNL d   1      26.132 -12.724  -5.006  0.00  0.00     0.105 C 
ATOM     28  C   UNL d   1      26.995 -12.682  -2.222  0.00  0.00     0.266 C 
ATOM     29  O   UNL d   1      27.365 -12.573  -1.049  0.00  0.00    -0.266 OA
ATOM     30  N   UNL d   1      25.671 -12.789  -2.577  0.00  0.00    -0.287 N 
ATOM     31  N   UNL d   1      25.156 -12.746  -3.898  0.00  0.00    -0.229 NA
ATOM     32  H   UNL d   1      25.028 -12.953  -1.808  0.00  0.00     0.184 HD
ATOM     33  H   UNL d   1      24.576 -11.908  -3.952  0.00  0.00     0.147 HD
ATOM     34  C   UNL d   1      25.932 -11.433  -5.790  0.00  0.00     0.033 C 
ENDBRANCH   3  21
TORSDOF 5
ENDMDL
MODEL 8
REMARK VINA RESULT:    -7.145      2.148      3.813
REMARK INTER + INTRA:         -10.820
REMARK INTER:                  -8.636
REMARK INTRA:                  -2.184
REMARK CONF_INDEPENDENT:        1.492
REMARK UNBOUND:                -2.184
REMARK  5 active torsions:
REMARK  status: ('A' for Active; 'I' for Inactive)
REMARK    1  A    between atoms: C_5  and  C_6 
REMARK    2  A    between atoms: C_9  and  S_10 
REMARK    3  A    between atoms: S_10  and  C_11 
REMARK    4  A    between atoms: C_11  and  C_12 
REMARK       I    between atoms: C_12  and  N_14 
REMARK    5  A    between atoms: N_14  and  C_15 
ROOT
ATOM      1  C   UNL d   1      28.893 -14.841  -4.899  0.00  0.00     0.229 C 
ATOM      2  O   UNL d   1      28.153 -15.606  -5.515  0.00  0.00    -0.273 OA
ATOM      3  N   UNL d   1      28.869 -13.470  -5.095  0.00  0.00    -0.330 N 
ATOM      4  H   UNL d   1      29.636 -12.888  -4.792  0.00  0.00     0.165 HD
ENDROOT
BRANCH   1   5
ATOM      5  C   UNL d   1      29.929 -15.430  -3.947  0.00  0.00     0.180 C 
BRANCH   5   6
ATOM      6  S   UNL d   1      29.050 -16.692  -2.874  0.00  0.00    -0.112 SA
BRANCH   6   7
ATOM      7  C   UNL d   1      27.790 -15.745  -2.008  0.00  0.00     0.267 C 
ATOM      8  N   UNL d   1      26.825 -15.162  -2.936  0.00  0.00    -0.279 N 
ATOM      9  N   UNL d   1      25.581 -15.734  -2.790  0.00  0.00    -0.158 NA
ATOM     10  H   UNL d   1      27.128 -14.853  -3.851  0.00  0.00     0.185 HD
ATOM     11  C   UNL d   1      25.675 -16.482  -1.703  0.00  0.00     0.157 C 
ATOM     12  N   UNL d   1      26.959 -16.580  -1.178  0.00  0.00    -0.337 N 
ATOM     13  C   UNL d   1      27.328 -16.987   0.139  0.00  0.00     0.154 C 
BRANCH  11  14
ATOM     14  C   UNL d   1      24.493 -17.147  -1.109  0.00  0.00     0.011 A 
ATOM     15  C   UNL d   1      23.272 -16.476  -1.034  0.00  0.00     0.016 A 
ATOM     16  C   UNL d   1      22.145 -17.140  -0.532  0.00  0.00     0.007 A 
ATOM     17  C   UNL d   1      22.233 -18.468  -0.090  0.00  0.00    -0.062 A 
ATOM     18  C   UNL d   1      21.029 -19.195   0.436  0.00  0.00     0.048 C 
ATOM     19  C   UNL d   1      23.470 -19.122  -0.145  0.00  0.00     0.007 A 
ATOM     20  C   UNL d   1      24.596 -18.462  -0.645  0.00  0.00     0.016 A 
ENDBRANCH  11  14
ENDBRANCH   6   7
ENDBRANCH   5   6
ENDBRANCH   1   5
BRANCH   3  21
ATOM     21  C   UNL d   1      27.818 -12.769  -5.826  0.00  0.00     0.264 C 
ATOM     22  O   UNL d   1      26.550 -13.344  -5.411  0.00  0.00    -0.353 OA
ATOM     23  C   UNL d   1      25.726 -12.287  -4.844  0.00  0.00     0.152 C 
ATOM     24  C   UNL d   1      26.563 -11.069  -4.905  0.00  0.00    -0.017 C 
ATOM     25  C   UNL d   1      25.303 -12.670  -3.438  0.00  0.00     0.044 C 
ATOM     26  C   UNL d   1      27.690 -11.337  -5.551  0.00  0.00     0.066 C 
ATOM     27  C   UNL d   1      26.233  -9.751  -4.323  0.00  0.00     0.105 C 
ATOM     28  C   UNL d   1      28.709 -10.316  -5.755  0.00  0.00     0.266 C 
ATOM     29  O   UNL d   1      29.714 -10.532  -6.439  0.00  0.00    -0.266 OA
ATOM     30  N   UNL d   1      28.498  -9.128  -5.094  0.00  0.00    -0.287 N 
ATOM     31  N   UNL d   1      27.304  -8.741  -4.435  0.00  0.00    -0.229 NA
ATOM     32  H   UNL d   1      29.300  -8.506  -5.057  0.00  0.00     0.184 HD
ATOM     33  H   UNL d   1      26.944  -7.934  -4.946  0.00  0.00     0.147 HD
ATOM     34  C   UNL d   1      25.003  -9.223  -5.050  0.00  0.00     0.033 C 
ENDBRANCH   3  21
TORSDOF 5
ENDMDL
MODEL 9
REMARK VINA RESULT:    -6.973      2.450      3.710
REMARK INTER + INTRA:         -10.908
REMARK INTER:                  -8.465
REMARK INTRA:                  -2.443
REMARK CONF_INDEPENDENT:        1.492
REMARK UNBOUND:                -2.443
REMARK  5 active torsions:
REMARK  status: ('A' for Active; 'I' for Inactive)
REMARK    1  A    between atoms: C_5  and  C_6 
REMARK    2  A    between atoms: C_9  and  S_10 
REMARK    3  A    between atoms: S_10  and  C_11 
REMARK    4  A    between atoms: C_11  and  C_12 
REMARK       I    between atoms: C_12  and  N_14 
REMARK    5  A    between atoms: N_14  and  C_15 
ROOT
ATOM      1  C   UNL d   1      29.149 -16.313  -4.870  0.00  0.00     0.229 C 
ATOM      2  O   UNL d   1      29.522 -16.331  -6.041  0.00  0.00    -0.273 OA
ATOM      3  N   UNL d   1      28.062 -15.566  -4.450  0.00  0.00    -0.330 N 
ATOM      4  H   UNL d   1      27.924 -15.351  -3.474  0.00  0.00     0.165 HD
ENDROOT
BRANCH   1   5
ATOM      5  C   UNL d   1      29.964 -17.076  -3.829  0.00  0.00     0.180 C 
BRANCH   5   6
ATOM      6  S   UNL d   1      30.944 -15.813  -2.849  0.00  0.00    -0.112 SA
BRANCH   6   7
ATOM      7  C   UNL d   1      29.965 -15.539  -1.365  0.00  0.00     0.267 C 
ATOM      8  N   UNL d   1      29.124 -14.352  -1.488  0.00  0.00    -0.279 N 
ATOM      9  N   UNL d   1      27.789 -14.686  -1.530  0.00  0.00    -0.158 NA
ATOM     10  H   UNL d   1      29.455 -13.551  -2.012  0.00  0.00     0.185 HD
ATOM     11  C   UNL d   1      27.751 -15.976  -1.240  0.00  0.00     0.157 C 
ATOM     12  N   UNL d   1      28.998 -16.586  -1.152  0.00  0.00    -0.337 N 
ATOM     13  C   UNL d   1      29.313 -17.825  -0.520  0.00  0.00     0.154 C 
BRANCH  11  14
ATOM     14  C   UNL d   1      26.472 -16.690  -1.025  0.00  0.00     0.011 A 
ATOM     15  C   UNL d   1      26.333 -17.581   0.038  0.00  0.00     0.016 A 
ATOM     16  C   UNL d   1      25.097 -18.199   0.270  0.00  0.00     0.007 A 
ATOM     17  C   UNL d   1      24.000 -17.942  -0.564  0.00  0.00    -0.062 A 
ATOM     18  C   UNL d   1      22.666 -18.586  -0.317  0.00  0.00     0.048 C 
ATOM     19  C   UNL d   1      24.158 -17.066  -1.645  0.00  0.00     0.007 A 
ATOM     20  C   UNL d   1      25.390 -16.450  -1.879  0.00  0.00     0.016 A 
ENDBRANCH  11  14
ENDBRANCH   6   7
ENDBRANCH   5   6
ENDBRANCH   1   5
BRANCH   3  21
ATOM     21  C   UNL d   1      27.098 -14.949  -5.356  0.00  0.00     0.264 C 
ATOM     22  O   UNL d   1      25.843 -14.835  -4.633  0.00  0.00    -0.353 OA
ATOM     23  C   UNL d   1      25.461 -13.431  -4.587  0.00  0.00     0.152 C 
ATOM     24  C   UNL d   1      26.552 -12.710  -5.278  0.00  0.00    -0.017 C 
ATOM     25  C   UNL d   1      25.262 -13.005  -3.144  0.00  0.00     0.044 C 
ATOM     26  C   UNL d   1      27.406 -13.585  -5.790  0.00  0.00     0.066 C 
ATOM     27  C   UNL d   1      26.706 -11.244  -5.376  0.00  0.00     0.105 C 
ATOM     28  C   UNL d   1      28.588 -13.151  -6.525  0.00  0.00     0.266 C 
ATOM     29  O   UNL d   1      29.334 -13.959  -7.087  0.00  0.00    -0.266 OA
ATOM     30  N   UNL d   1      28.838 -11.799  -6.500  0.00  0.00    -0.287 N 
ATOM     31  N   UNL d   1      27.954 -10.796  -6.028  0.00  0.00    -0.229 NA
ATOM     32  H   UNL d   1      29.763 -11.525  -6.817  0.00  0.00     0.184 HD
ATOM     33  H   UNL d   1      27.714 -10.222  -6.838  0.00  0.00     0.147 HD
ATOM     34  C   UNL d   1      25.530 -10.712  -6.184  0.00  0.00     0.033 C 
ENDBRANCH   3  21
TORSDOF 5
ENDMDL
