MODEL 1
REMARK VINA RESULT:   -29.596      0.000      0.000
REMARK INTER + INTRA:         -31.896
REMARK INTER:                 -31.385
REMARK INTRA:                  -0.510
REMARK CONF_INDEPENDENT:        1.790
REMARK UNBOUND:                -0.510
REMARK  6 active torsions:
REMARK  status: ('A' for Active; 'I' for Inactive)
REMARK    1  A    between atoms: N_1  and  S_2 
REMARK    2  A    between atoms: S_2  and  C_5 
REMARK    3  A    between atoms: C_8  and  C_9 
REMARK    4  A    between atoms: C_9  and  N_10 
REMARK       I    between atoms: N_10  and  C_11 
REMARK    5  A    between atoms: C_11  and  C_13 
REMARK    6  A    between atoms: C_15  and  N_16 
ROOT
ATOM      1  N   UNL d   1      26.806 -16.447  -0.755  0.00  0.00    -0.352 N 
ATOM      2  C   UNL d   1      26.985 -15.080  -0.764  0.00  0.00     0.254 C 
ATOM      3  O   UNL d   1      26.572 -14.336   0.116  0.00  0.00    -0.268 OA
ATOM      4  H   UNL d   1      27.152 -16.954  -1.553  0.00  0.00     0.163 HD
ENDROOT
BRANCH   2   5
ATOM      5  C   UNL d   1      27.776 -14.509  -1.904  0.00  0.00     0.070 A 
ATOM      6  C   UNL d   1      27.664 -15.128  -3.163  0.00  0.00     0.056 A 
ATOM      7  C   UNL d   1      28.386 -14.626  -4.261  0.00  0.00     0.106 A 
ATOM      8  C   UNL d   1      29.237 -13.526  -4.112  0.00  0.00     0.075 A 
ATOM      9  C   UNL d   1      29.371 -12.937  -2.854  0.00  0.00     0.105 A 
ATOM     10  C   UNL d   1      28.635 -13.408  -1.753  0.00  0.00     0.117 A 
ATOM     11  O   UNL d   1      30.247 -11.881  -2.783  0.00  0.00    -0.346 OA
ATOM     12  O   UNL d   1      28.753 -12.845  -0.506  0.00  0.00    -0.345 OA
ATOM     13  C   UNL d   1      29.378 -11.560  -0.541  0.00  0.00     0.202 C 
ATOM     14  C   UNL d   1      30.604 -11.567  -1.434  0.00  0.00     0.202 C 
BRANCH   7  15
ATOM     15  N   UNL d   1      28.248 -15.255  -5.585  0.00  0.00    -0.116 N 
ATOM     16  O   UNL d   1      27.145 -15.184  -6.145  0.00  0.00    -0.532 OA
ATOM     17  O   UNL d   1      29.240 -15.827  -6.056  0.00  0.00    -0.532 OA
ENDBRANCH   7  15
ENDBRANCH   2   5
BRANCH   1  18
ATOM     18  C   UNL d   1      26.042 -17.154   0.276  0.00  0.00     0.169 C 
BRANCH  18  19
ATOM     19  C   UNL d   1      24.592 -17.340  -0.143  0.00  0.00     0.002 A 
ATOM     20  C   UNL d   1      23.674 -16.380  -0.528  0.00  0.00     0.018 A 
ATOM     21  C   UNL d   1      22.407 -16.912  -0.870  0.00  0.00     0.033 A 
ATOM     22  C   UNL d   1      22.352 -18.283  -0.758  0.00  0.00     0.115 A 
ATOM     23  S   UNL d   1      23.847 -18.913  -0.196  0.00  0.00    -0.080 SA
BRANCH  22  24
ATOM     24  S   UNL d   1      20.990 -19.376  -1.105  0.00  0.00     0.245 S 
ATOM     25  O   UNL d   1      21.054 -20.395  -0.087  0.00  0.00    -0.206 OA
ATOM     26  O   UNL d   1      21.082 -19.700  -2.512  0.00  0.00    -0.206 OA
BRANCH  24  27
ATOM     27  N   UNL d   1      19.530 -18.575  -0.895  0.00  0.00    -0.225 NA
ATOM     28  H   UNL d   1      18.769 -19.197  -1.175  0.00  0.00     0.136 HD
ATOM     29  H   UNL d   1      19.513 -17.705  -1.425  0.00  0.00     0.136 HD
ENDBRANCH  24  27
ENDBRANCH  22  24
ENDBRANCH  18  19
ENDBRANCH   1  18
TORSDOF 6
ENDMDL
MODEL 2
REMARK VINA RESULT:   -29.273      2.336      3.048
REMARK INTER + INTRA:         -32.229
REMARK INTER:                 -31.062
REMARK INTRA:                  -1.167
REMARK CONF_INDEPENDENT:        1.790
REMARK UNBOUND:                -1.167
REMARK  6 active torsions:
REMARK  status: ('A' for Active; 'I' for Inactive)
REMARK    1  A    between atoms: N_1  and  S_2 
REMARK    2  A    between atoms: S_2  and  C_5 
REMARK    3  A    between atoms: C_8  and  C_9 
REMARK    4  A    between atoms: C_9  and  N_10 
REMARK       I    between atoms: N_10  and  C_11 
REMARK    5  A    between atoms: C_11  and  C_13 
REMARK    6  A    between atoms: C_15  and  N_16 
ROOT
ATOM      1  N   UNL d   1      26.341 -16.175  -1.263  0.00  0.00    -0.352 N 
ATOM      2  C   UNL d   1      26.857 -15.305  -2.199  0.00  0.00     0.254 C 
ATOM      3  O   UNL d   1      26.395 -14.192  -2.419  0.00  0.00    -0.268 OA
ATOM      4  H   UNL d   1      26.777 -17.080  -1.197  0.00  0.00     0.163 HD
ENDROOT
BRANCH   2   5
ATOM      5  C   UNL d   1      28.083 -15.755  -2.937  0.00  0.00     0.070 A 
ATOM      6  C   UNL d   1      28.226 -15.366  -4.282  0.00  0.00     0.056 A 
ATOM      7  C   UNL d   1      29.360 -15.763  -5.014  0.00  0.00     0.106 A 
ATOM      8  C   UNL d   1      30.344 -16.563  -4.425  0.00  0.00     0.075 A 
ATOM      9  C   UNL d   1      30.182 -16.975  -3.101  0.00  0.00     0.105 A 
ATOM     10  C   UNL d   1      29.068 -16.563  -2.347  0.00  0.00     0.117 A 
ATOM     11  O   UNL d   1      31.175 -17.782  -2.604  0.00  0.00    -0.346 OA
ATOM     12  O   UNL d   1      28.887 -16.958  -1.045  0.00  0.00    -0.345 OA
ATOM     13  C   UNL d   1      30.080 -17.484  -0.460  0.00  0.00     0.202 C 
ATOM     14  C   UNL d   1      30.778 -18.447  -1.401  0.00  0.00     0.202 C 
BRANCH   7  15
ATOM     15  N   UNL d   1      29.524 -15.334  -6.412  0.00  0.00    -0.116 N 
ATOM     16  O   UNL d   1      30.675 -15.119  -6.819  0.00  0.00    -0.532 OA
ATOM     17  O   UNL d   1      28.502 -15.202  -7.097  0.00  0.00    -0.532 OA
ENDBRANCH   7  15
ENDBRANCH   2   5
BRANCH   1  18
ATOM     18  C   UNL d   1      25.138 -15.891  -0.475  0.00  0.00     0.169 C 
BRANCH  18  19
ATOM     19  C   UNL d   1      24.228 -17.107  -0.402  0.00  0.00     0.002 A 
ATOM     20  C   UNL d   1      24.561 -18.444  -0.519  0.00  0.00     0.018 A 
ATOM     21  C   UNL d   1      23.455 -19.319  -0.385  0.00  0.00     0.033 A 
ATOM     22  C   UNL d   1      22.271 -18.655  -0.155  0.00  0.00     0.115 A 
ATOM     23  S   UNL d   1      22.513 -16.955  -0.141  0.00  0.00    -0.080 SA
BRANCH  22  24
ATOM     24  S   UNL d   1      20.646 -19.334   0.103  0.00  0.00     0.245 S 
ATOM     25  O   UNL d   1      20.299 -18.980   1.457  0.00  0.00    -0.206 OA
ATOM     26  O   UNL d   1      20.712 -20.713  -0.329  0.00  0.00    -0.206 OA
BRANCH  24  27
ATOM     27  N   UNL d   1      19.530 -18.575  -0.895  0.00  0.00    -0.225 NA
ATOM     28  H   UNL d   1      18.832 -19.260  -1.191  0.00  0.00     0.136 HD
ATOM     29  H   UNL d   1      19.991 -18.145  -1.696  0.00  0.00     0.136 HD
ENDBRANCH  24  27
ENDBRANCH  22  24
ENDBRANCH  18  19
ENDBRANCH   1  18
TORSDOF 6
ENDMDL
MODEL 3
REMARK VINA RESULT:   -29.208      2.388      2.791
REMARK INTER + INTRA:         -32.126
REMARK INTER:                 -30.998
REMARK INTRA:                  -1.128
REMARK CONF_INDEPENDENT:        1.790
REMARK UNBOUND:                -1.128
REMARK  6 active torsions:
REMARK  status: ('A' for Active; 'I' for Inactive)
REMARK    1  A    between atoms: N_1  and  S_2 
REMARK    2  A    between atoms: S_2  and  C_5 
REMARK    3  A    between atoms: C_8  and  C_9 
REMARK    4  A    between atoms: C_9  and  N_10 
REMARK       I    between atoms: N_10  and  C_11 
REMARK    5  A    between atoms: C_11  and  C_13 
REMARK    6  A    between atoms: C_15  and  N_16 
ROOT
ATOM      1  N   UNL d   1      26.651 -16.413  -1.702  0.00  0.00    -0.352 N 
ATOM      2  C   UNL d   1      28.003 -16.298  -1.944  0.00  0.00     0.254 C 
ATOM      3  O   UNL d   1      28.867 -16.642  -1.148  0.00  0.00    -0.268 OA
ATOM      4  H   UNL d   1      26.032 -16.060  -2.412  0.00  0.00     0.163 HD
ENDROOT
BRANCH   2   5
ATOM      5  C   UNL d   1      28.406 -15.765  -3.287  0.00  0.00     0.070 A 
ATOM      6  C   UNL d   1      29.625 -16.206  -3.836  0.00  0.00     0.056 A 
ATOM      7  C   UNL d   1      30.043 -15.736  -5.094  0.00  0.00     0.106 A 
ATOM      8  C   UNL d   1      29.269 -14.810  -5.802  0.00  0.00     0.075 A 
ATOM      9  C   UNL d   1      28.078 -14.349  -5.239  0.00  0.00     0.105 A 
ATOM     10  C   UNL d   1      27.632 -14.832  -3.995  0.00  0.00     0.117 A 
ATOM     11  O   UNL d   1      27.390 -13.420  -5.980  0.00  0.00    -0.346 OA
ATOM     12  O   UNL d   1      26.465 -14.390  -3.421  0.00  0.00    -0.345 OA
ATOM     13  C   UNL d   1      25.616 -13.716  -4.353  0.00  0.00     0.202 C 
ATOM     14  C   UNL d   1      26.401 -12.737  -5.206  0.00  0.00     0.202 C 
BRANCH   7  15
ATOM     15  N   UNL d   1      31.303 -16.218  -5.682  0.00  0.00    -0.116 N 
ATOM     16  O   UNL d   1      32.317 -16.199  -4.969  0.00  0.00    -0.532 OA
ATOM     17  O   UNL d   1      31.278 -16.605  -6.857  0.00  0.00    -0.532 OA
ENDBRANCH   7  15
ENDBRANCH   2   5
BRANCH   1  18
ATOM     18  C   UNL d   1      26.097 -16.898  -0.434  0.00  0.00     0.169 C 
BRANCH  18  19
ATOM     19  C   UNL d   1      24.604 -17.159  -0.549  0.00  0.00     0.002 A 
ATOM     20  C   UNL d   1      23.561 -16.254  -0.474  0.00  0.00     0.018 A 
ATOM     21  C   UNL d   1      22.284 -16.844  -0.640  0.00  0.00     0.033 A 
ATOM     22  C   UNL d   1      22.345 -18.203  -0.853  0.00  0.00     0.115 A 
ATOM     23  S   UNL d   1      23.969 -18.758  -0.812  0.00  0.00    -0.080 SA
BRANCH  22  24
ATOM     24  S   UNL d   1      21.011 -19.346  -1.139  0.00  0.00     0.245 S 
ATOM     25  O   UNL d   1      21.135 -20.338  -0.100  0.00  0.00    -0.206 OA
ATOM     26  O   UNL d   1      21.077 -19.701  -2.540  0.00  0.00    -0.206 OA
BRANCH  24  27
ATOM     27  N   UNL d   1      19.532 -18.588  -0.909  0.00  0.00    -0.225 NA
ATOM     28  H   UNL d   1      18.824 -19.067  -1.470  0.00  0.00     0.136 HD
ATOM     29  H   UNL d   1      19.588 -17.599  -1.148  0.00  0.00     0.136 HD
ENDBRANCH  24  27
ENDBRANCH  22  24
ENDBRANCH  18  19
ENDBRANCH   1  18
TORSDOF 6
ENDMDL
MODEL 4
REMARK VINA RESULT:   -29.203      2.265      3.116
REMARK INTER + INTRA:         -32.120
REMARK INTER:                 -30.992
REMARK INTRA:                  -1.128
REMARK CONF_INDEPENDENT:        1.790
REMARK UNBOUND:                -1.128
REMARK  6 active torsions:
REMARK  status: ('A' for Active; 'I' for Inactive)
REMARK    1  A    between atoms: N_1  and  S_2 
REMARK    2  A    between atoms: S_2  and  C_5 
REMARK    3  A    between atoms: C_8  and  C_9 
REMARK    4  A    between atoms: C_9  and  N_10 
REMARK       I    between atoms: N_10  and  C_11 
REMARK    5  A    between atoms: C_11  and  C_13 
REMARK    6  A    between atoms: C_15  and  N_16 
ROOT
ATOM      1  N   UNL d   1      26.556 -16.455  -1.836  0.00  0.00    -0.352 N 
ATOM      2  C   UNL d   1      26.409 -15.087  -1.922  0.00  0.00     0.254 C 
ATOM      3  O   UNL d   1      25.981 -14.392  -1.009  0.00  0.00    -0.268 OA
ATOM      4  H   UNL d   1      26.879 -16.929  -2.664  0.00  0.00     0.163 HD
ENDROOT
BRANCH   2   5
ATOM      5  C   UNL d   1      26.854 -14.439  -3.199  0.00  0.00     0.070 A 
ATOM      6  C   UNL d   1      26.165 -13.290  -3.633  0.00  0.00     0.056 A 
ATOM      7  C   UNL d   1      26.548 -12.646  -4.824  0.00  0.00     0.106 A 
ATOM      8  C   UNL d   1      27.597 -13.150  -5.600  0.00  0.00     0.075 A 
ATOM      9  C   UNL d   1      28.254 -14.308  -5.185  0.00  0.00     0.105 A 
ATOM     10  C   UNL d   1      27.903 -14.947  -3.982  0.00  0.00     0.117 A 
ATOM     11  O   UNL d   1      29.252 -14.756  -6.015  0.00  0.00    -0.346 OA
ATOM     12  O   UNL d   1      28.534 -16.089  -3.555  0.00  0.00    -0.345 OA
ATOM     13  C   UNL d   1      29.770 -16.320  -4.235  0.00  0.00     0.202 C 
ATOM     14  C   UNL d   1      29.626 -16.107  -5.730  0.00  0.00     0.202 C 
BRANCH   7  15
ATOM     15  N   UNL d   1      25.847 -11.429  -5.263  0.00  0.00    -0.116 N 
ATOM     16  O   UNL d   1      25.670 -11.273  -6.480  0.00  0.00    -0.532 OA
ATOM     17  O   UNL d   1      25.486 -10.627  -4.392  0.00  0.00    -0.532 OA
ENDBRANCH   7  15
ENDBRANCH   2   5
BRANCH   1  18
ATOM     18  C   UNL d   1      26.152 -17.238  -0.664  0.00  0.00     0.169 C 
BRANCH  18  19
ATOM     19  C   UNL d   1      24.638 -17.340  -0.566  0.00  0.00     0.002 A 
ATOM     20  C   UNL d   1      23.689 -16.362  -0.803  0.00  0.00     0.018 A 
ATOM     21  C   UNL d   1      22.357 -16.810  -0.630  0.00  0.00     0.033 A 
ATOM     22  C   UNL d   1      22.280 -18.136  -0.269  0.00  0.00     0.115 A 
ATOM     23  S   UNL d   1      23.846 -18.821  -0.107  0.00  0.00    -0.080 SA
BRANCH  22  24
ATOM     24  S   UNL d   1      20.830 -19.128   0.027  0.00  0.00     0.245 S 
ATOM     25  O   UNL d   1      20.482 -18.886   1.405  0.00  0.00    -0.206 OA
ATOM     26  O   UNL d   1      21.145 -20.455  -0.456  0.00  0.00    -0.206 OA
BRANCH  24  27
ATOM     27  N   UNL d   1      19.545 -18.575  -0.900  0.00  0.00    -0.225 NA
ATOM     28  H   UNL d   1      19.211 -19.339  -1.491  0.00  0.00     0.136 HD
ATOM     29  H   UNL d   1      19.819 -17.767  -1.457  0.00  0.00     0.136 HD
ENDBRANCH  24  27
ENDBRANCH  22  24
ENDBRANCH  18  19
ENDBRANCH   1  18
TORSDOF 6
ENDMDL
MODEL 5
REMARK VINA RESULT:   -29.187      2.547      3.337
REMARK INTER + INTRA:         -32.179
REMARK INTER:                 -30.977
REMARK INTRA:                  -1.203
REMARK CONF_INDEPENDENT:        1.790
REMARK UNBOUND:                -1.203
REMARK  6 active torsions:
REMARK  status: ('A' for Active; 'I' for Inactive)
REMARK    1  A    between atoms: N_1  and  S_2 
REMARK    2  A    between atoms: S_2  and  C_5 
REMARK    3  A    between atoms: C_8  and  C_9 
REMARK    4  A    between atoms: C_9  and  N_10 
REMARK       I    between atoms: N_10  and  C_11 
REMARK    5  A    between atoms: C_11  and  C_13 
REMARK    6  A    between atoms: C_15  and  N_16 
ROOT
ATOM      1  N   UNL d   1      26.057 -16.047  -1.517  0.00  0.00    -0.352 N 
ATOM      2  C   UNL d   1      27.428 -16.087  -1.384  0.00  0.00     0.254 C 
ATOM      3  O   UNL d   1      28.006 -16.090  -0.305  0.00  0.00    -0.268 OA
ATOM      4  H   UNL d   1      25.693 -16.006  -2.455  0.00  0.00     0.163 HD
ENDROOT
BRANCH   2   5
ATOM      5  C   UNL d   1      28.227 -16.182  -2.651  0.00  0.00     0.070 A 
ATOM      6  C   UNL d   1      29.410 -16.944  -2.631  0.00  0.00     0.056 A 
ATOM      7  C   UNL d   1      30.191 -17.063  -3.795  0.00  0.00     0.106 A 
ATOM      8  C   UNL d   1      29.817 -16.411  -4.974  0.00  0.00     0.075 A 
ATOM      9  C   UNL d   1      28.661 -15.629  -4.980  0.00  0.00     0.105 A 
ATOM     10  C   UNL d   1      27.854 -15.523  -3.833  0.00  0.00     0.117 A 
ATOM     11  O   UNL d   1      28.376 -14.998  -6.166  0.00  0.00    -0.346 OA
ATOM     12  O   UNL d   1      26.714 -14.757  -3.815  0.00  0.00    -0.345 OA
ATOM     13  C   UNL d   1      26.264 -14.414  -5.127  0.00  0.00     0.202 C 
ATOM     14  C   UNL d   1      27.413 -13.953  -6.003  0.00  0.00     0.202 C 
BRANCH   7  15
ATOM     15  N   UNL d   1      31.414 -17.883  -3.783  0.00  0.00    -0.116 N 
ATOM     16  O   UNL d   1      31.298 -19.088  -3.515  0.00  0.00    -0.532 OA
ATOM     17  O   UNL d   1      32.487 -17.319  -4.032  0.00  0.00    -0.532 OA
ENDBRANCH   7  15
ENDBRANCH   2   5
BRANCH   1  18
ATOM     18  C   UNL d   1      25.139 -15.935  -0.379  0.00  0.00     0.169 C 
BRANCH  18  19
ATOM     19  C   UNL d   1      24.219 -17.142  -0.292  0.00  0.00     0.002 A 
ATOM     20  C   UNL d   1      24.549 -18.484  -0.333  0.00  0.00     0.018 A 
ATOM     21  C   UNL d   1      23.433 -19.348  -0.209  0.00  0.00     0.033 A 
ATOM     22  C   UNL d   1      22.244 -18.669  -0.064  0.00  0.00     0.115 A 
ATOM     23  S   UNL d   1      22.495 -16.971  -0.117  0.00  0.00    -0.080 SA
BRANCH  22  24
ATOM     24  S   UNL d   1      20.604 -19.329   0.150  0.00  0.00     0.245 S 
ATOM     25  O   UNL d   1      20.216 -18.950   1.486  0.00  0.00    -0.206 OA
ATOM     26  O   UNL d   1      20.671 -20.716  -0.258  0.00  0.00    -0.206 OA
BRANCH  24  27
ATOM     27  N   UNL d   1      19.530 -18.576  -0.896  0.00  0.00    -0.225 NA
ATOM     28  H   UNL d   1      18.907 -19.281  -1.294  0.00  0.00     0.136 HD
ATOM     29  H   UNL d   1      20.028 -18.067  -1.625  0.00  0.00     0.136 HD
ENDBRANCH  24  27
ENDBRANCH  22  24
ENDBRANCH  18  19
ENDBRANCH   1  18
TORSDOF 6
ENDMDL
MODEL 6
REMARK VINA RESULT:   -28.689      2.798      4.367
REMARK INTER + INTRA:         -31.627
REMARK INTER:                 -30.479
REMARK INTRA:                  -1.148
REMARK CONF_INDEPENDENT:        1.790
REMARK UNBOUND:                -1.148
REMARK  6 active torsions:
REMARK  status: ('A' for Active; 'I' for Inactive)
REMARK    1  A    between atoms: N_1  and  S_2 
REMARK    2  A    between atoms: S_2  and  C_5 
REMARK    3  A    between atoms: C_8  and  C_9 
REMARK    4  A    between atoms: C_9  and  N_10 
REMARK       I    between atoms: N_10  and  C_11 
REMARK    5  A    between atoms: C_11  and  C_13 
REMARK    6  A    between atoms: C_15  and  N_16 
ROOT
ATOM      1  N   UNL d   1      26.450 -15.880   0.318  0.00  0.00    -0.352 N 
ATOM      2  C   UNL d   1      26.948 -14.790  -0.364  0.00  0.00     0.254 C 
ATOM      3  O   UNL d   1      27.137 -14.776  -1.573  0.00  0.00    -0.268 OA
ATOM      4  H   UNL d   1      26.375 -15.792   1.319  0.00  0.00     0.163 HD
ENDROOT
BRANCH   2   5
ATOM      5  C   UNL d   1      27.216 -13.553   0.442  0.00  0.00     0.070 A 
ATOM      6  C   UNL d   1      27.076 -12.306  -0.195  0.00  0.00     0.056 A 
ATOM      7  C   UNL d   1      27.315 -11.118   0.520  0.00  0.00     0.106 A 
ATOM      8  C   UNL d   1      27.715 -11.162   1.860  0.00  0.00     0.075 A 
ATOM      9  C   UNL d   1      27.886 -12.402   2.477  0.00  0.00     0.105 A 
ATOM     10  C   UNL d   1      27.623 -13.597   1.785  0.00  0.00     0.117 A 
ATOM     11  O   UNL d   1      28.309 -12.362   3.783  0.00  0.00    -0.346 OA
ATOM     12  O   UNL d   1      27.787 -14.828   2.371  0.00  0.00    -0.345 OA
ATOM     13  C   UNL d   1      27.877 -14.748   3.796  0.00  0.00     0.202 C 
ATOM     14  C   UNL d   1      28.803 -13.628   4.229  0.00  0.00     0.202 C 
BRANCH   7  15
ATOM     15  N   UNL d   1      27.141  -9.813  -0.136  0.00  0.00    -0.116 N 
ATOM     16  O   UNL d   1      27.100  -9.790  -1.375  0.00  0.00    -0.532 OA
ATOM     17  O   UNL d   1      27.056  -8.812   0.587  0.00  0.00    -0.532 OA
ENDBRANCH   7  15
ENDBRANCH   2   5
BRANCH   1  18
ATOM     18  C   UNL d   1      26.155 -17.165  -0.320  0.00  0.00     0.169 C 
BRANCH  18  19
ATOM     19  C   UNL d   1      24.659 -17.352  -0.519  0.00  0.00     0.002 A 
ATOM     20  C   UNL d   1      23.671 -16.387  -0.593  0.00  0.00     0.018 A 
ATOM     21  C   UNL d   1      22.374 -16.918  -0.800  0.00  0.00     0.033 A 
ATOM     22  C   UNL d   1      22.365 -18.291  -0.894  0.00  0.00     0.115 A 
ATOM     23  S   UNL d   1      23.946 -18.931  -0.692  0.00  0.00    -0.080 SA
BRANCH  22  24
ATOM     24  S   UNL d   1      20.985 -19.379  -1.178  0.00  0.00     0.245 S 
ATOM     25  O   UNL d   1      21.096 -20.401  -0.167  0.00  0.00    -0.206 OA
ATOM     26  O   UNL d   1      21.008 -19.700  -2.589  0.00  0.00    -0.206 OA
BRANCH  24  27
ATOM     27  N   UNL d   1      19.539 -18.575  -0.895  0.00  0.00    -0.225 NA
ATOM     28  H   UNL d   1      19.606 -17.630  -1.279  0.00  0.00     0.136 HD
ATOM     29  H   UNL d   1      19.321 -18.557   0.100  0.00  0.00     0.136 HD
ENDBRANCH  24  27
ENDBRANCH  22  24
ENDBRANCH  18  19
ENDBRANCH   1  18
TORSDOF 6
ENDMDL
MODEL 7
REMARK VINA RESULT:   -28.578      1.940      2.235
REMARK INTER + INTRA:         -31.472
REMARK INTER:                 -30.367
REMARK INTRA:                  -1.104
REMARK CONF_INDEPENDENT:        1.790
REMARK UNBOUND:                -1.104
REMARK  6 active torsions:
REMARK  status: ('A' for Active; 'I' for Inactive)
REMARK    1  A    between atoms: N_1  and  S_2 
REMARK    2  A    between atoms: S_2  and  C_5 
REMARK    3  A    between atoms: C_8  and  C_9 
REMARK    4  A    between atoms: C_9  and  N_10 
REMARK       I    between atoms: N_10  and  C_11 
REMARK    5  A    between atoms: C_11  and  C_13 
REMARK    6  A    between atoms: C_15  and  N_16 
ROOT
ATOM      1  N   UNL d   1      26.590 -15.905  -0.259  0.00  0.00    -0.352 N 
ATOM      2  C   UNL d   1      26.474 -15.530  -1.580  0.00  0.00     0.254 C 
ATOM      3  O   UNL d   1      25.856 -16.175  -2.417  0.00  0.00    -0.268 OA
ATOM      4  H   UNL d   1      27.158 -15.318   0.330  0.00  0.00     0.163 HD
ENDROOT
BRANCH   2   5
ATOM      5  C   UNL d   1      27.110 -14.229  -1.972  0.00  0.00     0.070 A 
ATOM      6  C   UNL d   1      26.438 -13.419  -2.907  0.00  0.00     0.056 A 
ATOM      7  C   UNL d   1      26.994 -12.189  -3.303  0.00  0.00     0.106 A 
ATOM      8  C   UNL d   1      28.227 -11.768  -2.794  0.00  0.00     0.075 A 
ATOM      9  C   UNL d   1      28.906 -12.590  -1.893  0.00  0.00     0.105 A 
ATOM     10  C   UNL d   1      28.350 -13.809  -1.465  0.00  0.00     0.117 A 
ATOM     11  O   UNL d   1      30.123 -12.121  -1.461  0.00  0.00    -0.346 OA
ATOM     12  O   UNL d   1      29.002 -14.634  -0.582  0.00  0.00    -0.345 OA
ATOM     13  C   UNL d   1      30.065 -13.971   0.106  0.00  0.00     0.202 C 
ATOM     14  C   UNL d   1      30.909 -13.146  -0.847  0.00  0.00     0.202 C 
BRANCH   7  15
ATOM     15  N   UNL d   1      26.279 -11.328  -4.259  0.00  0.00    -0.116 N 
ATOM     16  O   UNL d   1      26.113 -11.757  -5.410  0.00  0.00    -0.532 OA
ATOM     17  O   UNL d   1      25.895 -10.221  -3.859  0.00  0.00    -0.532 OA
ENDBRANCH   7  15
ENDBRANCH   2   5
BRANCH   1  18
ATOM     18  C   UNL d   1      26.042 -17.154   0.276  0.00  0.00     0.169 C 
BRANCH  18  19
ATOM     19  C   UNL d   1      24.591 -17.342  -0.139  0.00  0.00     0.002 A 
ATOM     20  C   UNL d   1      23.668 -16.381  -0.507  0.00  0.00     0.018 A 
ATOM     21  C   UNL d   1      22.400 -16.913  -0.849  0.00  0.00     0.033 A 
ATOM     22  C   UNL d   1      22.352 -18.285  -0.754  0.00  0.00     0.115 A 
ATOM     23  S   UNL d   1      23.852 -18.917  -0.207  0.00  0.00    -0.080 SA
BRANCH  22  24
ATOM     24  S   UNL d   1      20.992 -19.379  -1.108  0.00  0.00     0.245 S 
ATOM     25  O   UNL d   1      21.054 -20.400  -0.091  0.00  0.00    -0.206 OA
ATOM     26  O   UNL d   1      21.089 -19.700  -2.515  0.00  0.00    -0.206 OA
BRANCH  24  27
ATOM     27  N   UNL d   1      19.531 -18.581  -0.901  0.00  0.00    -0.225 NA
ATOM     28  H   UNL d   1      18.775 -19.181  -1.236  0.00  0.00     0.136 HD
ATOM     29  H   UNL d   1      19.534 -17.684  -1.384  0.00  0.00     0.136 HD
ENDBRANCH  24  27
ENDBRANCH  22  24
ENDBRANCH  18  19
ENDBRANCH   1  18
TORSDOF 6
ENDMDL
MODEL 8
REMARK VINA RESULT:   -28.558      2.780      3.179
REMARK INTER + INTRA:         -31.465
REMARK INTER:                 -30.348
REMARK INTRA:                  -1.117
REMARK CONF_INDEPENDENT:        1.790
REMARK UNBOUND:                -1.117
REMARK  6 active torsions:
REMARK  status: ('A' for Active; 'I' for Inactive)
REMARK    1  A    between atoms: N_1  and  S_2 
REMARK    2  A    between atoms: S_2  and  C_5 
REMARK    3  A    between atoms: C_8  and  C_9 
REMARK    4  A    between atoms: C_9  and  N_10 
REMARK       I    between atoms: N_10  and  C_11 
REMARK    5  A    between atoms: C_11  and  C_13 
REMARK    6  A    between atoms: C_15  and  N_16 
ROOT
ATOM      1  N   UNL d   1      25.882 -15.318  -2.368  0.00  0.00    -0.352 N 
ATOM      2  C   UNL d   1      25.861 -14.716  -3.608  0.00  0.00     0.254 C 
ATOM      3  O   UNL d   1      25.607 -15.312  -4.647  0.00  0.00    -0.268 OA
ATOM      4  H   UNL d   1      26.144 -14.738  -1.588  0.00  0.00     0.163 HD
ENDROOT
BRANCH   2   5
ATOM      5  C   UNL d   1      26.118 -13.239  -3.647  0.00  0.00     0.070 A 
ATOM      6  C   UNL d   1      25.797 -12.542  -4.827  0.00  0.00     0.056 A 
ATOM      7  C   UNL d   1      26.018 -11.155  -4.910  0.00  0.00     0.106 A 
ATOM      8  C   UNL d   1      26.579 -10.458  -3.834  0.00  0.00     0.075 A 
ATOM      9  C   UNL d   1      26.927 -11.159  -2.679  0.00  0.00     0.105 A 
ATOM     10  C   UNL d   1      26.686 -12.540  -2.570  0.00  0.00     0.117 A 
ATOM     11  O   UNL d   1      27.499 -10.410  -1.679  0.00  0.00    -0.346 OA
ATOM     12  O   UNL d   1      27.023 -13.250  -1.444  0.00  0.00    -0.345 OA
ATOM     13  C   UNL d   1      27.276 -12.405  -0.319  0.00  0.00     0.202 C 
ATOM     14  C   UNL d   1      28.148 -11.225  -0.699  0.00  0.00     0.202 C 
BRANCH   7  15
ATOM     15  N   UNL d   1      25.656 -10.421  -6.133  0.00  0.00    -0.116 N 
ATOM     16  O   UNL d   1      25.183 -11.069  -7.077  0.00  0.00    -0.532 OA
ATOM     17  O   UNL d   1      25.856  -9.199  -6.150  0.00  0.00    -0.532 OA
ENDBRANCH   7  15
ENDBRANCH   2   5
BRANCH   1  18
ATOM     18  C   UNL d   1      25.669 -16.754  -2.165  0.00  0.00     0.169 C 
BRANCH  18  19
ATOM     19  C   UNL d   1      24.383 -17.017  -1.397  0.00  0.00     0.002 A 
ATOM     20  C   UNL d   1      23.711 -16.180  -0.526  0.00  0.00     0.018 A 
ATOM     21  C   UNL d   1      22.526 -16.746   0.005  0.00  0.00     0.033 A 
ATOM     22  C   UNL d   1      22.282 -18.017  -0.465  0.00  0.00     0.115 A 
ATOM     23  S   UNL d   1      23.528 -18.528  -1.531  0.00  0.00    -0.080 SA
BRANCH  22  24
ATOM     24  S   UNL d   1      20.913 -19.096  -0.101  0.00  0.00     0.245 S 
ATOM     25  O   UNL d   1      20.667 -18.930   1.310  0.00  0.00    -0.206 OA
ATOM     26  O   UNL d   1      21.253 -20.383  -0.667  0.00  0.00    -0.206 OA
BRANCH  24  27
ATOM     27  N   UNL d   1      19.531 -18.575  -0.897  0.00  0.00    -0.225 NA
ATOM     28  H   UNL d   1      19.381 -19.163  -1.719  0.00  0.00     0.136 HD
ATOM     29  H   UNL d   1      19.607 -17.592  -1.153  0.00  0.00     0.136 HD
ENDBRANCH  24  27
ENDBRANCH  22  24
ENDBRANCH  18  19
ENDBRANCH   1  18
TORSDOF 6
ENDMDL
MODEL 9
REMARK VINA RESULT:   -28.472      2.184      3.567
REMARK INTER + INTRA:         -31.433
REMARK INTER:                 -30.261
REMARK INTRA:                  -1.172
REMARK CONF_INDEPENDENT:        1.790
REMARK UNBOUND:                -1.172
REMARK  6 active torsions:
REMARK  status: ('A' for Active; 'I' for Inactive)
REMARK    1  A    between atoms: N_1  and  S_2 
REMARK    2  A    between atoms: S_2  and  C_5 
REMARK    3  A    between atoms: C_8  and  C_9 
REMARK    4  A    between atoms: C_9  and  N_10 
REMARK       I    between atoms: N_10  and  C_11 
REMARK    5  A    between atoms: C_11  and  C_13 
REMARK    6  A    between atoms: C_15  and  N_16 
ROOT
ATOM      1  N   UNL d   1      26.595 -15.851  -0.680  0.00  0.00    -0.352 N 
ATOM      2  C   UNL d   1      27.366 -14.942   0.013  0.00  0.00     0.254 C 
ATOM      3  O   UNL d   1      27.758 -15.119   1.159  0.00  0.00    -0.268 OA
ATOM      4  H   UNL d   1      26.295 -15.581  -1.602  0.00  0.00     0.163 HD
ENDROOT
BRANCH   2   5
ATOM      5  C   UNL d   1      27.773 -13.700  -0.724  0.00  0.00     0.070 A 
ATOM      6  C   UNL d   1      28.846 -12.947  -0.210  0.00  0.00     0.056 A 
ATOM      7  C   UNL d   1      29.264 -11.777  -0.868  0.00  0.00     0.106 A 
ATOM      8  C   UNL d   1      28.609 -11.335  -2.022  0.00  0.00     0.075 A 
ATOM      9  C   UNL d   1      27.524 -12.066  -2.509  0.00  0.00     0.105 A 
ATOM     10  C   UNL d   1      27.111 -13.254  -1.879  0.00  0.00     0.117 A 
ATOM     11  O   UNL d   1      26.915 -11.552  -3.628  0.00  0.00    -0.346 OA
ATOM     12  O   UNL d   1      26.046 -13.987  -2.339  0.00  0.00    -0.345 OA
ATOM     13  C   UNL d   1      25.671 -13.634  -3.673  0.00  0.00     0.202 C 
ATOM     14  C   UNL d   1      25.626 -12.129  -3.853  0.00  0.00     0.202 C 
BRANCH   7  15
ATOM     15  N   UNL d   1      30.404 -11.004  -0.348  0.00  0.00    -0.116 N 
ATOM     16  O   UNL d   1      31.541 -11.467  -0.520  0.00  0.00    -0.532 OA
ATOM     17  O   UNL d   1      30.159  -9.943   0.239  0.00  0.00    -0.532 OA
ENDBRANCH   7  15
ENDBRANCH   2   5
BRANCH   1  18
ATOM     18  C   UNL d   1      26.101 -17.100  -0.095  0.00  0.00     0.169 C 
BRANCH  18  19
ATOM     19  C   UNL d   1      24.623 -17.300  -0.390  0.00  0.00     0.002 A 
ATOM     20  C   UNL d   1      23.651 -16.343  -0.622  0.00  0.00     0.018 A 
ATOM     21  C   UNL d   1      22.369 -16.887  -0.880  0.00  0.00     0.033 A 
ATOM     22  C   UNL d   1      22.356 -18.263  -0.858  0.00  0.00     0.115 A 
ATOM     23  S   UNL d   1      23.911 -18.887  -0.482  0.00  0.00    -0.080 SA
BRANCH  22  24
ATOM     24  S   UNL d   1      20.992 -19.369  -1.152  0.00  0.00     0.245 S 
ATOM     25  O   UNL d   1      21.100 -20.382  -0.131  0.00  0.00    -0.206 OA
ATOM     26  O   UNL d   1      21.038 -19.700  -2.560  0.00  0.00    -0.206 OA
BRANCH  24  27
ATOM     27  N   UNL d   1      19.533 -18.579  -0.895  0.00  0.00    -0.225 NA
ATOM     28  H   UNL d   1      18.780 -19.270  -0.885  0.00  0.00     0.136 HD
ATOM     29  H   UNL d   1      19.375 -17.868  -1.607  0.00  0.00     0.136 HD
ENDBRANCH  24  27
ENDBRANCH  22  24
ENDBRANCH  18  19
ENDBRANCH   1  18
TORSDOF 6
ENDMDL
