MODEL 1
REMARK VINA RESULT:   -11.094      0.000      0.000
REMARK INTER + INTRA:         -16.353
REMARK INTER:                 -14.077
REMARK INTRA:                  -2.276
REMARK CONF_INDEPENDENT:        2.983
REMARK UNBOUND:                -2.276
REMARK  10 active torsions:
REMARK  status: ('A' for Active; 'I' for Inactive)
REMARK    1  A    between atoms: C_2  and  N_3 
REMARK    2  A    between atoms: N_3  and  C_4 
REMARK    3  A    between atoms: C_7  and  C_8 
REMARK    4  A    between atoms: C_8  and  O_10 
REMARK    5  A    between atoms: O_10  and  C_11 
REMARK    6  A    between atoms: C_14  and  N_15 
REMARK       I    between atoms: N_15  and  C_16 
REMARK    7  A    between atoms: C_16  and  C_18 
REMARK    8  A    between atoms: C_23  and  N_24 
REMARK    9  A    between atoms: N_24  and  S_25 
REMARK   10  A    between atoms: S_25  and  C_28 
ROOT
ATOM      1  C   UNL d   1      26.088 -14.387  -3.981  0.00  0.00     0.059 A 
ATOM      2  C   UNL d   1      27.030 -15.447  -3.926  0.00  0.00     0.019 A 
ATOM      3  C   UNL d   1      28.156 -15.521  -4.741  0.00  0.00     0.001 A 
ATOM      4  C   UNL d   1      28.360 -14.558  -5.709  0.00  0.00     0.002 A 
ATOM      5  C   UNL d   1      27.522 -13.447  -5.762  0.00  0.00     0.031 A 
ATOM      6  C   UNL d   1      26.413 -13.298  -4.900  0.00  0.00     0.058 A 
ENDROOT
BRANCH   1   7
ATOM      7  C   UNL d   1      24.944 -14.702  -2.913  0.00  0.00     0.258 C 
ATOM      8  N   UNL d   1      25.223 -15.278  -1.698  0.00  0.00    -0.321 N 
ATOM      9  H   UNL d   1      26.122 -14.978  -1.341  0.00  0.00     0.169 HD
ATOM     10  O   UNL d   1      23.784 -14.343  -3.133  0.00  0.00    -0.267 OA
BRANCH   8  11
ATOM     11  C   UNL d   1      24.710 -16.477  -1.079  0.00  0.00     0.057 C 
ATOM     12  C   UNL d   1      23.296 -16.777  -1.271  0.00  0.00     0.049 C 
ATOM     13  C   UNL d   1      22.711 -17.992  -0.893  0.00  0.00     0.041 C 
ATOM     14  C   UNL d   1      23.592 -18.935  -0.372  0.00  0.00     0.019 C 
ATOM     15  C   UNL d   1      24.906 -18.571   0.006  0.00  0.00     0.027 C 
ATOM     16  C   UNL d   1      25.460 -17.300  -0.231  0.00  0.00     0.035 C 
BRANCH  13  17
ATOM     17  C   UNL d   1      21.246 -18.380  -1.042  0.00  0.00     0.293 C 
ATOM     18  O   UNL d   1      20.384 -17.538  -1.270  0.00  0.00    -0.259 OA
BRANCH  17  19
ATOM     19  O   UNL d   1      20.974 -19.717  -0.930  0.00  0.00    -0.318 OA
BRANCH  19  20
ATOM     20  C   UNL d   1      19.721 -20.023  -0.251  0.00  0.00     0.174 C 
ATOM     21  C   UNL d   1      19.809 -19.666   1.226  0.00  0.00     0.034 C 
ENDBRANCH  19  20
ENDBRANCH  17  19
ENDBRANCH  13  17
BRANCH  16  22
ATOM     22  N   UNL d   1      26.765 -17.075   0.256  0.00  0.00    -0.291 NA
ATOM     23  H   UNL d   1      26.915 -17.775   0.983  0.00  0.00     0.127 HD
BRANCH  22  24
ATOM     24  C   UNL d   1      27.935 -17.054  -0.653  0.00  0.00     0.088 C 
ATOM     25  C   UNL d   1      28.413 -15.619  -0.897  0.00  0.00     0.021 C 
ENDBRANCH  22  24
ENDBRANCH  16  22
ENDBRANCH   8  11
ENDBRANCH   1   7
BRANCH   6  26
ATOM     26  N   UNL d   1      25.878 -11.928  -5.024  0.00  0.00    -0.280 N 
ATOM     27  H   UNL d   1      24.964 -11.762  -5.435  0.00  0.00     0.179 HD
BRANCH  26  28
ATOM     28  S   UNL d   1      26.356 -10.918  -3.848  0.00  0.00     0.264 S 
ATOM     29  O   UNL d   1      25.566 -11.486  -2.770  0.00  0.00    -0.200 OA
ATOM     30  O   UNL d   1      27.781 -10.957  -3.925  0.00  0.00    -0.200 OA
BRANCH  28  31
ATOM     31  C   UNL d   1      25.851  -9.265  -3.883  0.00  0.00     0.092 C 
ATOM     32  C   UNL d   1      26.204  -8.402  -2.809  0.00  0.00    -0.032 C 
ATOM     33  C   UNL d   1      27.241  -8.624  -1.701  0.00  0.00     0.050 C 
ATOM     34  C   UNL d   1      25.531  -7.182  -2.773  0.00  0.00    -0.054 C 
ATOM     35  C   UNL d   1      25.406  -6.418  -1.486  0.00  0.00     0.049 C 
ATOM     36  C   UNL d   1      24.821  -6.733  -3.897  0.00  0.00     0.014 C 
ATOM     37  C   UNL d   1      24.674  -7.523  -5.043  0.00  0.00    -0.054 C 
ATOM     38  C   UNL d   1      23.815  -7.068  -6.181  0.00  0.00     0.049 C 
ATOM     39  C   UNL d   1      25.218  -8.803  -5.065  0.00  0.00    -0.032 C 
ATOM     40  C   UNL d   1      25.164  -9.621  -6.347  0.00  0.00     0.050 C 
ENDBRANCH  28  31
ENDBRANCH  26  28
ENDBRANCH   6  26
TORSDOF 10
ENDMDL
MODEL 2
REMARK VINA RESULT:   -10.517      2.744      6.618
REMARK INTER + INTRA:         -16.660
REMARK INTER:                 -13.500
REMARK INTRA:                  -3.161
REMARK CONF_INDEPENDENT:        2.983
REMARK UNBOUND:                -3.161
REMARK  10 active torsions:
REMARK  status: ('A' for Active; 'I' for Inactive)
REMARK    1  A    between atoms: C_2  and  N_3 
REMARK    2  A    between atoms: N_3  and  C_4 
REMARK    3  A    between atoms: C_7  and  C_8 
REMARK    4  A    between atoms: C_8  and  O_10 
REMARK    5  A    between atoms: O_10  and  C_11 
REMARK    6  A    between atoms: C_14  and  N_15 
REMARK       I    between atoms: N_15  and  C_16 
REMARK    7  A    between atoms: C_16  and  C_18 
REMARK    8  A    between atoms: C_23  and  N_24 
REMARK    9  A    between atoms: N_24  and  S_25 
REMARK   10  A    between atoms: S_25  and  C_28 
ROOT
ATOM      1  C   UNL d   1      26.362 -13.359  -3.904  0.00  0.00     0.059 A 
ATOM      2  C   UNL d   1      25.530 -12.243  -4.180  0.00  0.00     0.019 A 
ATOM      3  C   UNL d   1      26.014 -10.960  -4.420  0.00  0.00     0.001 A 
ATOM      4  C   UNL d   1      27.369 -10.716  -4.325  0.00  0.00     0.002 A 
ATOM      5  C   UNL d   1      28.249 -11.779  -4.140  0.00  0.00     0.031 A 
ATOM      6  C   UNL d   1      27.801 -13.108  -3.970  0.00  0.00     0.058 A 
ENDROOT
BRANCH   1   7
ATOM      7  C   UNL d   1      25.414 -14.620  -3.661  0.00  0.00     0.258 C 
ATOM      8  N   UNL d   1      24.786 -14.836  -2.458  0.00  0.00    -0.321 N 
ATOM      9  H   UNL d   1      24.525 -13.966  -2.012  0.00  0.00     0.169 HD
ATOM     10  O   UNL d   1      25.155 -15.382  -4.596  0.00  0.00    -0.267 OA
BRANCH   8  11
ATOM     11  C   UNL d   1      24.811 -15.974  -1.570  0.00  0.00     0.057 C 
ATOM     12  C   UNL d   1      23.538 -16.617  -1.270  0.00  0.00     0.049 C 
ATOM     13  C   UNL d   1      23.436 -17.834  -0.584  0.00  0.00     0.041 C 
ATOM     14  C   UNL d   1      24.650 -18.431  -0.256  0.00  0.00     0.019 C 
ATOM     15  C   UNL d   1      25.864 -17.712  -0.358  0.00  0.00     0.027 C 
ATOM     16  C   UNL d   1      25.961 -16.421  -0.909  0.00  0.00     0.035 C 
BRANCH  13  17
ATOM     17  C   UNL d   1      22.151 -18.564  -0.215  0.00  0.00     0.293 C 
ATOM     18  O   UNL d   1      21.731 -18.572   0.936  0.00  0.00    -0.259 OA
BRANCH  17  19
ATOM     19  O   UNL d   1      21.500 -19.175  -1.253  0.00  0.00    -0.318 OA
BRANCH  19  20
ATOM     20  C   UNL d   1      20.062 -19.319  -1.062  0.00  0.00     0.174 C 
ATOM     21  C   UNL d   1      19.762 -20.394  -0.027  0.00  0.00     0.034 C 
ENDBRANCH  19  20
ENDBRANCH  17  19
ENDBRANCH  13  17
BRANCH  16  22
ATOM     22  N   UNL d   1      27.235 -15.815  -0.888  0.00  0.00    -0.291 NA
ATOM     23  H   UNL d   1      27.619 -15.944  -1.826  0.00  0.00     0.127 HD
BRANCH  22  24
ATOM     24  C   UNL d   1      27.412 -14.404  -0.476  0.00  0.00     0.088 C 
ATOM     25  C   UNL d   1      26.672 -14.119   0.835  0.00  0.00     0.021 C 
ENDBRANCH  22  24
ENDBRANCH  16  22
ENDBRANCH   8  11
ENDBRANCH   1   7
BRANCH   6  26
ATOM     26  N   UNL d   1      28.953 -14.027  -4.047  0.00  0.00    -0.280 N 
ATOM     27  H   UNL d   1      29.712 -13.966  -3.375  0.00  0.00     0.179 HD
BRANCH  26  28
ATOM     28  S   UNL d   1      28.591 -15.498  -4.626  0.00  0.00     0.264 S 
ATOM     29  O   UNL d   1      27.780 -15.954  -3.511  0.00  0.00    -0.200 OA
ATOM     30  O   UNL d   1      28.101 -15.235  -5.941  0.00  0.00    -0.200 OA
BRANCH  28  31
ATOM     31  C   UNL d   1      29.828 -16.702  -4.734  0.00  0.00     0.092 C 
ATOM     32  C   UNL d   1      30.449 -16.958  -5.987  0.00  0.00    -0.032 C 
ATOM     33  C   UNL d   1      30.404 -16.118  -7.269  0.00  0.00     0.050 C 
ATOM     34  C   UNL d   1      31.221 -18.117  -6.050  0.00  0.00    -0.054 C 
ATOM     35  C   UNL d   1      31.501 -18.776  -7.370  0.00  0.00     0.049 C 
ATOM     36  C   UNL d   1      31.605 -18.775  -4.872  0.00  0.00     0.014 C 
ATOM     37  C   UNL d   1      31.151 -18.363  -3.614  0.00  0.00    -0.054 C 
ATOM     38  C   UNL d   1      31.482 -19.151  -2.385  0.00  0.00     0.049 C 
ATOM     39  C   UNL d   1      30.270 -17.290  -3.521  0.00  0.00    -0.032 C 
ATOM     40  C   UNL d   1      29.867 -16.763  -2.152  0.00  0.00     0.050 C 
ENDBRANCH  28  31
ENDBRANCH  26  28
ENDBRANCH   6  26
TORSDOF 10
ENDMDL
MODEL 3
REMARK VINA RESULT:   -10.234      3.355      4.867
REMARK INTER + INTRA:         -16.599
REMARK INTER:                 -13.217
REMARK INTRA:                  -3.383
REMARK CONF_INDEPENDENT:        2.983
REMARK UNBOUND:                -3.383
REMARK  10 active torsions:
REMARK  status: ('A' for Active; 'I' for Inactive)
REMARK    1  A    between atoms: C_2  and  N_3 
REMARK    2  A    between atoms: N_3  and  C_4 
REMARK    3  A    between atoms: C_7  and  C_8 
REMARK    4  A    between atoms: C_8  and  O_10 
REMARK    5  A    between atoms: O_10  and  C_11 
REMARK    6  A    between atoms: C_14  and  N_15 
REMARK       I    between atoms: N_15  and  C_16 
REMARK    7  A    between atoms: C_16  and  C_18 
REMARK    8  A    between atoms: C_23  and  N_24 
REMARK    9  A    between atoms: N_24  and  S_25 
REMARK   10  A    between atoms: S_25  and  C_28 
ROOT
ATOM      1  C   UNL d   1      27.142 -14.364  -3.097  0.00  0.00     0.059 A 
ATOM      2  C   UNL d   1      27.349 -14.691  -4.462  0.00  0.00     0.019 A 
ATOM      3  C   UNL d   1      28.518 -14.393  -5.158  0.00  0.00     0.001 A 
ATOM      4  C   UNL d   1      29.521 -13.683  -4.530  0.00  0.00     0.002 A 
ATOM      5  C   UNL d   1      29.419 -13.404  -3.170  0.00  0.00     0.031 A 
ATOM      6  C   UNL d   1      28.282 -13.758  -2.411  0.00  0.00     0.058 A 
ENDROOT
BRANCH   1   7
ATOM      7  C   UNL d   1      25.673 -14.848  -2.703  0.00  0.00     0.258 C 
ATOM      8  N   UNL d   1      25.345 -15.199  -1.416  0.00  0.00    -0.321 N 
ATOM      9  H   UNL d   1      25.847 -14.640  -0.738  0.00  0.00     0.169 HD
ATOM     10  O   UNL d   1      24.773 -14.828  -3.546  0.00  0.00    -0.267 OA
BRANCH   8  11
ATOM     11  C   UNL d   1      24.783 -16.416  -0.881  0.00  0.00     0.057 C 
ATOM     12  C   UNL d   1      23.363 -16.656  -1.109  0.00  0.00     0.049 C 
ATOM     13  C   UNL d   1      22.733 -17.872  -0.817  0.00  0.00     0.041 C 
ATOM     14  C   UNL d   1      23.575 -18.875  -0.346  0.00  0.00     0.019 C 
ATOM     15  C   UNL d   1      24.894 -18.580   0.071  0.00  0.00     0.027 C 
ATOM     16  C   UNL d   1      25.493 -17.316  -0.078  0.00  0.00     0.035 C 
BRANCH  13  17
ATOM     17  C   UNL d   1      21.258 -18.200  -1.008  0.00  0.00     0.293 C 
ATOM     18  O   UNL d   1      20.440 -17.325  -1.272  0.00  0.00    -0.259 OA
BRANCH  17  19
ATOM     19  O   UNL d   1      20.927 -19.523  -0.892  0.00  0.00    -0.318 OA
BRANCH  19  20
ATOM     20  C   UNL d   1      19.530 -19.767  -0.552  0.00  0.00     0.174 C 
ATOM     21  C   UNL d   1      19.417 -20.415   0.821  0.00  0.00     0.034 C 
ENDBRANCH  19  20
ENDBRANCH  17  19
ENDBRANCH  13  17
BRANCH  16  22
ATOM     22  N   UNL d   1      26.798 -17.166   0.438  0.00  0.00    -0.291 NA
ATOM     23  H   UNL d   1      26.744 -17.452   1.417  0.00  0.00     0.127 HD
BRANCH  22  24
ATOM     24  C   UNL d   1      27.961 -17.824  -0.200  0.00  0.00     0.088 C 
ATOM     25  C   UNL d   1      28.602 -16.908  -1.247  0.00  0.00     0.021 C 
ENDBRANCH  22  24
ENDBRANCH  16  22
ENDBRANCH   8  11
ENDBRANCH   1   7
BRANCH   6  26
ATOM     26  N   UNL d   1      28.568 -13.559  -0.976  0.00  0.00    -0.280 N 
ATOM     27  H   UNL d   1      29.494 -13.740  -0.601  0.00  0.00     0.179 HD
BRANCH  26  28
ATOM     28  S   UNL d   1      27.706 -12.371  -0.286  0.00  0.00     0.264 S 
ATOM     29  O   UNL d   1      28.571 -11.263  -0.653  0.00  0.00    -0.200 OA
ATOM     30  O   UNL d   1      26.384 -12.576  -0.783  0.00  0.00    -0.200 OA
BRANCH  28  31
ATOM     31  C   UNL d   1      27.632 -12.261   1.438  0.00  0.00     0.092 C 
ATOM     32  C   UNL d   1      27.261 -11.030   2.046  0.00  0.00    -0.032 C 
ATOM     33  C   UNL d   1      26.614  -9.798   1.400  0.00  0.00     0.050 C 
ATOM     34  C   UNL d   1      27.495 -10.942   3.417  0.00  0.00    -0.054 C 
ATOM     35  C   UNL d   1      27.641  -9.602   4.081  0.00  0.00     0.049 C 
ATOM     36  C   UNL d   1      27.764 -12.099   4.164  0.00  0.00     0.014 C 
ATOM     37  C   UNL d   1      27.907 -13.352   3.559  0.00  0.00    -0.054 C 
ATOM     38  C   UNL d   1      28.308 -14.549   4.364  0.00  0.00     0.049 C 
ATOM     39  C   UNL d   1      27.814 -13.459   2.175  0.00  0.00    -0.032 C 
ATOM     40  C   UNL d   1      27.851 -14.833   1.522  0.00  0.00     0.050 C 
ENDBRANCH  28  31
ENDBRANCH  26  28
ENDBRANCH   6  26
TORSDOF 10
ENDMDL
MODEL 4
REMARK VINA RESULT:   -10.105      2.906      6.233
REMARK INTER + INTRA:         -16.278
REMARK INTER:                 -13.088
REMARK INTRA:                  -3.189
REMARK CONF_INDEPENDENT:        2.983
REMARK UNBOUND:                -3.189
REMARK  10 active torsions:
REMARK  status: ('A' for Active; 'I' for Inactive)
REMARK    1  A    between atoms: C_2  and  N_3 
REMARK    2  A    between atoms: N_3  and  C_4 
REMARK    3  A    between atoms: C_7  and  C_8 
REMARK    4  A    between atoms: C_8  and  O_10 
REMARK    5  A    between atoms: O_10  and  C_11 
REMARK    6  A    between atoms: C_14  and  N_15 
REMARK       I    between atoms: N_15  and  C_16 
REMARK    7  A    between atoms: C_16  and  C_18 
REMARK    8  A    between atoms: C_23  and  N_24 
REMARK    9  A    between atoms: N_24  and  S_25 
REMARK   10  A    between atoms: S_25  and  C_28 
ROOT
ATOM      1  C   UNL d   1      26.435 -13.509  -4.272  0.00  0.00     0.059 A 
ATOM      2  C   UNL d   1      25.626 -12.457  -4.777  0.00  0.00     0.019 A 
ATOM      3  C   UNL d   1      26.122 -11.207  -5.135  0.00  0.00     0.001 A 
ATOM      4  C   UNL d   1      27.458 -10.924  -4.939  0.00  0.00     0.002 A 
ATOM      5  C   UNL d   1      28.323 -11.934  -4.528  0.00  0.00     0.031 A 
ATOM      6  C   UNL d   1      27.871 -13.238  -4.228  0.00  0.00     0.058 A 
ENDROOT
BRANCH   1   7
ATOM      7  C   UNL d   1      25.476 -14.747  -3.960  0.00  0.00     0.258 C 
ATOM      8  N   UNL d   1      24.909 -14.932  -2.723  0.00  0.00    -0.321 N 
ATOM      9  H   UNL d   1      24.688 -14.050  -2.278  0.00  0.00     0.169 HD
ATOM     10  O   UNL d   1      25.155 -15.518  -4.867  0.00  0.00    -0.267 OA
BRANCH   8  11
ATOM     11  C   UNL d   1      24.959 -16.055  -1.818  0.00  0.00     0.057 C 
ATOM     12  C   UNL d   1      23.688 -16.641  -1.406  0.00  0.00     0.049 C 
ATOM     13  C   UNL d   1      23.592 -17.841  -0.692  0.00  0.00     0.041 C 
ATOM     14  C   UNL d   1      24.803 -18.483  -0.449  0.00  0.00     0.019 C 
ATOM     15  C   UNL d   1      26.033 -17.817  -0.659  0.00  0.00     0.027 C 
ATOM     16  C   UNL d   1      26.138 -16.540  -1.241  0.00  0.00     0.035 C 
BRANCH  13  17
ATOM     17  C   UNL d   1      22.312 -18.512  -0.210  0.00  0.00     0.293 C 
ATOM     18  O   UNL d   1      22.025 -18.554   0.981  0.00  0.00    -0.259 OA
BRANCH  17  19
ATOM     19  O   UNL d   1      21.510 -19.030  -1.191  0.00  0.00    -0.318 OA
BRANCH  19  20
ATOM     20  C   UNL d   1      20.084 -18.975  -0.895  0.00  0.00     0.174 C 
ATOM     21  C   UNL d   1      19.671 -20.152  -0.023  0.00  0.00     0.034 C 
ENDBRANCH  19  20
ENDBRANCH  17  19
ENDBRANCH  13  17
BRANCH  16  22
ATOM     22  N   UNL d   1      27.433 -15.987  -1.332  0.00  0.00    -0.291 NA
ATOM     23  H   UNL d   1      27.526 -15.655  -2.293  0.00  0.00     0.127 HD
BRANCH  22  24
ATOM     24  C   UNL d   1      27.888 -14.929  -0.401  0.00  0.00     0.088 C 
ATOM     25  C   UNL d   1      26.809 -13.857  -0.220  0.00  0.00     0.021 C 
ENDBRANCH  22  24
ENDBRANCH  16  22
ENDBRANCH   8  11
ENDBRANCH   1   7
BRANCH   6  26
ATOM     26  N   UNL d   1      29.032 -14.135  -4.066  0.00  0.00    -0.280 N 
ATOM     27  H   UNL d   1      29.574 -14.134  -3.207  0.00  0.00     0.179 HD
BRANCH  26  28
ATOM     28  S   UNL d   1      28.897 -15.545  -4.857  0.00  0.00     0.264 S 
ATOM     29  O   UNL d   1      28.996 -16.425  -3.705  0.00  0.00    -0.200 OA
ATOM     30  O   UNL d   1      27.728 -15.377  -5.658  0.00  0.00    -0.200 OA
BRANCH  28  31
ATOM     31  C   UNL d   1      30.187 -16.080  -5.876  0.00  0.00     0.092 C 
ATOM     32  C   UNL d   1      30.671 -17.412  -5.754  0.00  0.00    -0.032 C 
ATOM     33  C   UNL d   1      30.031 -18.602  -5.028  0.00  0.00     0.050 C 
ATOM     34  C   UNL d   1      31.878 -17.674  -6.399  0.00  0.00    -0.054 C 
ATOM     35  C   UNL d   1      32.745 -18.819  -5.959  0.00  0.00     0.049 C 
ATOM     36  C   UNL d   1      32.378 -16.777  -7.356  0.00  0.00     0.014 C 
ATOM     37  C   UNL d   1      31.751 -15.554  -7.620  0.00  0.00    -0.054 C 
ATOM     38  C   UNL d   1      32.369 -14.566  -8.560  0.00  0.00     0.049 C 
ATOM     39  C   UNL d   1      30.617 -15.195  -6.898  0.00  0.00    -0.032 C 
ATOM     40  C   UNL d   1      29.865 -13.924  -7.262  0.00  0.00     0.050 C 
ENDBRANCH  28  31
ENDBRANCH  26  28
ENDBRANCH   6  26
TORSDOF 10
ENDMDL
MODEL 5
REMARK VINA RESULT:    -9.816      3.064      6.860
REMARK INTER + INTRA:         -16.664
REMARK INTER:                 -12.799
REMARK INTRA:                  -3.865
REMARK CONF_INDEPENDENT:        2.983
REMARK UNBOUND:                -3.865
REMARK  10 active torsions:
REMARK  status: ('A' for Active; 'I' for Inactive)
REMARK    1  A    between atoms: C_2  and  N_3 
REMARK    2  A    between atoms: N_3  and  C_4 
REMARK    3  A    between atoms: C_7  and  C_8 
REMARK    4  A    between atoms: C_8  and  O_10 
REMARK    5  A    between atoms: O_10  and  C_11 
REMARK    6  A    between atoms: C_14  and  N_15 
REMARK       I    between atoms: N_15  and  C_16 
REMARK    7  A    between atoms: C_16  and  C_18 
REMARK    8  A    between atoms: C_23  and  N_24 
REMARK    9  A    between atoms: N_24  and  S_25 
REMARK   10  A    between atoms: S_25  and  C_28 
ROOT
ATOM      1  C   UNL d   1      26.192 -13.745  -4.258  0.00  0.00     0.059 A 
ATOM      2  C   UNL d   1      25.687 -12.529  -4.788  0.00  0.00     0.019 A 
ATOM      3  C   UNL d   1      26.325 -11.801  -5.788  0.00  0.00     0.001 A 
ATOM      4  C   UNL d   1      27.548 -12.226  -6.265  0.00  0.00     0.002 A 
ATOM      5  C   UNL d   1      28.060 -13.452  -5.850  0.00  0.00     0.031 A 
ATOM      6  C   UNL d   1      27.405 -14.258  -4.893  0.00  0.00     0.058 A 
ENDROOT
BRANCH   1   7
ATOM      7  C   UNL d   1      25.183 -14.231  -3.120  0.00  0.00     0.258 C 
ATOM      8  N   UNL d   1      25.626 -14.670  -1.896  0.00  0.00    -0.321 N 
ATOM      9  H   UNL d   1      26.456 -14.172  -1.599  0.00  0.00     0.169 HD
ATOM     10  O   UNL d   1      23.967 -14.131  -3.295  0.00  0.00    -0.267 OA
BRANCH   8  11
ATOM     11  C   UNL d   1      25.400 -15.913  -1.198  0.00  0.00     0.057 C 
ATOM     12  C   UNL d   1      24.106 -16.559  -1.384  0.00  0.00     0.049 C 
ATOM     13  C   UNL d   1      23.821 -17.851  -0.927  0.00  0.00     0.041 C 
ATOM     14  C   UNL d   1      24.888 -18.515  -0.329  0.00  0.00     0.019 C 
ATOM     15  C   UNL d   1      26.064 -17.819   0.037  0.00  0.00     0.027 C 
ATOM     16  C   UNL d   1      26.302 -16.470  -0.285  0.00  0.00     0.035 C 
BRANCH  13  17
ATOM     17  C   UNL d   1      22.497 -18.592  -1.063  0.00  0.00     0.293 C 
ATOM     18  O   UNL d   1      22.273 -19.325  -2.020  0.00  0.00    -0.259 OA
BRANCH  17  19
ATOM     19  O   UNL d   1      21.605 -18.402  -0.041  0.00  0.00    -0.318 OA
BRANCH  19  20
ATOM     20  C   UNL d   1      20.630 -19.475   0.115  0.00  0.00     0.174 C 
ATOM     21  C   UNL d   1      19.499 -19.324  -0.894  0.00  0.00     0.034 C 
ENDBRANCH  19  20
ENDBRANCH  17  19
ENDBRANCH  13  17
BRANCH  16  22
ATOM     22  N   UNL d   1      27.500 -15.903   0.199  0.00  0.00    -0.291 NA
ATOM     23  H   UNL d   1      28.141 -15.887  -0.596  0.00  0.00     0.127 HD
BRANCH  22  24
ATOM     24  C   UNL d   1      27.514 -14.581   0.867  0.00  0.00     0.088 C 
ATOM     25  C   UNL d   1      28.147 -13.518  -0.035  0.00  0.00     0.021 C 
ENDBRANCH  22  24
ENDBRANCH  16  22
ENDBRANCH   8  11
ENDBRANCH   1   7
BRANCH   6  26
ATOM     26  N   UNL d   1      28.048 -15.586  -4.847  0.00  0.00    -0.280 N 
ATOM     27  H   UNL d   1      28.291 -16.076  -5.702  0.00  0.00     0.179 HD
BRANCH  26  28
ATOM     28  S   UNL d   1      29.012 -15.812  -3.562  0.00  0.00     0.264 S 
ATOM     29  O   UNL d   1      29.963 -14.750  -3.842  0.00  0.00    -0.200 OA
ATOM     30  O   UNL d   1      28.109 -15.830  -2.457  0.00  0.00    -0.200 OA
BRANCH  28  31
ATOM     31  C   UNL d   1      30.008 -17.223  -3.479  0.00  0.00     0.092 C 
ATOM     32  C   UNL d   1      30.427 -17.857  -4.681  0.00  0.00    -0.032 C 
ATOM     33  C   UNL d   1      30.375 -17.320  -6.117  0.00  0.00     0.050 C 
ATOM     34  C   UNL d   1      30.980 -19.127  -4.529  0.00  0.00    -0.054 C 
ATOM     35  C   UNL d   1      30.989 -20.097  -5.677  0.00  0.00     0.049 C 
ATOM     36  C   UNL d   1      31.382 -19.576  -3.262  0.00  0.00     0.014 C 
ATOM     37  C   UNL d   1      31.154 -18.824  -2.105  0.00  0.00    -0.054 C 
ATOM     38  C   UNL d   1      31.488 -19.378  -0.754  0.00  0.00     0.049 C 
ATOM     39  C   UNL d   1      30.483 -17.609  -2.199  0.00  0.00    -0.032 C 
ATOM     40  C   UNL d   1      30.336 -16.733  -0.964  0.00  0.00     0.050 C 
ENDBRANCH  28  31
ENDBRANCH  26  28
ENDBRANCH   6  26
TORSDOF 10
ENDMDL
MODEL 6
REMARK VINA RESULT:    -9.300      2.222      4.506
REMARK INTER + INTRA:         -16.767
REMARK INTER:                 -12.283
REMARK INTRA:                  -4.484
REMARK CONF_INDEPENDENT:        2.983
REMARK UNBOUND:                -4.484
REMARK  10 active torsions:
REMARK  status: ('A' for Active; 'I' for Inactive)
REMARK    1  A    between atoms: C_2  and  N_3 
REMARK    2  A    between atoms: N_3  and  C_4 
REMARK    3  A    between atoms: C_7  and  C_8 
REMARK    4  A    between atoms: C_8  and  O_10 
REMARK    5  A    between atoms: O_10  and  C_11 
REMARK    6  A    between atoms: C_14  and  N_15 
REMARK       I    between atoms: N_15  and  C_16 
REMARK    7  A    between atoms: C_16  and  C_18 
REMARK    8  A    between atoms: C_23  and  N_24 
REMARK    9  A    between atoms: N_24  and  S_25 
REMARK   10  A    between atoms: S_25  and  C_28 
ROOT
ATOM      1  C   UNL d   1      26.972 -12.657  -2.013  0.00  0.00     0.059 A 
ATOM      2  C   UNL d   1      27.744 -12.310  -0.874  0.00  0.00     0.019 A 
ATOM      3  C   UNL d   1      27.976 -10.998  -0.471  0.00  0.00     0.001 A 
ATOM      4  C   UNL d   1      27.497  -9.956  -1.238  0.00  0.00     0.002 A 
ATOM      5  C   UNL d   1      26.663 -10.224  -2.320  0.00  0.00     0.031 A 
ATOM      6  C   UNL d   1      26.341 -11.541  -2.715  0.00  0.00     0.058 A 
ENDROOT
BRANCH   1   7
ATOM      7  C   UNL d   1      26.982 -14.249  -2.135  0.00  0.00     0.258 C 
ATOM      8  N   UNL d   1      25.821 -14.982  -2.179  0.00  0.00    -0.321 N 
ATOM      9  H   UNL d   1      25.084 -14.483  -2.662  0.00  0.00     0.169 HD
ATOM     10  O   UNL d   1      28.051 -14.846  -2.284  0.00  0.00    -0.267 OA
BRANCH   8  11
ATOM     11  C   UNL d   1      25.357 -16.069  -1.352  0.00  0.00     0.057 C 
ATOM     12  C   UNL d   1      23.940 -16.409  -1.423  0.00  0.00     0.049 C 
ATOM     13  C   UNL d   1      23.394 -17.552  -0.827  0.00  0.00     0.041 C 
ATOM     14  C   UNL d   1      24.314 -18.390  -0.205  0.00  0.00     0.019 C 
ATOM     15  C   UNL d   1      25.638 -17.959   0.045  0.00  0.00     0.027 C 
ATOM     16  C   UNL d   1      26.159 -16.738  -0.420  0.00  0.00     0.035 C 
BRANCH  13  17
ATOM     17  C   UNL d   1      21.930 -17.971  -0.840  0.00  0.00     0.293 C 
ATOM     18  O   UNL d   1      21.030 -17.141  -0.901  0.00  0.00    -0.259 OA
BRANCH  17  19
ATOM     19  O   UNL d   1      21.701 -19.321  -0.805  0.00  0.00    -0.318 OA
BRANCH  19  20
ATOM     20  C   UNL d   1      20.298 -19.697  -0.920  0.00  0.00     0.174 C 
ATOM     21  C   UNL d   1      19.658 -19.814   0.457  0.00  0.00     0.034 C 
ENDBRANCH  19  20
ENDBRANCH  17  19
ENDBRANCH  13  17
BRANCH  16  22
ATOM     22  N   UNL d   1      27.482 -16.426  -0.040  0.00  0.00    -0.291 NA
ATOM     23  H   UNL d   1      27.947 -16.104  -0.890  0.00  0.00     0.127 HD
BRANCH  22  24
ATOM     24  C   UNL d   1      27.765 -15.478   1.062  0.00  0.00     0.088 C 
ATOM     25  C   UNL d   1      29.183 -14.909   0.945  0.00  0.00     0.021 C 
ENDBRANCH  22  24
ENDBRANCH  16  22
ENDBRANCH   8  11
ENDBRANCH   1   7
BRANCH   6  26
ATOM     26  N   UNL d   1      25.258 -11.502  -3.717  0.00  0.00    -0.280 N 
ATOM     27  H   UNL d   1      24.700 -10.664  -3.846  0.00  0.00     0.179 HD
BRANCH  26  28
ATOM     28  S   UNL d   1      25.531 -12.420  -5.026  0.00  0.00     0.264 S 
ATOM     29  O   UNL d   1      24.784 -13.592  -4.601  0.00  0.00    -0.200 OA
ATOM     30  O   UNL d   1      25.171 -11.574  -6.117  0.00  0.00    -0.200 OA
BRANCH  28  31
ATOM     31  C   UNL d   1      27.116 -13.045  -5.317  0.00  0.00     0.092 C 
ATOM     32  C   UNL d   1      27.325 -14.452  -5.324  0.00  0.00    -0.032 C 
ATOM     33  C   UNL d   1      26.284 -15.575  -5.394  0.00  0.00     0.050 C 
ATOM     34  C   UNL d   1      28.657 -14.861  -5.283  0.00  0.00    -0.054 C 
ATOM     35  C   UNL d   1      29.018 -16.230  -4.782  0.00  0.00     0.049 C 
ATOM     36  C   UNL d   1      29.686 -13.947  -5.552  0.00  0.00     0.014 C 
ATOM     37  C   UNL d   1      29.431 -12.587  -5.765  0.00  0.00    -0.054 C 
ATOM     38  C   UNL d   1      30.556 -11.614  -5.933  0.00  0.00     0.049 C 
ATOM     39  C   UNL d   1      28.125 -12.115  -5.679  0.00  0.00    -0.032 C 
ATOM     40  C   UNL d   1      27.826 -10.664  -6.025  0.00  0.00     0.050 C 
ENDBRANCH  28  31
ENDBRANCH  26  28
ENDBRANCH   6  26
TORSDOF 10
ENDMDL
MODEL 7
REMARK VINA RESULT:    -9.048      3.210      5.078
REMARK INTER + INTRA:         -16.628
REMARK INTER:                 -12.031
REMARK INTRA:                  -4.598
REMARK CONF_INDEPENDENT:        2.983
REMARK UNBOUND:                -4.598
REMARK  10 active torsions:
REMARK  status: ('A' for Active; 'I' for Inactive)
REMARK    1  A    between atoms: C_2  and  N_3 
REMARK    2  A    between atoms: N_3  and  C_4 
REMARK    3  A    between atoms: C_7  and  C_8 
REMARK    4  A    between atoms: C_8  and  O_10 
REMARK    5  A    between atoms: O_10  and  C_11 
REMARK    6  A    between atoms: C_14  and  N_15 
REMARK       I    between atoms: N_15  and  C_16 
REMARK    7  A    between atoms: C_16  and  C_18 
REMARK    8  A    between atoms: C_23  and  N_24 
REMARK    9  A    between atoms: N_24  and  S_25 
REMARK   10  A    between atoms: S_25  and  C_28 
ROOT
ATOM      1  C   UNL d   1      26.868 -13.641  -3.463  0.00  0.00     0.059 A 
ATOM      2  C   UNL d   1      27.574 -13.932  -4.659  0.00  0.00     0.019 A 
ATOM      3  C   UNL d   1      28.690 -13.219  -5.089  0.00  0.00     0.001 A 
ATOM      4  C   UNL d   1      29.116 -12.123  -4.366  0.00  0.00     0.002 A 
ATOM      5  C   UNL d   1      28.523 -11.833  -3.141  0.00  0.00     0.031 A 
ATOM      6  C   UNL d   1      27.437 -12.581  -2.633  0.00  0.00     0.058 A 
ENDROOT
BRANCH   1   7
ATOM      7  C   UNL d   1      25.648 -14.666  -3.361  0.00  0.00     0.258 C 
ATOM      8  N   UNL d   1      24.994 -14.902  -2.177  0.00  0.00    -0.321 N 
ATOM      9  H   UNL d   1      24.950 -14.070  -1.603  0.00  0.00     0.169 HD
ATOM     10  O   UNL d   1      25.210 -15.201  -4.383  0.00  0.00    -0.267 OA
BRANCH   8  11
ATOM     11  C   UNL d   1      24.753 -16.131  -1.459  0.00  0.00     0.057 C 
ATOM     12  C   UNL d   1      23.364 -16.536  -1.271  0.00  0.00     0.049 C 
ATOM     13  C   UNL d   1      22.991 -17.787  -0.767  0.00  0.00     0.041 C 
ATOM     14  C   UNL d   1      24.046 -18.659  -0.510  0.00  0.00     0.019 C 
ATOM     15  C   UNL d   1      25.383 -18.196  -0.490  0.00  0.00     0.027 C 
ATOM     16  C   UNL d   1      25.759 -16.889  -0.851  0.00  0.00     0.035 C 
BRANCH  13  17
ATOM     17  C   UNL d   1      21.572 -18.283  -0.525  0.00  0.00     0.293 C 
ATOM     18  O   UNL d   1      20.618 -17.801  -1.125  0.00  0.00    -0.259 OA
BRANCH  17  19
ATOM     19  O   UNL d   1      21.449 -19.307   0.375  0.00  0.00    -0.318 OA
BRANCH  19  20
ATOM     20  C   UNL d   1      20.126 -19.425   0.977  0.00  0.00     0.174 C 
ATOM     21  C   UNL d   1      19.273 -20.426   0.209  0.00  0.00     0.034 C 
ENDBRANCH  19  20
ENDBRANCH  17  19
ENDBRANCH  13  17
BRANCH  16  22
ATOM     22  N   UNL d   1      27.127 -16.565  -0.726  0.00  0.00    -0.291 NA
ATOM     23  H   UNL d   1      27.158 -15.694  -0.194  0.00  0.00     0.127 HD
BRANCH  22  24
ATOM     24  C   UNL d   1      28.099 -17.525  -0.152  0.00  0.00     0.088 C 
ATOM     25  C   UNL d   1      29.522 -17.212  -0.624  0.00  0.00     0.021 C 
ENDBRANCH  22  24
ENDBRANCH  16  22
ENDBRANCH   8  11
ENDBRANCH   1   7
BRANCH   6  26
ATOM     26  N   UNL d   1      27.194 -12.199  -1.228  0.00  0.00    -0.280 N 
ATOM     27  H   UNL d   1      26.453 -11.547  -0.988  0.00  0.00     0.179 HD
BRANCH  26  28
ATOM     28  S   UNL d   1      27.531 -13.367  -0.154  0.00  0.00     0.264 S 
ATOM     29  O   UNL d   1      26.172 -13.832   0.062  0.00  0.00    -0.200 OA
ATOM     30  O   UNL d   1      28.563 -14.123  -0.786  0.00  0.00    -0.200 OA
BRANCH  28  31
ATOM     31  C   UNL d   1      28.060 -12.939   1.435  0.00  0.00     0.092 C 
ATOM     32  C   UNL d   1      29.035 -13.742   2.089  0.00  0.00    -0.032 C 
ATOM     33  C   UNL d   1      29.946 -14.821   1.491  0.00  0.00     0.050 C 
ATOM     34  C   UNL d   1      29.197 -13.500   3.452  0.00  0.00    -0.054 C 
ATOM     35  C   UNL d   1      29.773 -14.556   4.351  0.00  0.00     0.049 C 
ATOM     36  C   UNL d   1      28.673 -12.333   4.029  0.00  0.00     0.014 C 
ATOM     37  C   UNL d   1      27.892 -11.433   3.297  0.00  0.00    -0.054 C 
ATOM     38  C   UNL d   1      27.249 -10.257   3.966  0.00  0.00     0.049 C 
ATOM     39  C   UNL d   1      27.594 -11.709   1.967  0.00  0.00    -0.032 C 
ATOM     40  C   UNL d   1      26.846 -10.679   1.134  0.00  0.00     0.050 C 
ENDBRANCH  28  31
ENDBRANCH  26  28
ENDBRANCH   6  26
TORSDOF 10
ENDMDL
MODEL 8
REMARK VINA RESULT:    -9.038      3.117      4.673
REMARK INTER + INTRA:         -16.503
REMARK INTER:                 -12.021
REMARK INTRA:                  -4.481
REMARK CONF_INDEPENDENT:        2.983
REMARK UNBOUND:                -4.481
REMARK  10 active torsions:
REMARK  status: ('A' for Active; 'I' for Inactive)
REMARK    1  A    between atoms: C_2  and  N_3 
REMARK    2  A    between atoms: N_3  and  C_4 
REMARK    3  A    between atoms: C_7  and  C_8 
REMARK    4  A    between atoms: C_8  and  O_10 
REMARK    5  A    between atoms: O_10  and  C_11 
REMARK    6  A    between atoms: C_14  and  N_15 
REMARK       I    between atoms: N_15  and  C_16 
REMARK    7  A    between atoms: C_16  and  C_18 
REMARK    8  A    between atoms: C_23  and  N_24 
REMARK    9  A    between atoms: N_24  and  S_25 
REMARK   10  A    between atoms: S_25  and  C_28 
ROOT
ATOM      1  C   UNL d   1      26.631 -14.124  -3.933  0.00  0.00     0.059 A 
ATOM      2  C   UNL d   1      27.076 -15.255  -4.667  0.00  0.00     0.019 A 
ATOM      3  C   UNL d   1      28.170 -15.235  -5.527  0.00  0.00     0.001 A 
ATOM      4  C   UNL d   1      28.838 -14.048  -5.749  0.00  0.00     0.002 A 
ATOM      5  C   UNL d   1      28.509 -12.921  -5.001  0.00  0.00     0.031 A 
ATOM      6  C   UNL d   1      27.454 -12.923  -4.061  0.00  0.00     0.058 A 
ENDROOT
BRANCH   1   7
ATOM      7  C   UNL d   1      25.341 -14.565  -3.102  0.00  0.00     0.258 C 
ATOM      8  N   UNL d   1      25.427 -14.984  -1.797  0.00  0.00    -0.321 N 
ATOM      9  H   UNL d   1      26.157 -14.496  -1.296  0.00  0.00     0.169 HD
ATOM     10  O   UNL d   1      24.220 -14.447  -3.602  0.00  0.00    -0.267 OA
BRANCH   8  11
ATOM     11  C   UNL d   1      24.990 -16.207  -1.166  0.00  0.00     0.057 C 
ATOM     12  C   UNL d   1      23.574 -16.540  -1.258  0.00  0.00     0.049 C 
ATOM     13  C   UNL d   1      23.049 -17.776  -0.862  0.00  0.00     0.041 C 
ATOM     14  C   UNL d   1      23.989 -18.705  -0.426  0.00  0.00     0.019 C 
ATOM     15  C   UNL d   1      25.318 -18.314  -0.140  0.00  0.00     0.027 C 
ATOM     16  C   UNL d   1      25.822 -17.025  -0.392  0.00  0.00     0.035 C 
BRANCH  13  17
ATOM     17  C   UNL d   1      21.586 -18.199  -0.909  0.00  0.00     0.293 C 
ATOM     18  O   UNL d   1      20.710 -17.422  -1.270  0.00  0.00    -0.259 OA
BRANCH  17  19
ATOM     19  O   UNL d   1      21.335 -19.496  -0.550  0.00  0.00    -0.318 OA
BRANCH  19  20
ATOM     20  C   UNL d   1      19.943 -19.769  -0.214  0.00  0.00     0.174 C 
ATOM     21  C   UNL d   1      19.820 -20.236   1.230  0.00  0.00     0.034 C 
ENDBRANCH  19  20
ENDBRANCH  17  19
ENDBRANCH  13  17
BRANCH  16  22
ATOM     22  N   UNL d   1      27.154 -16.775   0.000  0.00  0.00    -0.291 NA
ATOM     23  H   UNL d   1      27.201 -17.013   0.992  0.00  0.00     0.127 HD
BRANCH  22  24
ATOM     24  C   UNL d   1      28.297 -17.396  -0.708  0.00  0.00     0.088 C 
ATOM     25  C   UNL d   1      28.579 -16.676  -2.030  0.00  0.00     0.021 C 
ENDBRANCH  22  24
ENDBRANCH  16  22
ENDBRANCH   8  11
ENDBRANCH   1   7
BRANCH   6  26
ATOM     26  N   UNL d   1      27.509 -11.684  -3.261  0.00  0.00    -0.280 N 
ATOM     27  H   UNL d   1      27.237 -10.792  -3.664  0.00  0.00     0.179 HD
BRANCH  26  28
ATOM     28  S   UNL d   1      27.222 -11.901  -1.679  0.00  0.00     0.264 S 
ATOM     29  O   UNL d   1      27.562 -10.561  -1.233  0.00  0.00    -0.200 OA
ATOM     30  O   UNL d   1      25.912 -12.466  -1.645  0.00  0.00    -0.200 OA
BRANCH  28  31
ATOM     31  C   UNL d   1      28.277 -12.907  -0.750  0.00  0.00     0.092 C 
ATOM     32  C   UNL d   1      29.582 -13.193  -1.237  0.00  0.00    -0.032 C 
ATOM     33  C   UNL d   1      30.355 -12.505  -2.369  0.00  0.00     0.050 C 
ATOM     34  C   UNL d   1      30.257 -14.221  -0.581  0.00  0.00    -0.054 C 
ATOM     35  C   UNL d   1      31.370 -14.962  -1.267  0.00  0.00     0.049 C 
ATOM     36  C   UNL d   1      29.797 -14.689   0.659  0.00  0.00     0.014 C 
ATOM     37  C   UNL d   1      28.608 -14.225   1.230  0.00  0.00    -0.054 C 
ATOM     38  C   UNL d   1      28.081 -14.824   2.497  0.00  0.00     0.049 C 
ATOM     39  C   UNL d   1      27.835 -13.295   0.542  0.00  0.00    -0.032 C 
ATOM     40  C   UNL d   1      26.604 -12.698   1.208  0.00  0.00     0.050 C 
ENDBRANCH  28  31
ENDBRANCH  26  28
ENDBRANCH   6  26
TORSDOF 10
ENDMDL
MODEL 9
REMARK VINA RESULT:    -8.725      2.533      4.223
REMARK INTER + INTRA:         -16.386
REMARK INTER:                 -11.708
REMARK INTRA:                  -4.678
REMARK CONF_INDEPENDENT:        2.983
REMARK UNBOUND:                -4.678
REMARK  10 active torsions:
REMARK  status: ('A' for Active; 'I' for Inactive)
REMARK    1  A    between atoms: C_2  and  N_3 
REMARK    2  A    between atoms: N_3  and  C_4 
REMARK    3  A    between atoms: C_7  and  C_8 
REMARK    4  A    between atoms: C_8  and  O_10 
REMARK    5  A    between atoms: O_10  and  C_11 
REMARK    6  A    between atoms: C_14  and  N_15 
REMARK       I    between atoms: N_15  and  C_16 
REMARK    7  A    between atoms: C_16  and  C_18 
REMARK    8  A    between atoms: C_23  and  N_24 
REMARK    9  A    between atoms: N_24  and  S_25 
REMARK   10  A    between atoms: S_25  and  C_28 
ROOT
ATOM      1  C   UNL d   1      26.750 -13.836  -4.313  0.00  0.00     0.059 A 
ATOM      2  C   UNL d   1      27.545 -14.232  -5.421  0.00  0.00     0.019 A 
ATOM      3  C   UNL d   1      28.494 -13.410  -6.022  0.00  0.00     0.001 A 
ATOM      4  C   UNL d   1      28.648 -12.112  -5.579  0.00  0.00     0.002 A 
ATOM      5  C   UNL d   1      27.962 -11.685  -4.445  0.00  0.00     0.031 A 
ATOM      6  C   UNL d   1      27.047 -12.516  -3.761  0.00  0.00     0.058 A 
ENDROOT
BRANCH   1   7
ATOM      7  C   UNL d   1      25.778 -15.051  -3.959  0.00  0.00     0.258 C 
ATOM      8  N   UNL d   1      25.120 -15.128  -2.755  0.00  0.00    -0.321 N 
ATOM      9  H   UNL d   1      24.862 -14.211  -2.412  0.00  0.00     0.169 HD
ATOM     10  O   UNL d   1      25.529 -15.907  -4.812  0.00  0.00    -0.267 OA
BRANCH   8  11
ATOM     11  C   UNL d   1      25.108 -16.162  -1.748  0.00  0.00     0.057 C 
ATOM     12  C   UNL d   1      23.818 -16.751  -1.409  0.00  0.00     0.049 C 
ATOM     13  C   UNL d   1      23.681 -17.885  -0.598  0.00  0.00     0.041 C 
ATOM     14  C   UNL d   1      24.878 -18.460  -0.180  0.00  0.00     0.019 C 
ATOM     15  C   UNL d   1      26.106 -17.774  -0.331  0.00  0.00     0.027 C 
ATOM     16  C   UNL d   1      26.235 -16.552  -1.017  0.00  0.00     0.035 C 
BRANCH  13  17
ATOM     17  C   UNL d   1      22.377 -18.552  -0.181  0.00  0.00     0.293 C 
ATOM     18  O   UNL d   1      22.019 -18.573   0.991  0.00  0.00    -0.259 OA
BRANCH  17  19
ATOM     19  O   UNL d   1      21.638 -19.092  -1.200  0.00  0.00    -0.318 OA
BRANCH  19  20
ATOM     20  C   UNL d   1      20.196 -19.035  -0.994  0.00  0.00     0.174 C 
ATOM     21  C   UNL d   1      19.752 -20.103  -0.005  0.00  0.00     0.034 C 
ENDBRANCH  19  20
ENDBRANCH  17  19
ENDBRANCH  13  17
BRANCH  16  22
ATOM     22  N   UNL d   1      27.519 -15.965  -1.033  0.00  0.00    -0.291 NA
ATOM     23  H   UNL d   1      27.374 -14.973  -0.839  0.00  0.00     0.127 HD
BRANCH  22  24
ATOM     24  C   UNL d   1      28.613 -16.478  -0.176  0.00  0.00     0.088 C 
ATOM     25  C   UNL d   1      29.379 -17.602  -0.880  0.00  0.00     0.021 C 
ENDBRANCH  22  24
ENDBRANCH  16  22
ENDBRANCH   8  11
ENDBRANCH   1   7
BRANCH   6  26
ATOM     26  N   UNL d   1      26.676 -11.885  -2.479  0.00  0.00    -0.280 N 
ATOM     27  H   UNL d   1      25.814 -11.355  -2.390  0.00  0.00     0.179 HD
BRANCH  26  28
ATOM     28  S   UNL d   1      27.191 -12.690  -1.169  0.00  0.00     0.264 S 
ATOM     29  O   UNL d   1      25.984 -13.464  -0.929  0.00  0.00    -0.200 OA
ATOM     30  O   UNL d   1      28.445 -13.237  -1.575  0.00  0.00    -0.200 OA
BRANCH  28  31
ATOM     31  C   UNL d   1      27.420 -11.843   0.320  0.00  0.00     0.092 C 
ATOM     32  C   UNL d   1      27.454 -10.421   0.319  0.00  0.00    -0.032 C 
ATOM     33  C   UNL d   1      27.026  -9.452  -0.790  0.00  0.00     0.050 C 
ATOM     34  C   UNL d   1      27.918  -9.830   1.493  0.00  0.00    -0.054 C 
ATOM     35  C   UNL d   1      28.483  -8.438   1.475  0.00  0.00     0.049 C 
ATOM     36  C   UNL d   1      28.017 -10.584   2.673  0.00  0.00     0.014 C 
ATOM     37  C   UNL d   1      27.759 -11.959   2.695  0.00  0.00    -0.054 C 
ATOM     38  C   UNL d   1      27.985 -12.760   3.939  0.00  0.00     0.049 C 
ATOM     39  C   UNL d   1      27.424 -12.612   1.513  0.00  0.00    -0.032 C 
ATOM     40  C   UNL d   1      27.028 -14.080   1.551  0.00  0.00     0.050 C 
ENDBRANCH  28  31
ENDBRANCH  26  28
ENDBRANCH   6  26
TORSDOF 10
ENDMDL
