MODEL 1
REMARK VINA RESULT:    -8.669      0.000      0.000
REMARK INTER + INTRA:         -12.218
REMARK INTER:                 -10.757
REMARK INTRA:                  -1.461
REMARK CONF_INDEPENDENT:        2.088
REMARK UNBOUND:                -1.461
REMARK  7 active torsions:
REMARK  status: ('A' for Active; 'I' for Inactive)
REMARK    1  A    between atoms: C_2  and  CA_3 
REMARK    2  A    between atoms: CA_3  and  C_4 
REMARK    3  A    between atoms: CA_3  and  N_6 
REMARK    4  A    between atoms: C_4  and  O_5 
REMARK       I    between atoms: N_6  and  C_7 
REMARK    5  A    between atoms: C_7  and  C_9 
REMARK       I    between atoms: C_9  and  N_11 
REMARK    6  A    between atoms: N_11  and  C_12 
REMARK    7  A    between atoms: C_14  and  C_15 
REMARK       I    between atoms: C_15  and  N_17 
ROOT
ATOM      1  C   UNL d   1      22.519 -18.465  -0.945  0.00  0.00     0.314 C 
ATOM      2  O   UNL d   1      23.108 -19.490  -1.281  0.00  0.00    -0.262 OA
ATOM      3  N   UNL d   1      23.065 -17.183  -0.852  0.00  0.00    -0.318 N 
ATOM      4  H   UNL d   1      22.517 -16.483  -0.358  0.00  0.00     0.169 HD
ENDROOT
BRANCH   3   5
ATOM      5  C   UNL d   1      24.406 -16.886  -1.206  0.00  0.00     0.042 A 
ATOM      6  C   UNL d   1      24.647 -16.120  -2.358  0.00  0.00     0.047 A 
ATOM      7  C   UNL d   1      25.943 -15.808  -2.783  0.00  0.00     0.034 A 
ATOM      8  C   UNL d   1      27.023 -16.282  -2.030  0.00  0.00     0.017 A 
ATOM      9  C   UNL d   1      26.803 -17.033  -0.869  0.00  0.00     0.010 A 
ATOM     10  C   UNL d   1      25.496 -17.330  -0.434  0.00  0.00    -0.035 A 
ATOM     11  C   UNL d   1      25.318 -18.198   0.780  0.00  0.00     0.050 C 
BRANCH   7  12
ATOM     12  C   UNL d   1      26.218 -14.995  -4.014  0.00  0.00     0.251 C 
ATOM     13  O   UNL d   1      25.278 -14.511  -4.641  0.00  0.00    -0.268 OA
ATOM     14  N   UNL d   1      27.535 -14.823  -4.400  0.00  0.00    -0.361 N 
ATOM     15  C   UNL d   1      27.906 -14.039  -5.556  0.00  0.00     0.149 C 
ATOM     16  H   UNL d   1      28.295 -15.216  -3.868  0.00  0.00     0.162 HD
ENDBRANCH   7  12
ENDBRANCH   3   5
BRANCH   1  17
ATOM     17  C   UNL d   1      21.036 -18.586  -0.523  0.00  0.00     0.310 C 
ATOM     18  N   UNL d   1      20.754 -19.561   0.430  0.00  0.00    -0.346 N 
ATOM     19  H   UNL d   1      21.541 -20.115   0.766  0.00  0.00     0.163 HD
ATOM     20  O   UNL d   1      20.211 -17.829  -1.027  0.00  0.00    -0.262 OA
BRANCH  18  21
ATOM     21  CA  UNL d   1      19.401 -19.784   0.978  0.00  0.00     0.108 C 
BRANCH  21  22
ATOM     22  C   UNL d   1      18.605 -20.839   0.164  0.00  0.00     0.023 C 
ATOM     23  C   UNL d   1      17.536 -21.578   0.972  0.00  0.00     0.007 C 
ENDBRANCH  21  22
BRANCH  21  24
ATOM     24  C   UNL d   1      19.477 -20.169   2.477  0.00  0.00     0.189 C 
BRANCH  24  25
ATOM     25  O   UNL d   1      20.653 -19.724   3.141  0.00  0.00    -0.399 OA
ATOM     26  H   UNL d   1      21.394 -20.285   2.855  0.00  0.00     0.209 HD
ENDBRANCH  24  25
ENDBRANCH  21  24
ENDBRANCH  18  21
ENDBRANCH   1  17
TORSDOF 7
ENDMDL
MODEL 2
REMARK VINA RESULT:    -7.718      1.779      2.194
REMARK INTER + INTRA:         -12.179
REMARK INTER:                  -9.806
REMARK INTRA:                  -2.373
REMARK CONF_INDEPENDENT:        2.088
REMARK UNBOUND:                -2.373
REMARK  7 active torsions:
REMARK  status: ('A' for Active; 'I' for Inactive)
REMARK    1  A    between atoms: C_2  and  CA_3 
REMARK    2  A    between atoms: CA_3  and  C_4 
REMARK    3  A    between atoms: CA_3  and  N_6 
REMARK    4  A    between atoms: C_4  and  O_5 
REMARK       I    between atoms: N_6  and  C_7 
REMARK    5  A    between atoms: C_7  and  C_9 
REMARK       I    between atoms: C_9  and  N_11 
REMARK    6  A    between atoms: N_11  and  C_12 
REMARK    7  A    between atoms: C_14  and  C_15 
REMARK       I    between atoms: C_15  and  N_17 
ROOT
ATOM      1  C   UNL d   1      23.358 -17.453  -0.952  0.00  0.00     0.314 C 
ATOM      2  O   UNL d   1      23.216 -16.512  -0.174  0.00  0.00    -0.262 OA
ATOM      3  N   UNL d   1      24.372 -17.605  -1.900  0.00  0.00    -0.318 N 
ATOM      4  H   UNL d   1      24.237 -18.320  -2.610  0.00  0.00     0.169 HD
ENDROOT
BRANCH   3   5
ATOM      5  C   UNL d   1      25.440 -16.682  -2.045  0.00  0.00     0.042 A 
ATOM      6  C   UNL d   1      25.516 -15.914  -3.219  0.00  0.00     0.047 A 
ATOM      7  C   UNL d   1      26.553 -15.003  -3.443  0.00  0.00     0.034 A 
ATOM      8  C   UNL d   1      27.540 -14.863  -2.460  0.00  0.00     0.017 A 
ATOM      9  C   UNL d   1      27.473 -15.607  -1.276  0.00  0.00     0.010 A 
ATOM     10  C   UNL d   1      26.417 -16.511  -1.046  0.00  0.00    -0.035 A 
ATOM     11  C   UNL d   1      26.432 -17.335   0.211  0.00  0.00     0.050 C 
BRANCH   7  12
ATOM     12  C   UNL d   1      26.652 -14.179  -4.693  0.00  0.00     0.251 C 
ATOM     13  O   UNL d   1      27.051 -14.702  -5.731  0.00  0.00    -0.268 OA
ATOM     14  N   UNL d   1      26.287 -12.846  -4.626  0.00  0.00    -0.361 N 
ATOM     15  C   UNL d   1      26.325 -11.976  -5.778  0.00  0.00     0.149 C 
ATOM     16  H   UNL d   1      25.951 -12.436  -3.770  0.00  0.00     0.162 HD
ENDBRANCH   7  12
ENDBRANCH   3   5
BRANCH   1  17
ATOM     17  C   UNL d   1      22.289 -18.570  -0.942  0.00  0.00     0.310 C 
ATOM     18  N   UNL d   1      21.474 -18.620   0.187  0.00  0.00    -0.346 N 
ATOM     19  H   UNL d   1      21.652 -17.925   0.911  0.00  0.00     0.163 HD
ATOM     20  O   UNL d   1      22.207 -19.325  -1.908  0.00  0.00    -0.262 OA
BRANCH  18  21
ATOM     21  CA  UNL d   1      20.375 -19.593   0.344  0.00  0.00     0.108 C 
BRANCH  21  22
ATOM     22  C   UNL d   1      19.865 -19.670   1.808  0.00  0.00     0.023 C 
ATOM     23  C   UNL d   1      18.803 -20.746   2.045  0.00  0.00     0.007 C 
ENDBRANCH  21  22
BRANCH  21  24
ATOM     24  C   UNL d   1      19.221 -19.274  -0.640  0.00  0.00     0.189 C 
BRANCH  24  25
ATOM     25  O   UNL d   1      19.453 -19.696  -1.978  0.00  0.00    -0.399 OA
ATOM     26  H   UNL d   1      20.128 -19.114  -2.367  0.00  0.00     0.209 HD
ENDBRANCH  24  25
ENDBRANCH  21  24
ENDBRANCH  18  21
ENDBRANCH   1  17
TORSDOF 7
ENDMDL
MODEL 3
REMARK VINA RESULT:    -7.599      1.887      8.514
REMARK INTER + INTRA:         -11.945
REMARK INTER:                  -9.687
REMARK INTRA:                  -2.258
REMARK CONF_INDEPENDENT:        2.088
REMARK UNBOUND:                -2.258
REMARK  7 active torsions:
REMARK  status: ('A' for Active; 'I' for Inactive)
REMARK    1  A    between atoms: C_2  and  CA_3 
REMARK    2  A    between atoms: CA_3  and  C_4 
REMARK    3  A    between atoms: CA_3  and  N_6 
REMARK    4  A    between atoms: C_4  and  O_5 
REMARK       I    between atoms: N_6  and  C_7 
REMARK    5  A    between atoms: C_7  and  C_9 
REMARK       I    between atoms: C_9  and  N_11 
REMARK    6  A    between atoms: N_11  and  C_12 
REMARK    7  A    between atoms: C_14  and  C_15 
REMARK       I    between atoms: C_15  and  N_17 
ROOT
ATOM      1  C   UNL d   1      25.557 -14.995  -3.208  0.00  0.00     0.314 C 
ATOM      2  O   UNL d   1      25.530 -15.916  -4.021  0.00  0.00    -0.262 OA
ATOM      3  N   UNL d   1      25.212 -15.065  -1.857  0.00  0.00    -0.318 N 
ATOM      4  H   UNL d   1      25.079 -14.183  -1.368  0.00  0.00     0.169 HD
ENDROOT
BRANCH   3   5
ATOM      5  C   UNL d   1      24.828 -16.273  -1.218  0.00  0.00     0.042 A 
ATOM      6  C   UNL d   1      23.478 -16.656  -1.253  0.00  0.00     0.047 A 
ATOM      7  C   UNL d   1      23.022 -17.819  -0.624  0.00  0.00     0.034 A 
ATOM      8  C   UNL d   1      23.950 -18.615   0.058  0.00  0.00     0.017 A 
ATOM      9  C   UNL d   1      25.303 -18.258   0.089  0.00  0.00     0.010 A 
ATOM     10  C   UNL d   1      25.762 -17.095  -0.560  0.00  0.00    -0.035 A 
ATOM     11  C   UNL d   1      27.212 -16.722  -0.436  0.00  0.00     0.050 C 
BRANCH   7  12
ATOM     12  C   UNL d   1      21.582 -18.242  -0.647  0.00  0.00     0.251 C 
ATOM     13  O   UNL d   1      20.764 -17.563  -1.264  0.00  0.00    -0.268 OA
ATOM     14  N   UNL d   1      21.229 -19.390   0.039  0.00  0.00    -0.361 N 
ATOM     15  C   UNL d   1      19.874 -19.892   0.059  0.00  0.00     0.149 C 
ATOM     16  H   UNL d   1      21.914 -19.941   0.530  0.00  0.00     0.162 HD
ENDBRANCH   7  12
ENDBRANCH   3   5
BRANCH   1  17
ATOM     17  C   UNL d   1      25.958 -13.590  -3.718  0.00  0.00     0.310 C 
ATOM     18  N   UNL d   1      26.721 -13.562  -4.882  0.00  0.00    -0.346 N 
ATOM     19  H   UNL d   1      26.956 -14.463  -5.297  0.00  0.00     0.163 HD
ATOM     20  O   UNL d   1      25.581 -12.601  -3.094  0.00  0.00    -0.262 OA
BRANCH  18  21
ATOM     21  CA  UNL d   1      27.154 -12.308  -5.531  0.00  0.00     0.108 C 
BRANCH  21  22
ATOM     22  C   UNL d   1      27.934 -12.568  -6.847  0.00  0.00     0.023 C 
ATOM     23  C   UNL d   1      28.770 -13.849  -6.837  0.00  0.00     0.007 C 
ENDBRANCH  21  22
BRANCH  21  24
ATOM     24  C   UNL d   1      25.941 -11.373  -5.769  0.00  0.00     0.189 C 
BRANCH  24  25
ATOM     25  O   UNL d   1      25.570 -10.590  -4.642  0.00  0.00    -0.399 OA
ATOM     26  H   UNL d   1      24.762 -10.972  -4.259  0.00  0.00     0.209 HD
ENDBRANCH  24  25
ENDBRANCH  21  24
ENDBRANCH  18  21
ENDBRANCH   1  17
TORSDOF 7
ENDMDL
MODEL 4
REMARK VINA RESULT:    -7.297      2.630      8.561
REMARK INTER + INTRA:         -11.608
REMARK INTER:                  -9.385
REMARK INTRA:                  -2.223
REMARK CONF_INDEPENDENT:        2.088
REMARK UNBOUND:                -2.223
REMARK  7 active torsions:
REMARK  status: ('A' for Active; 'I' for Inactive)
REMARK    1  A    between atoms: C_2  and  CA_3 
REMARK    2  A    between atoms: CA_3  and  C_4 
REMARK    3  A    between atoms: CA_3  and  N_6 
REMARK    4  A    between atoms: C_4  and  O_5 
REMARK       I    between atoms: N_6  and  C_7 
REMARK    5  A    between atoms: C_7  and  C_9 
REMARK       I    between atoms: C_9  and  N_11 
REMARK    6  A    between atoms: N_11  and  C_12 
REMARK    7  A    between atoms: C_14  and  C_15 
REMARK       I    between atoms: C_15  and  N_17 
ROOT
ATOM      1  C   UNL d   1      25.330 -14.264  -2.547  0.00  0.00     0.314 C 
ATOM      2  O   UNL d   1      24.752 -14.805  -3.487  0.00  0.00    -0.262 OA
ATOM      3  N   UNL d   1      25.535 -14.801  -1.274  0.00  0.00    -0.318 N 
ATOM      4  H   UNL d   1      25.836 -14.158  -0.545  0.00  0.00     0.169 HD
ENDROOT
BRANCH   3   5
ATOM      5  C   UNL d   1      25.136 -16.114  -0.914  0.00  0.00     0.042 A 
ATOM      6  C   UNL d   1      23.770 -16.438  -0.950  0.00  0.00     0.047 A 
ATOM      7  C   UNL d   1      23.300 -17.704  -0.586  0.00  0.00     0.034 A 
ATOM      8  C   UNL d   1      24.228 -18.666  -0.172  0.00  0.00     0.017 A 
ATOM      9  C   UNL d   1      25.596 -18.367  -0.146  0.00  0.00     0.010 A 
ATOM     10  C   UNL d   1      26.068 -17.096  -0.531  0.00  0.00    -0.035 A 
ATOM     11  C   UNL d   1      27.538 -16.807  -0.417  0.00  0.00     0.050 C 
BRANCH   7  12
ATOM     12  C   UNL d   1      21.843 -18.066  -0.614  0.00  0.00     0.251 C 
ATOM     13  O   UNL d   1      21.029 -17.262  -1.061  0.00  0.00    -0.268 OA
ATOM     14  N   UNL d   1      21.471 -19.306  -0.126  0.00  0.00    -0.361 N 
ATOM     15  C   UNL d   1      20.098 -19.757  -0.130  0.00  0.00     0.149 C 
ATOM     16  H   UNL d   1      22.152 -19.959   0.227  0.00  0.00     0.162 HD
ENDBRANCH   7  12
ENDBRANCH   3   5
BRANCH   1  17
ATOM     17  C   UNL d   1      25.846 -12.820  -2.748  0.00  0.00     0.310 C 
ATOM     18  N   UNL d   1      25.536 -12.230  -3.971  0.00  0.00    -0.346 N 
ATOM     19  H   UNL d   1      25.003 -12.795  -4.630  0.00  0.00     0.163 HD
ATOM     20  O   UNL d   1      26.473 -12.280  -1.840  0.00  0.00    -0.262 OA
BRANCH  18  21
ATOM     21  CA  UNL d   1      25.912 -10.843  -4.313  0.00  0.00     0.108 C 
BRANCH  21  22
ATOM     22  C   UNL d   1      27.301 -10.453  -3.740  0.00  0.00     0.023 C 
ATOM     23  C   UNL d   1      27.261  -9.303  -2.731  0.00  0.00     0.007 C 
ENDBRANCH  21  22
BRANCH  21  24
ATOM     24  C   UNL d   1      25.854 -10.627  -5.847  0.00  0.00     0.189 C 
BRANCH  24  25
ATOM     25  O   UNL d   1      24.912 -11.450  -6.524  0.00  0.00    -0.399 OA
ATOM     26  H   UNL d   1      24.456 -11.997  -5.861  0.00  0.00     0.209 HD
ENDBRANCH  24  25
ENDBRANCH  21  24
ENDBRANCH  18  21
ENDBRANCH   1  17
TORSDOF 7
ENDMDL
MODEL 5
REMARK VINA RESULT:    -7.284      1.923      8.670
REMARK INTER + INTRA:         -11.679
REMARK INTER:                  -9.372
REMARK INTRA:                  -2.307
REMARK CONF_INDEPENDENT:        2.088
REMARK UNBOUND:                -2.307
REMARK  7 active torsions:
REMARK  status: ('A' for Active; 'I' for Inactive)
REMARK    1  A    between atoms: C_2  and  CA_3 
REMARK    2  A    between atoms: CA_3  and  C_4 
REMARK    3  A    between atoms: CA_3  and  N_6 
REMARK    4  A    between atoms: C_4  and  O_5 
REMARK       I    between atoms: N_6  and  C_7 
REMARK    5  A    between atoms: C_7  and  C_9 
REMARK       I    between atoms: C_9  and  N_11 
REMARK    6  A    between atoms: N_11  and  C_12 
REMARK    7  A    between atoms: C_14  and  C_15 
REMARK       I    between atoms: C_15  and  N_17 
ROOT
ATOM      1  C   UNL d   1      25.664 -15.094  -3.365  0.00  0.00     0.314 C 
ATOM      2  O   UNL d   1      25.535 -16.031  -4.149  0.00  0.00    -0.262 OA
ATOM      3  N   UNL d   1      25.416 -15.116  -1.991  0.00  0.00    -0.318 N 
ATOM      4  H   UNL d   1      25.361 -14.218  -1.518  0.00  0.00     0.169 HD
ENDROOT
BRANCH   3   5
ATOM      5  C   UNL d   1      25.023 -16.288  -1.295  0.00  0.00     0.042 A 
ATOM      6  C   UNL d   1      23.675 -16.678  -1.333  0.00  0.00     0.047 A 
ATOM      7  C   UNL d   1      23.210 -17.807  -0.651  0.00  0.00     0.034 A 
ATOM      8  C   UNL d   1      24.126 -18.561   0.091  0.00  0.00     0.017 A 
ATOM      9  C   UNL d   1      25.478 -18.198   0.128  0.00  0.00     0.010 A 
ATOM     10  C   UNL d   1      25.946 -17.070  -0.575  0.00  0.00    -0.035 A 
ATOM     11  C   UNL d   1      27.393 -16.686  -0.445  0.00  0.00     0.050 C 
BRANCH   7  12
ATOM     12  C   UNL d   1      21.771 -18.234  -0.677  0.00  0.00     0.251 C 
ATOM     13  O   UNL d   1      20.927 -17.483  -1.159  0.00  0.00    -0.268 OA
ATOM     14  N   UNL d   1      21.450 -19.472  -0.150  0.00  0.00    -0.361 N 
ATOM     15  C   UNL d   1      20.098 -19.984  -0.149  0.00  0.00     0.149 C 
ATOM     16  H   UNL d   1      22.156 -20.081   0.230  0.00  0.00     0.162 HD
ENDBRANCH   7  12
ENDBRANCH   3   5
BRANCH   1  17
ATOM     17  C   UNL d   1      26.093 -13.723  -3.939  0.00  0.00     0.310 C 
ATOM     18  N   UNL d   1      26.830 -13.763  -5.120  0.00  0.00    -0.346 N 
ATOM     19  H   UNL d   1      27.031 -14.686  -5.503  0.00  0.00     0.163 HD
ATOM     20  O   UNL d   1      25.758 -12.700  -3.348  0.00  0.00    -0.262 OA
BRANCH  18  21
ATOM     21  CA  UNL d   1      27.283 -12.549  -5.828  0.00  0.00     0.108 C 
BRANCH  21  22
ATOM     22  C   UNL d   1      27.993 -11.547  -4.878  0.00  0.00     0.023 C 
ATOM     23  C   UNL d   1      27.263 -10.213  -4.717  0.00  0.00     0.007 C 
ENDBRANCH  21  22
BRANCH  21  24
ATOM     24  C   UNL d   1      28.187 -12.925  -7.029  0.00  0.00     0.189 C 
BRANCH  24  25
ATOM     25  O   UNL d   1      28.379 -14.322  -7.209  0.00  0.00    -0.399 OA
ATOM     26  H   UNL d   1      28.907 -14.455  -8.015  0.00  0.00     0.209 HD
ENDBRANCH  24  25
ENDBRANCH  21  24
ENDBRANCH  18  21
ENDBRANCH   1  17
TORSDOF 7
ENDMDL
MODEL 6
REMARK VINA RESULT:    -7.127      1.745      8.476
REMARK INTER + INTRA:         -11.659
REMARK INTER:                  -9.215
REMARK INTRA:                  -2.444
REMARK CONF_INDEPENDENT:        2.088
REMARK UNBOUND:                -2.444
REMARK  7 active torsions:
REMARK  status: ('A' for Active; 'I' for Inactive)
REMARK    1  A    between atoms: C_2  and  CA_3 
REMARK    2  A    between atoms: CA_3  and  C_4 
REMARK    3  A    between atoms: CA_3  and  N_6 
REMARK    4  A    between atoms: C_4  and  O_5 
REMARK       I    between atoms: N_6  and  C_7 
REMARK    5  A    between atoms: C_7  and  C_9 
REMARK       I    between atoms: C_9  and  N_11 
REMARK    6  A    between atoms: N_11  and  C_12 
REMARK    7  A    between atoms: C_14  and  C_15 
REMARK       I    between atoms: C_15  and  N_17 
ROOT
ATOM      1  C   UNL d   1      25.406 -15.337  -2.874  0.00  0.00     0.314 C 
ATOM      2  O   UNL d   1      25.289 -14.527  -1.958  0.00  0.00    -0.262 OA
ATOM      3  N   UNL d   1      25.143 -16.707  -2.815  0.00  0.00    -0.318 N 
ATOM      4  H   UNL d   1      25.489 -17.277  -3.583  0.00  0.00     0.169 HD
ENDROOT
BRANCH   3   5
ATOM      5  C   UNL d   1      24.632 -17.347  -1.656  0.00  0.00     0.042 A 
ATOM      6  C   UNL d   1      23.286 -17.750  -1.645  0.00  0.00     0.047 A 
ATOM      7  C   UNL d   1      22.706 -18.364  -0.531  0.00  0.00     0.034 A 
ATOM      8  C   UNL d   1      23.501 -18.575   0.603  0.00  0.00     0.017 A 
ATOM      9  C   UNL d   1      24.848 -18.195   0.605  0.00  0.00     0.010 A 
ATOM     10  C   UNL d   1      25.434 -17.593  -0.527  0.00  0.00    -0.035 A 
ATOM     11  C   UNL d   1      26.866 -17.143  -0.446  0.00  0.00     0.050 C 
BRANCH   7  12
ATOM     12  C   UNL d   1      21.269 -18.796  -0.499  0.00  0.00     0.251 C 
ATOM     13  O   UNL d   1      20.431 -18.150  -1.125  0.00  0.00    -0.268 OA
ATOM     14  N   UNL d   1      20.941 -19.916   0.243  0.00  0.00    -0.361 N 
ATOM     15  C   UNL d   1      19.591 -20.425   0.318  0.00  0.00     0.149 C 
ATOM     16  H   UNL d   1      21.643 -20.441   0.740  0.00  0.00     0.162 HD
ENDBRANCH   7  12
ENDBRANCH   3   5
BRANCH   1  17
ATOM     17  C   UNL d   1      25.950 -14.825  -4.228  0.00  0.00     0.310 C 
ATOM     18  N   UNL d   1      26.348 -13.490  -4.257  0.00  0.00    -0.346 N 
ATOM     19  H   UNL d   1      26.243 -12.963  -3.392  0.00  0.00     0.163 HD
ATOM     20  O   UNL d   1      26.014 -15.603  -5.177  0.00  0.00    -0.262 OA
BRANCH  18  21
ATOM     21  CA  UNL d   1      26.930 -12.850  -5.454  0.00  0.00     0.108 C 
BRANCH  21  22
ATOM     22  C   UNL d   1      27.167 -11.329  -5.248  0.00  0.00     0.023 C 
ATOM     23  C   UNL d   1      26.153 -10.658  -4.319  0.00  0.00     0.007 C 
ENDBRANCH  21  22
BRANCH  21  24
ATOM     24  C   UNL d   1      28.235 -13.572  -5.876  0.00  0.00     0.189 C 
BRANCH  24  25
ATOM     25  O   UNL d   1      28.035 -14.831  -6.506  0.00  0.00    -0.399 OA
ATOM     26  H   UNL d   1      27.081 -15.016  -6.518  0.00  0.00     0.209 HD
ENDBRANCH  24  25
ENDBRANCH  21  24
ENDBRANCH  18  21
ENDBRANCH   1  17
TORSDOF 7
ENDMDL
MODEL 7
REMARK VINA RESULT:    -5.926      5.386      7.712
REMARK INTER + INTRA:         -10.335
REMARK INTER:                  -8.014
REMARK INTRA:                  -2.321
REMARK CONF_INDEPENDENT:        2.088
REMARK UNBOUND:                -2.321
REMARK  7 active torsions:
REMARK  status: ('A' for Active; 'I' for Inactive)
REMARK    1  A    between atoms: C_2  and  CA_3 
REMARK    2  A    between atoms: CA_3  and  C_4 
REMARK    3  A    between atoms: CA_3  and  N_6 
REMARK    4  A    between atoms: C_4  and  O_5 
REMARK       I    between atoms: N_6  and  C_7 
REMARK    5  A    between atoms: C_7  and  C_9 
REMARK       I    between atoms: C_9  and  N_11 
REMARK    6  A    between atoms: N_11  and  C_12 
REMARK    7  A    between atoms: C_14  and  C_15 
REMARK       I    between atoms: C_15  and  N_17 
ROOT
ATOM      1  C   UNL d   1      27.408 -14.308   1.777  0.00  0.00     0.314 C 
ATOM      2  O   UNL d   1      26.394 -13.613   1.768  0.00  0.00    -0.262 OA
ATOM      3  N   UNL d   1      27.701 -15.366   0.915  0.00  0.00    -0.318 N 
ATOM      4  H   UNL d   1      28.470 -15.977   1.179  0.00  0.00     0.169 HD
ENDROOT
BRANCH   3   5
ATOM      5  C   UNL d   1      26.855 -15.746  -0.160  0.00  0.00     0.042 A 
ATOM      6  C   UNL d   1      26.609 -14.819  -1.186  0.00  0.00     0.047 A 
ATOM      7  C   UNL d   1      25.767 -15.114  -2.263  0.00  0.00     0.034 A 
ATOM      8  C   UNL d   1      25.155 -16.372  -2.306  0.00  0.00     0.017 A 
ATOM      9  C   UNL d   1      25.401 -17.315  -1.300  0.00  0.00     0.010 A 
ATOM     10  C   UNL d   1      26.264 -17.021  -0.226  0.00  0.00    -0.035 A 
ATOM     11  C   UNL d   1      26.439 -18.044   0.861  0.00  0.00     0.050 C 
BRANCH   7  12
ATOM     12  C   UNL d   1      25.488 -14.134  -3.366  0.00  0.00     0.251 C 
ATOM     13  O   UNL d   1      24.715 -14.446  -4.269  0.00  0.00    -0.268 OA
ATOM     14  N   UNL d   1      26.122 -12.906  -3.322  0.00  0.00    -0.361 N 
ATOM     15  C   UNL d   1      25.903 -11.887  -4.323  0.00  0.00     0.149 C 
ATOM     16  H   UNL d   1      26.744 -12.662  -2.568  0.00  0.00     0.162 HD
ENDBRANCH   7  12
ENDBRANCH   3   5
BRANCH   1  17
ATOM     17  C   UNL d   1      28.459 -14.041   2.880  0.00  0.00     0.310 C 
ATOM     18  N   UNL d   1      28.003 -13.348   3.998  0.00  0.00    -0.346 N 
ATOM     19  H   UNL d   1      27.023 -13.070   3.996  0.00  0.00     0.163 HD
ATOM     20  O   UNL d   1      29.605 -14.454   2.722  0.00  0.00    -0.262 OA
BRANCH  18  21
ATOM     21  CA  UNL d   1      28.860 -13.046   5.163  0.00  0.00     0.108 C 
BRANCH  21  22
ATOM     22  C   UNL d   1      28.115 -12.210   6.238  0.00  0.00     0.023 C 
ATOM     23  C   UNL d   1      28.390 -12.654   7.677  0.00  0.00     0.007 C 
ENDBRANCH  21  22
BRANCH  21  24
ATOM     24  C   UNL d   1      29.439 -14.352   5.764  0.00  0.00     0.189 C 
BRANCH  24  25
ATOM     25  O   UNL d   1      28.822 -15.543   5.293  0.00  0.00    -0.399 OA
ATOM     26  H   UNL d   1      29.107 -15.689   4.375  0.00  0.00     0.209 HD
ENDBRANCH  24  25
ENDBRANCH  21  24
ENDBRANCH  18  21
ENDBRANCH   1  17
TORSDOF 7
ENDMDL
