MODEL 1
REMARK VINA RESULT:    -7.934      0.000      0.000
REMARK INTER + INTRA:          -9.664
REMARK INTER:                  -9.128
REMARK INTRA:                  -0.536
REMARK CONF_INDEPENDENT:        1.193
REMARK UNBOUND:                -0.536
REMARK  4 active torsions:
REMARK  status: ('A' for Active; 'I' for Inactive)
REMARK       I    between atoms: C_2  and  N_3 
REMARK       I    between atoms: C_2  and  N_12 
REMARK    1  A    between atoms: N_3  and  O_4 
REMARK    2  A    between atoms: O_4  and  C_5 
REMARK    3  A    between atoms: C_5  and  C_6 
REMARK    4  A    between atoms: N_12  and  C_13 
ROOT
ATOM      1  O   UNL d   1      24.079 -19.137  -0.144  0.00  0.00    -0.245 OA
ATOM      2  C   UNL d   1      24.366 -17.974  -0.433  0.00  0.00     0.340 C 
ATOM      3  N   UNL d   1      23.508 -16.919  -0.379  0.00  0.00    -0.216 N 
ATOM      4  N   UNL d   1      25.648 -17.689  -0.820  0.00  0.00    -0.333 N 
ATOM      5  H   UNL d   1      23.749 -16.000  -0.716  0.00  0.00     0.199 HD
ATOM      6  H   UNL d   1      26.251 -18.498  -0.723  0.00  0.00     0.165 HD
ENDROOT
BRANCH   3   7
ATOM      7  O   UNL d   1      22.150 -17.185  -0.075  0.00  0.00    -0.272 OA
BRANCH   7   8
ATOM      8  C   UNL d   1      21.686 -18.246  -0.908  0.00  0.00     0.240 C 
BRANCH   8   9
ATOM      9  C   UNL d   1      20.703 -19.139  -0.198  0.00  0.00    -0.032 A 
ATOM     10  C   UNL d   1      19.623 -19.699  -0.894  0.00  0.00     0.009 A 
ATOM     11  C   UNL d   1      18.592 -20.334  -0.201  0.00  0.00     0.001 A 
ATOM     12  C   UNL d   1      18.676 -20.497   1.180  0.00  0.00     0.000 A 
ATOM     13  C   UNL d   1      19.779 -20.005   1.874  0.00  0.00     0.001 A 
ATOM     14  C   UNL d   1      20.788 -19.325   1.188  0.00  0.00     0.009 A 
ENDBRANCH   8   9
ENDBRANCH   7   8
ENDBRANCH   3   7
BRANCH   4  15
ATOM     15  C   UNL d   1      26.295 -16.391  -0.740  0.00  0.00     0.120 C 
ATOM     16  C   UNL d   1      27.798 -16.601  -0.435  0.00  0.00     0.035 C 
ATOM     17  C   UNL d   1      28.557 -16.519  -1.767  0.00  0.00     0.041 C 
ATOM     18  C   UNL d   1      27.564 -15.900  -2.691  0.00  0.00    -0.047 A 
ATOM     19  C   UNL d   1      27.791 -15.520  -4.000  0.00  0.00     0.050 A 
ATOM     20  C   UNL d   1      26.321 -15.711  -2.081  0.00  0.00    -0.029 A 
ATOM     21  C   UNL d   1      26.789 -14.823  -4.660  0.00  0.00     0.117 A 
ATOM     22  F   UNL d   1      27.028 -14.347  -5.890  0.00  0.00    -0.206 F 
ATOM     23  C   UNL d   1      25.555 -14.574  -4.051  0.00  0.00     0.043 A 
ATOM     24  C   UNL d   1      25.310 -15.026  -2.748  0.00  0.00     0.013 A 
ENDBRANCH   4  15
TORSDOF 4
ENDMDL
MODEL 2
REMARK VINA RESULT:    -7.503      1.940      3.079
REMARK INTER + INTRA:          -9.224
REMARK INTER:                  -8.696
REMARK INTRA:                  -0.528
REMARK CONF_INDEPENDENT:        1.193
REMARK UNBOUND:                -0.528
REMARK  4 active torsions:
REMARK  status: ('A' for Active; 'I' for Inactive)
REMARK       I    between atoms: C_2  and  N_3 
REMARK       I    between atoms: C_2  and  N_12 
REMARK    1  A    between atoms: N_3  and  O_4 
REMARK    2  A    between atoms: O_4  and  C_5 
REMARK    3  A    between atoms: C_5  and  C_6 
REMARK    4  A    between atoms: N_12  and  C_13 
ROOT
ATOM      1  O   UNL d   1      22.296 -16.282  -0.554  0.00  0.00    -0.245 OA
ATOM      2  C   UNL d   1      23.258 -16.876  -1.044  0.00  0.00     0.340 C 
ATOM      3  N   UNL d   1      23.255 -18.177  -1.442  0.00  0.00    -0.216 N 
ATOM      4  N   UNL d   1      24.428 -16.191  -1.234  0.00  0.00    -0.333 N 
ATOM      5  H   UNL d   1      24.086 -18.659  -1.747  0.00  0.00     0.199 HD
ATOM      6  H   UNL d   1      24.317 -15.206  -1.023  0.00  0.00     0.165 HD
ENDROOT
BRANCH   3   7
ATOM      7  O   UNL d   1      22.095 -18.948  -1.177  0.00  0.00    -0.272 OA
BRANCH   7   8
ATOM      8  C   UNL d   1      21.853 -18.954   0.229  0.00  0.00     0.240 C 
BRANCH   8   9
ATOM      9  C   UNL d   1      20.488 -19.490   0.569  0.00  0.00    -0.032 A 
ATOM     10  C   UNL d   1      20.138 -19.746   1.903  0.00  0.00     0.009 A 
ATOM     11  C   UNL d   1      18.971 -20.450   2.202  0.00  0.00     0.001 A 
ATOM     12  C   UNL d   1      18.099 -20.822   1.182  0.00  0.00     0.000 A 
ATOM     13  C   UNL d   1      18.403 -20.512  -0.142  0.00  0.00     0.001 A 
ATOM     14  C   UNL d   1      19.595 -19.852  -0.449  0.00  0.00     0.009 A 
ENDBRANCH   8   9
ENDBRANCH   7   8
ENDBRANCH   3   7
BRANCH   4  15
ATOM     15  C   UNL d   1      25.472 -16.532  -2.184  0.00  0.00     0.120 C 
ATOM     16  C   UNL d   1      25.536 -15.432  -3.271  0.00  0.00     0.035 C 
ATOM     17  C   UNL d   1      26.670 -14.469  -2.890  0.00  0.00     0.041 C 
ATOM     18  C   UNL d   1      27.437 -15.232  -1.864  0.00  0.00    -0.047 A 
ATOM     19  C   UNL d   1      28.622 -14.838  -1.269  0.00  0.00     0.050 A 
ATOM     20  C   UNL d   1      26.834 -16.453  -1.552  0.00  0.00    -0.029 A 
ATOM     21  C   UNL d   1      29.270 -15.746  -0.444  0.00  0.00     0.117 A 
ATOM     22  F   UNL d   1      30.473 -15.430   0.054  0.00  0.00    -0.206 F 
ATOM     23  C   UNL d   1      28.712 -16.996  -0.159  0.00  0.00     0.043 A 
ATOM     24  C   UNL d   1      27.476 -17.358  -0.712  0.00  0.00     0.013 A 
ENDBRANCH   4  15
TORSDOF 4
ENDMDL
MODEL 3
REMARK VINA RESULT:    -6.865      4.440      6.216
REMARK INTER + INTRA:          -8.705
REMARK INTER:                  -8.059
REMARK INTRA:                  -0.646
REMARK CONF_INDEPENDENT:        1.193
REMARK UNBOUND:                -0.646
REMARK  4 active torsions:
REMARK  status: ('A' for Active; 'I' for Inactive)
REMARK       I    between atoms: C_2  and  N_3 
REMARK       I    between atoms: C_2  and  N_12 
REMARK    1  A    between atoms: N_3  and  O_4 
REMARK    2  A    between atoms: O_4  and  C_5 
REMARK    3  A    between atoms: C_5  and  C_6 
REMARK    4  A    between atoms: N_12  and  C_13 
ROOT
ATOM      1  O   UNL d   1      24.331 -14.449  -3.892  0.00  0.00    -0.245 OA
ATOM      2  C   UNL d   1      25.351 -13.783  -3.703  0.00  0.00     0.340 C 
ATOM      3  N   UNL d   1      26.559 -14.290  -3.336  0.00  0.00    -0.216 N 
ATOM      4  N   UNL d   1      25.299 -12.429  -3.894  0.00  0.00    -0.333 N 
ATOM      5  H   UNL d   1      27.347 -13.709  -3.095  0.00  0.00     0.199 HD
ATOM      6  H   UNL d   1      24.405 -12.145  -4.277  0.00  0.00     0.165 HD
ENDROOT
BRANCH   3   7
ATOM      7  O   UNL d   1      26.634 -15.673  -3.036  0.00  0.00    -0.272 OA
BRANCH   7   8
ATOM      8  C   UNL d   1      26.549 -15.849  -1.623  0.00  0.00     0.240 C 
BRANCH   8   9
ATOM      9  C   UNL d   1      25.367 -16.692  -1.224  0.00  0.00    -0.032 A 
ATOM     10  C   UNL d   1      24.060 -16.239  -1.459  0.00  0.00     0.009 A 
ATOM     11  C   UNL d   1      22.972 -16.902  -0.892  0.00  0.00     0.001 A 
ATOM     12  C   UNL d   1      23.171 -18.074  -0.165  0.00  0.00     0.000 A 
ATOM     13  C   UNL d   1      24.460 -18.571   0.017  0.00  0.00     0.001 A 
ATOM     14  C   UNL d   1      25.555 -17.881  -0.507  0.00  0.00     0.009 A 
ENDBRANCH   8   9
ENDBRANCH   7   8
ENDBRANCH   3   7
BRANCH   4  15
ATOM     15  C   UNL d   1      26.428 -11.564  -4.187  0.00  0.00     0.120 C 
ATOM     16  C   UNL d   1      27.004 -11.946  -5.572  0.00  0.00     0.035 C 
ATOM     17  C   UNL d   1      26.422 -10.966  -6.602  0.00  0.00     0.041 C 
ATOM     18  C   UNL d   1      25.875  -9.866  -5.757  0.00  0.00    -0.047 A 
ATOM     19  C   UNL d   1      25.325  -8.682  -6.212  0.00  0.00     0.050 A 
ATOM     20  C   UNL d   1      25.987 -10.141  -4.392  0.00  0.00    -0.029 A 
ATOM     21  C   UNL d   1      25.003  -7.710  -5.276  0.00  0.00     0.117 A 
ATOM     22  F   UNL d   1      24.573  -6.514  -5.700  0.00  0.00    -0.206 F 
ATOM     23  C   UNL d   1      25.157  -7.942  -3.906  0.00  0.00     0.043 A 
ATOM     24  C   UNL d   1      25.649  -9.173  -3.451  0.00  0.00     0.013 A 
ENDBRANCH   4  15
TORSDOF 4
ENDMDL
MODEL 4
REMARK VINA RESULT:    -6.766      4.620      6.434
REMARK INTER + INTRA:          -8.601
REMARK INTER:                  -7.959
REMARK INTRA:                  -0.642
REMARK CONF_INDEPENDENT:        1.193
REMARK UNBOUND:                -0.642
REMARK  4 active torsions:
REMARK  status: ('A' for Active; 'I' for Inactive)
REMARK       I    between atoms: C_2  and  N_3 
REMARK       I    between atoms: C_2  and  N_12 
REMARK    1  A    between atoms: N_3  and  O_4 
REMARK    2  A    between atoms: O_4  and  C_5 
REMARK    3  A    between atoms: C_5  and  C_6 
REMARK    4  A    between atoms: N_12  and  C_13 
ROOT
ATOM      1  O   UNL d   1      24.416 -14.447  -4.252  0.00  0.00    -0.245 OA
ATOM      2  C   UNL d   1      25.397 -13.733  -4.034  0.00  0.00     0.340 C 
ATOM      3  N   UNL d   1      26.584 -14.167  -3.528  0.00  0.00    -0.216 N 
ATOM      4  N   UNL d   1      25.324 -12.401  -4.337  0.00  0.00    -0.333 N 
ATOM      5  H   UNL d   1      27.331 -13.542  -3.270  0.00  0.00     0.199 HD
ATOM      6  H   UNL d   1      24.457 -12.179  -4.815  0.00  0.00     0.165 HD
ENDROOT
BRANCH   3   7
ATOM      7  O   UNL d   1      26.672 -15.519  -3.113  0.00  0.00    -0.272 OA
BRANCH   7   8
ATOM      8  C   UNL d   1      26.506 -15.583  -1.697  0.00  0.00     0.240 C 
BRANCH   8   9
ATOM      9  C   UNL d   1      25.368 -16.483  -1.296  0.00  0.00    -0.032 A 
ATOM     10  C   UNL d   1      24.040 -16.065  -1.465  0.00  0.00     0.009 A 
ATOM     11  C   UNL d   1      22.995 -16.790  -0.892  0.00  0.00     0.001 A 
ATOM     12  C   UNL d   1      23.258 -17.986  -0.226  0.00  0.00     0.000 A 
ATOM     13  C   UNL d   1      24.568 -18.446  -0.112  0.00  0.00     0.001 A 
ATOM     14  C   UNL d   1      25.620 -17.696  -0.642  0.00  0.00     0.009 A 
ENDBRANCH   8   9
ENDBRANCH   7   8
ENDBRANCH   3   7
BRANCH   4  15
ATOM     15  C   UNL d   1      26.448 -11.522  -4.604  0.00  0.00     0.120 C 
ATOM     16  C   UNL d   1      26.468 -11.182  -6.114  0.00  0.00     0.035 C 
ATOM     17  C   UNL d   1      25.795  -9.813  -6.290  0.00  0.00     0.041 C 
ATOM     18  C   UNL d   1      25.771  -9.262  -4.904  0.00  0.00    -0.047 A 
ATOM     19  C   UNL d   1      25.350  -7.999  -4.533  0.00  0.00     0.050 A 
ATOM     20  C   UNL d   1      26.255 -10.176  -3.964  0.00  0.00    -0.029 A 
ATOM     21  C   UNL d   1      25.539  -7.609  -3.215  0.00  0.00     0.117 A 
ATOM     22  F   UNL d   1      25.241  -6.352  -2.858  0.00  0.00    -0.206 F 
ATOM     23  C   UNL d   1      26.071  -8.488  -2.267  0.00  0.00     0.043 A 
ATOM     24  C   UNL d   1      26.430  -9.791  -2.638  0.00  0.00     0.013 A 
ENDBRANCH   4  15
TORSDOF 4
ENDMDL
MODEL 5
REMARK VINA RESULT:    -6.459      3.790      5.497
REMARK INTER + INTRA:          -8.215
REMARK INTER:                  -7.652
REMARK INTRA:                  -0.563
REMARK CONF_INDEPENDENT:        1.193
REMARK UNBOUND:                -0.563
REMARK  4 active torsions:
REMARK  status: ('A' for Active; 'I' for Inactive)
REMARK       I    between atoms: C_2  and  N_3 
REMARK       I    between atoms: C_2  and  N_12 
REMARK    1  A    between atoms: N_3  and  O_4 
REMARK    2  A    between atoms: O_4  and  C_5 
REMARK    3  A    between atoms: C_5  and  C_6 
REMARK    4  A    between atoms: N_12  and  C_13 
ROOT
ATOM      1  O   UNL d   1      25.550 -15.942  -5.727  0.00  0.00    -0.245 OA
ATOM      2  C   UNL d   1      26.443 -15.369  -5.100  0.00  0.00     0.340 C 
ATOM      3  N   UNL d   1      26.360 -14.980  -3.798  0.00  0.00    -0.216 N 
ATOM      4  N   UNL d   1      27.630 -15.112  -5.730  0.00  0.00    -0.333 N 
ATOM      5  H   UNL d   1      27.071 -14.427  -3.345  0.00  0.00     0.199 HD
ATOM      6  H   UNL d   1      27.657 -15.532  -6.652  0.00  0.00     0.165 HD
ENDROOT
BRANCH   3   7
ATOM      7  O   UNL d   1      25.117 -15.142  -3.137  0.00  0.00    -0.272 OA
BRANCH   7   8
ATOM      8  C   UNL d   1      25.338 -15.150  -1.728  0.00  0.00     0.240 C 
BRANCH   8   9
ATOM      9  C   UNL d   1      24.690 -16.331  -1.056  0.00  0.00    -0.032 A 
ATOM     10  C   UNL d   1      25.473 -17.382  -0.559  0.00  0.00     0.009 A 
ATOM     11  C   UNL d   1      24.875 -18.572  -0.145  0.00  0.00     0.001 A 
ATOM     12  C   UNL d   1      23.487 -18.690  -0.137  0.00  0.00     0.000 A 
ATOM     13  C   UNL d   1      22.695 -17.626  -0.565  0.00  0.00     0.001 A 
ATOM     14  C   UNL d   1      23.294 -16.451  -1.026  0.00  0.00     0.009 A 
ENDBRANCH   8   9
ENDBRANCH   7   8
ENDBRANCH   3   7
BRANCH   4  15
ATOM     15  C   UNL d   1      28.913 -14.901  -5.083  0.00  0.00     0.120 C 
ATOM     16  C   UNL d   1      29.129 -16.013  -4.029  0.00  0.00     0.035 C 
ATOM     17  C   UNL d   1      30.014 -17.093  -4.669  0.00  0.00     0.041 C 
ATOM     18  C   UNL d   1      30.575 -16.409  -5.869  0.00  0.00    -0.047 A 
ATOM     19  C   UNL d   1      31.517 -16.926  -6.739  0.00  0.00     0.050 A 
ATOM     20  C   UNL d   1      30.051 -15.125  -6.039  0.00  0.00    -0.029 A 
ATOM     21  C   UNL d   1      32.031 -16.087  -7.717  0.00  0.00     0.117 A 
ATOM     22  F   UNL d   1      33.024 -16.531  -8.499  0.00  0.00    -0.206 F 
ATOM     23  C   UNL d   1      31.562 -14.779  -7.873  0.00  0.00     0.043 A 
ATOM     24  C   UNL d   1      30.555 -14.288  -7.031  0.00  0.00     0.013 A 
ENDBRANCH   4  15
TORSDOF 4
ENDMDL
MODEL 6
REMARK VINA RESULT:    -6.244      3.920      6.852
REMARK INTER + INTRA:          -8.813
REMARK INTER:                  -7.437
REMARK INTRA:                  -1.376
REMARK CONF_INDEPENDENT:        1.193
REMARK UNBOUND:                -1.376
REMARK  4 active torsions:
REMARK  status: ('A' for Active; 'I' for Inactive)
REMARK       I    between atoms: C_2  and  N_3 
REMARK       I    between atoms: C_2  and  N_12 
REMARK    1  A    between atoms: N_3  and  O_4 
REMARK    2  A    between atoms: O_4  and  C_5 
REMARK    3  A    between atoms: C_5  and  C_6 
REMARK    4  A    between atoms: N_12  and  C_13 
ROOT
ATOM      1  O   UNL d   1      28.099 -13.381   1.317  0.00  0.00    -0.245 OA
ATOM      2  C   UNL d   1      27.506 -14.062   0.478  0.00  0.00     0.340 C 
ATOM      3  N   UNL d   1      26.903 -13.576  -0.640  0.00  0.00    -0.216 N 
ATOM      4  N   UNL d   1      27.457 -15.420   0.648  0.00  0.00    -0.333 N 
ATOM      5  H   UNL d   1      26.344 -14.149  -1.254  0.00  0.00     0.199 HD
ATOM      6  H   UNL d   1      28.024 -15.714   1.435  0.00  0.00     0.165 HD
ENDROOT
BRANCH   3   7
ATOM      7  O   UNL d   1      26.850 -12.170  -0.806  0.00  0.00    -0.272 OA
BRANCH   7   8
ATOM      8  C   UNL d   1      27.227 -11.844  -2.143  0.00  0.00     0.240 C 
BRANCH   8   9
ATOM      9  C   UNL d   1      26.794 -12.896  -3.129  0.00  0.00    -0.032 A 
ATOM     10  C   UNL d   1      25.456 -12.974  -3.542  0.00  0.00     0.009 A 
ATOM     11  C   UNL d   1      25.006 -14.075  -4.270  0.00  0.00     0.001 A 
ATOM     12  C   UNL d   1      25.905 -15.061  -4.672  0.00  0.00     0.000 A 
ATOM     13  C   UNL d   1      27.251 -14.959  -4.325  0.00  0.00     0.001 A 
ATOM     14  C   UNL d   1      27.694 -13.883  -3.553  0.00  0.00     0.009 A 
ENDBRANCH   8   9
ENDBRANCH   7   8
ENDBRANCH   3   7
BRANCH   4  15
ATOM     15  C   UNL d   1      27.249 -16.404  -0.399  0.00  0.00     0.120 C 
ATOM     16  C   UNL d   1      27.780 -17.773   0.092  0.00  0.00     0.035 C 
ATOM     17  C   UNL d   1      26.579 -18.576   0.613  0.00  0.00     0.041 C 
ATOM     18  C   UNL d   1      25.407 -17.835   0.065  0.00  0.00    -0.047 A 
ATOM     19  C   UNL d   1      24.080 -18.210   0.169  0.00  0.00     0.050 A 
ATOM     20  C   UNL d   1      25.786 -16.674  -0.614  0.00  0.00    -0.029 A 
ATOM     21  C   UNL d   1      23.137 -17.473  -0.532  0.00  0.00     0.117 A 
ATOM     22  F   UNL d   1      21.862 -17.884  -0.537  0.00  0.00    -0.206 F 
ATOM     23  C   UNL d   1      23.499 -16.338  -1.263  0.00  0.00     0.043 A 
ATOM     24  C   UNL d   1      24.838 -15.924  -1.304  0.00  0.00     0.013 A 
ENDBRANCH   4  15
TORSDOF 4
ENDMDL
MODEL 7
REMARK VINA RESULT:    -6.237      5.061      6.449
REMARK INTER + INTRA:          -8.152
REMARK INTER:                  -7.431
REMARK INTRA:                  -0.722
REMARK CONF_INDEPENDENT:        1.193
REMARK UNBOUND:                -0.722
REMARK  4 active torsions:
REMARK  status: ('A' for Active; 'I' for Inactive)
REMARK       I    between atoms: C_2  and  N_3 
REMARK       I    between atoms: C_2  and  N_12 
REMARK    1  A    between atoms: N_3  and  O_4 
REMARK    2  A    between atoms: O_4  and  C_5 
REMARK    3  A    between atoms: C_5  and  C_6 
REMARK    4  A    between atoms: N_12  and  C_13 
ROOT
ATOM      1  O   UNL d   1      29.379 -15.938   0.281  0.00  0.00    -0.245 OA
ATOM      2  C   UNL d   1      28.500 -15.305   0.869  0.00  0.00     0.340 C 
ATOM      3  N   UNL d   1      27.255 -15.056   0.380  0.00  0.00    -0.216 N 
ATOM      4  N   UNL d   1      28.761 -14.824   2.124  0.00  0.00    -0.333 N 
ATOM      5  H   UNL d   1      26.595 -14.452   0.844  0.00  0.00     0.199 HD
ATOM      6  H   UNL d   1      29.660 -15.149   2.463  0.00  0.00     0.165 HD
ENDROOT
BRANCH   3   7
ATOM      7  O   UNL d   1      26.975 -15.454  -0.951  0.00  0.00    -0.272 OA
BRANCH   7   8
ATOM      8  C   UNL d   1      26.704 -16.854  -0.971  0.00  0.00     0.240 C 
BRANCH   8   9
ATOM      9  C   UNL d   1      25.258 -17.159  -0.680  0.00  0.00    -0.032 A 
ATOM     10  C   UNL d   1      24.882 -18.422  -0.201  0.00  0.00     0.009 A 
ATOM     11  C   UNL d   1      23.536 -18.782  -0.147  0.00  0.00     0.001 A 
ATOM     12  C   UNL d   1      22.551 -17.855  -0.482  0.00  0.00     0.000 A 
ATOM     13  C   UNL d   1      22.912 -16.574  -0.893  0.00  0.00     0.001 A 
ATOM     14  C   UNL d   1      24.261 -16.227  -0.996  0.00  0.00     0.009 A 
ENDBRANCH   8   9
ENDBRANCH   7   8
ENDBRANCH   3   7
BRANCH   4  15
ATOM     15  C   UNL d   1      27.773 -14.495   3.135  0.00  0.00     0.120 C 
ATOM     16  C   UNL d   1      28.391 -14.735   4.534  0.00  0.00     0.035 C 
ATOM     17  C   UNL d   1      28.884 -13.380   5.062  0.00  0.00     0.041 C 
ATOM     18  C   UNL d   1      28.209 -12.397   4.167  0.00  0.00    -0.047 A 
ATOM     19  C   UNL d   1      28.248 -11.020   4.288  0.00  0.00     0.050 A 
ATOM     20  C   UNL d   1      27.479 -13.020   3.152  0.00  0.00    -0.029 A 
ATOM     21  C   UNL d   1      27.437 -10.269   3.450  0.00  0.00     0.117 A 
ATOM     22  F   UNL d   1      27.374  -8.942   3.623  0.00  0.00    -0.206 F 
ATOM     23  C   UNL d   1      26.655 -10.874   2.461  0.00  0.00     0.043 A 
ATOM     24  C   UNL d   1      26.677 -12.266   2.301  0.00  0.00     0.013 A 
ENDBRANCH   4  15
TORSDOF 4
ENDMDL
MODEL 8
REMARK VINA RESULT:    -6.099      3.775      7.520
REMARK INTER + INTRA:          -8.196
REMARK INTER:                  -7.292
REMARK INTRA:                  -0.904
REMARK CONF_INDEPENDENT:        1.193
REMARK UNBOUND:                -0.904
REMARK  4 active torsions:
REMARK  status: ('A' for Active; 'I' for Inactive)
REMARK       I    between atoms: C_2  and  N_3 
REMARK       I    between atoms: C_2  and  N_12 
REMARK    1  A    between atoms: N_3  and  O_4 
REMARK    2  A    between atoms: O_4  and  C_5 
REMARK    3  A    between atoms: C_5  and  C_6 
REMARK    4  A    between atoms: N_12  and  C_13 
ROOT
ATOM      1  O   UNL d   1      27.121 -12.964  -0.574  0.00  0.00    -0.245 OA
ATOM      2  C   UNL d   1      26.639 -14.002  -1.030  0.00  0.00     0.340 C 
ATOM      3  N   UNL d   1      25.851 -14.079  -2.137  0.00  0.00    -0.216 N 
ATOM      4  N   UNL d   1      26.920 -15.188  -0.407  0.00  0.00    -0.333 N 
ATOM      5  H   UNL d   1      25.394 -14.929  -2.426  0.00  0.00     0.199 HD
ATOM      6  H   UNL d   1      27.601 -15.064   0.333  0.00  0.00     0.165 HD
ENDROOT
BRANCH   3   7
ATOM      7  O   UNL d   1      25.459 -12.866  -2.756  0.00  0.00    -0.272 OA
BRANCH   7   8
ATOM      8  C   UNL d   1      25.098 -13.131  -4.111  0.00  0.00     0.240 C 
BRANCH   8   9
ATOM      9  C   UNL d   1      26.284 -13.527  -4.949  0.00  0.00    -0.032 A 
ATOM     10  C   UNL d   1      26.700 -14.865  -5.003  0.00  0.00     0.009 A 
ATOM     11  C   UNL d   1      27.921 -15.200  -5.588  0.00  0.00     0.001 A 
ATOM     12  C   UNL d   1      28.693 -14.218  -6.205  0.00  0.00     0.000 A 
ATOM     13  C   UNL d   1      28.255 -12.895  -6.218  0.00  0.00     0.001 A 
ATOM     14  C   UNL d   1      27.057 -12.549  -5.589  0.00  0.00     0.009 A 
ENDBRANCH   8   9
ENDBRANCH   7   8
ENDBRANCH   3   7
BRANCH   4  15
ATOM     15  C   UNL d   1      26.864 -16.506  -1.015  0.00  0.00     0.120 C 
ATOM     16  C   UNL d   1      27.729 -17.478  -0.177  0.00  0.00     0.035 C 
ATOM     17  C   UNL d   1      26.786 -18.245   0.762  0.00  0.00     0.041 C 
ATOM     18  C   UNL d   1      25.438 -17.987   0.180  0.00  0.00    -0.047 A 
ATOM     19  C   UNL d   1      24.244 -18.540   0.605  0.00  0.00     0.050 A 
ATOM     20  C   UNL d   1      25.489 -17.103  -0.901  0.00  0.00    -0.029 A 
ATOM     21  C   UNL d   1      23.107 -18.297  -0.151  0.00  0.00     0.117 A 
ATOM     22  F   UNL d   1      21.963 -18.911   0.177  0.00  0.00    -0.206 F 
ATOM     23  C   UNL d   1      23.144 -17.458  -1.270  0.00  0.00     0.043 A 
ATOM     24  C   UNL d   1      24.346 -16.846  -1.651  0.00  0.00     0.013 A 
ENDBRANCH   4  15
TORSDOF 4
ENDMDL
MODEL 9
REMARK VINA RESULT:    -6.001      4.613      8.411
REMARK INTER + INTRA:          -8.167
REMARK INTER:                  -7.194
REMARK INTRA:                  -0.973
REMARK CONF_INDEPENDENT:        1.193
REMARK UNBOUND:                -0.973
REMARK  4 active torsions:
REMARK  status: ('A' for Active; 'I' for Inactive)
REMARK       I    between atoms: C_2  and  N_3 
REMARK       I    between atoms: C_2  and  N_12 
REMARK    1  A    between atoms: N_3  and  O_4 
REMARK    2  A    between atoms: O_4  and  C_5 
REMARK    3  A    between atoms: C_5  and  C_6 
REMARK    4  A    between atoms: N_12  and  C_13 
ROOT
ATOM      1  O   UNL d   1      26.655 -15.555  -6.144  0.00  0.00    -0.245 OA
ATOM      2  C   UNL d   1      26.917 -15.237  -4.983  0.00  0.00     0.340 C 
ATOM      3  N   UNL d   1      27.949 -14.434  -4.605  0.00  0.00    -0.216 N 
ATOM      4  N   UNL d   1      26.110 -15.693  -3.976  0.00  0.00    -0.333 N 
ATOM      5  H   UNL d   1      28.194 -14.274  -3.641  0.00  0.00     0.199 HD
ATOM      6  H   UNL d   1      25.303 -16.184  -4.344  0.00  0.00     0.165 HD
ENDROOT
BRANCH   3   7
ATOM      7  O   UNL d   1      28.863 -14.017  -5.604  0.00  0.00    -0.272 OA
BRANCH   7   8
ATOM      8  C   UNL d   1      30.153 -14.546  -5.304  0.00  0.00     0.240 C 
BRANCH   8   9
ATOM      9  C   UNL d   1      30.228 -16.032  -5.539  0.00  0.00    -0.032 A 
ATOM     10  C   UNL d   1      30.109 -16.926  -4.465  0.00  0.00     0.009 A 
ATOM     11  C   UNL d   1      30.403 -18.279  -4.640  0.00  0.00     0.001 A 
ATOM     12  C   UNL d   1      30.727 -18.765  -5.905  0.00  0.00     0.000 A 
ATOM     13  C   UNL d   1      30.781 -17.896  -6.992  0.00  0.00     0.001 A 
ATOM     14  C   UNL d   1      30.536 -16.533  -6.810  0.00  0.00     0.009 A 
ENDBRANCH   8   9
ENDBRANCH   7   8
ENDBRANCH   3   7
BRANCH   4  15
ATOM     15  C   UNL d   1      25.951 -15.086  -2.667  0.00  0.00     0.120 C 
ATOM     16  C   UNL d   1      24.442 -14.872  -2.396  0.00  0.00     0.035 C 
ATOM     17  C   UNL d   1      23.955 -16.046  -1.534  0.00  0.00     0.041 C 
ATOM     18  C   UNL d   1      25.222 -16.651  -1.032  0.00  0.00    -0.047 A 
ATOM     19  C   UNL d   1      25.330 -17.691  -0.126  0.00  0.00     0.050 A 
ATOM     20  C   UNL d   1      26.353 -16.033  -1.572  0.00  0.00    -0.029 A 
ATOM     21  C   UNL d   1      26.594 -18.024   0.337  0.00  0.00     0.117 A 
ATOM     22  F   UNL d   1      26.713 -18.951   1.297  0.00  0.00    -0.206 F 
ATOM     23  C   UNL d   1      27.738 -17.382  -0.148  0.00  0.00     0.043 A 
ATOM     24  C   UNL d   1      27.623 -16.378  -1.119  0.00  0.00     0.013 A 
ENDBRANCH   4  15
TORSDOF 4
ENDMDL
