MODEL 1
REMARK VINA RESULT:    -7.190      0.000      0.000
REMARK INTER + INTRA:         -10.972
REMARK INTER:                  -9.577
REMARK INTRA:                  -1.395
REMARK CONF_INDEPENDENT:        2.386
REMARK UNBOUND:                -1.395
REMARK  8 active torsions:
REMARK  status: ('A' for Active; 'I' for Inactive)
REMARK    1  A    between atoms: N_2  and  C_4 
REMARK    2  A    between atoms: C_7  and  C_8 
REMARK    3  A    between atoms: C_9  and  C_10 
REMARK       I    between atoms: C_10  and  N_12 
REMARK    4  A    between atoms: N_12  and  N_13 
REMARK       I    between atoms: N_13  and  C_14 
REMARK       I    between atoms: C_14  and  N_16 
REMARK    5  A    between atoms: N_16  and  C_17 
REMARK    6  A    between atoms: C_17  and  C_18 
REMARK    7  A    between atoms: C_18  and  C_19 
REMARK    8  A    between atoms: C_19  and  N_20 
ROOT
ATOM      1  C   UNL d   1      25.535 -17.106  -1.290  0.00  0.00     0.259 C 
ATOM      2  O   UNL d   1      26.702 -17.311  -0.952  0.00  0.00    -0.267 OA
ATOM      3  N   UNL d   1      25.194 -16.179  -2.271  0.00  0.00    -0.263 N 
ATOM      4  H   UNL d   1      24.239 -15.990  -2.571  0.00  0.00     0.190 HD
ENDROOT
BRANCH   3   5
ATOM      5  N   UNL d   1      26.222 -15.407  -2.921  0.00  0.00    -0.249 N 
ATOM      6  C   UNL d   1      25.880 -14.461  -3.877  0.00  0.00     0.334 C 
ATOM      7  O   UNL d   1      24.717 -14.238  -4.210  0.00  0.00    -0.246 OA
ATOM      8  N   UNL d   1      26.950 -13.777  -4.436  0.00  0.00    -0.342 N 
ATOM      9  H   UNL d   1      27.884 -14.006  -4.125  0.00  0.00     0.164 HD
ATOM     10  H   UNL d   1      27.171 -15.614  -2.624  0.00  0.00     0.192 HD
BRANCH   8  11
ATOM     11  C   UNL d   1      26.741 -12.749  -5.464  0.00  0.00     0.126 C 
BRANCH  11  12
ATOM     12  C   UNL d   1      25.961 -11.522  -4.970  0.00  0.00     0.040 C 
BRANCH  12  13
ATOM     13  C   UNL d   1      25.573 -10.561  -6.103  0.00  0.00     0.130 C 
BRANCH  13  14
ATOM     14  N   UNL d   1      25.152  -9.221  -5.624  0.00  0.00    -0.352 N 
ATOM     15  C   UNL d   1      25.067  -8.077  -6.420  0.00  0.00     0.108 A 
ATOM     16  C   UNL d   1      24.657  -7.052  -5.612  0.00  0.00     0.106 A 
ATOM     17  N   UNL d   1      24.494  -7.594  -4.362  0.00  0.00    -0.361 N 
ATOM     18  C   UNL d   1      24.783  -8.898  -4.372  0.00  0.00     0.182 A 
ATOM     19  H   UNL d   1      24.195  -7.085  -3.532  0.00  0.00     0.166 HD
ENDBRANCH  13  14
ENDBRANCH  12  13
ENDBRANCH  11  12
ENDBRANCH   8  11
ENDBRANCH   3   5
BRANCH   1  20
ATOM     20  C   UNL d   1      24.379 -17.846  -0.669  0.00  0.00     0.076 C 
ATOM     21  C   UNL d   1      23.142 -17.894  -1.215  0.00  0.00     0.017 C 
BRANCH  21  22
ATOM     22  C   UNL d   1      21.942 -18.563  -0.631  0.00  0.00    -0.036 A 
ATOM     23  C   UNL d   1      20.870 -18.969  -1.442  0.00  0.00     0.013 A 
ATOM     24  C   UNL d   1      19.685 -19.497  -0.882  0.00  0.00     0.030 A 
ATOM     25  C   UNL d   1      19.543 -19.714   0.494  0.00  0.00     0.029 A 
ATOM     26  C   UNL d   1      20.621 -19.325   1.292  0.00  0.00     0.030 A 
ATOM     27  C   UNL d   1      21.796 -18.777   0.744  0.00  0.00     0.013 A 
BRANCH  25  28
ATOM     28  N   UNL d   1      18.405 -20.311   1.019  0.00  0.00    -0.390 N 
ATOM     29  C   UNL d   1      18.030 -20.131   2.412  0.00  0.00     0.149 C 
ATOM     30  C   UNL d   1      17.722 -21.330   0.229  0.00  0.00     0.149 C 
ENDBRANCH  25  28
ENDBRANCH  21  22
ENDBRANCH   1  20
TORSDOF 8
ENDMDL
MODEL 2
REMARK VINA RESULT:    -6.915      3.561     11.813
REMARK INTER + INTRA:         -10.448
REMARK INTER:                  -9.301
REMARK INTRA:                  -1.147
REMARK CONF_INDEPENDENT:        2.386
REMARK UNBOUND:                -1.147
REMARK  8 active torsions:
REMARK  status: ('A' for Active; 'I' for Inactive)
REMARK    1  A    between atoms: N_2  and  C_4 
REMARK    2  A    between atoms: C_7  and  C_8 
REMARK    3  A    between atoms: C_9  and  C_10 
REMARK       I    between atoms: C_10  and  N_12 
REMARK    4  A    between atoms: N_12  and  N_13 
REMARK       I    between atoms: N_13  and  C_14 
REMARK       I    between atoms: C_14  and  N_16 
REMARK    5  A    between atoms: N_16  and  C_17 
REMARK    6  A    between atoms: C_17  and  C_18 
REMARK    7  A    between atoms: C_18  and  C_19 
REMARK    8  A    between atoms: C_19  and  N_20 
ROOT
ATOM      1  C   UNL d   1      25.680 -14.740  -3.730  0.00  0.00     0.259 C 
ATOM      2  O   UNL d   1      24.683 -14.256  -4.269  0.00  0.00    -0.267 OA
ATOM      3  N   UNL d   1      25.606 -15.492  -2.561  0.00  0.00    -0.263 N 
ATOM      4  H   UNL d   1      26.412 -15.905  -2.095  0.00  0.00     0.190 HD
ENDROOT
BRANCH   3   5
ATOM      5  N   UNL d   1      24.330 -15.719  -1.930  0.00  0.00    -0.249 N 
ATOM      6  C   UNL d   1      24.102 -16.894  -1.228  0.00  0.00     0.334 C 
ATOM      7  O   UNL d   1      24.950 -17.778  -1.112  0.00  0.00    -0.246 OA
ATOM      8  N   UNL d   1      22.841 -17.004  -0.661  0.00  0.00    -0.342 N 
ATOM      9  H   UNL d   1      22.185 -16.247  -0.794  0.00  0.00     0.164 HD
ATOM     10  H   UNL d   1      23.654 -14.970  -2.044  0.00  0.00     0.192 HD
BRANCH   8  11
ATOM     11  C   UNL d   1      22.455 -18.194   0.108  0.00  0.00     0.126 C 
BRANCH  11  12
ATOM     12  C   UNL d   1      21.691 -19.244  -0.710  0.00  0.00     0.040 C 
BRANCH  12  13
ATOM     13  C   UNL d   1      20.177 -18.990  -0.751  0.00  0.00     0.130 C 
BRANCH  13  14
ATOM     14  N   UNL d   1      19.407 -19.851   0.181  0.00  0.00    -0.352 N 
ATOM     15  C   UNL d   1      19.607 -19.914   1.562  0.00  0.00     0.108 A 
ATOM     16  C   UNL d   1      18.714 -20.825   2.057  0.00  0.00     0.106 A 
ATOM     17  N   UNL d   1      17.994 -21.278   0.980  0.00  0.00    -0.361 N 
ATOM     18  C   UNL d   1      18.405 -20.686  -0.145  0.00  0.00     0.182 A 
ATOM     19  H   UNL d   1      17.249 -21.971   1.017  0.00  0.00     0.166 HD
ENDBRANCH  13  14
ENDBRANCH  12  13
ENDBRANCH  11  12
ENDBRANCH   8  11
ENDBRANCH   3   5
BRANCH   1  20
ATOM     20  C   UNL d   1      27.065 -14.557  -4.295  0.00  0.00     0.076 C 
ATOM     21  C   UNL d   1      27.507 -15.189  -5.406  0.00  0.00     0.017 C 
BRANCH  21  22
ATOM     22  C   UNL d   1      28.878 -15.094  -5.992  0.00  0.00    -0.036 A 
ATOM     23  C   UNL d   1      29.322 -13.915  -6.613  0.00  0.00     0.013 A 
ATOM     24  C   UNL d   1      30.573 -13.857  -7.268  0.00  0.00     0.030 A 
ATOM     25  C   UNL d   1      31.464 -14.937  -7.270  0.00  0.00     0.029 A 
ATOM     26  C   UNL d   1      31.022 -16.100  -6.635  0.00  0.00     0.030 A 
ATOM     27  C   UNL d   1      29.768 -16.172  -6.000  0.00  0.00     0.013 A 
BRANCH  25  28
ATOM     28  N   UNL d   1      32.722 -14.836  -7.847  0.00  0.00    -0.390 N 
ATOM     29  C   UNL d   1      33.929 -15.116  -7.086  0.00  0.00     0.149 C 
ATOM     30  C   UNL d   1      32.843 -14.200  -9.154  0.00  0.00     0.149 C 
ENDBRANCH  25  28
ENDBRANCH  21  22
ENDBRANCH   1  20
TORSDOF 8
ENDMDL
MODEL 3
REMARK VINA RESULT:    -6.839      1.426     11.066
REMARK INTER + INTRA:         -10.100
REMARK INTER:                  -9.226
REMARK INTRA:                  -0.874
REMARK CONF_INDEPENDENT:        2.386
REMARK UNBOUND:                -0.874
REMARK  8 active torsions:
REMARK  status: ('A' for Active; 'I' for Inactive)
REMARK    1  A    between atoms: N_2  and  C_4 
REMARK    2  A    between atoms: C_7  and  C_8 
REMARK    3  A    between atoms: C_9  and  C_10 
REMARK       I    between atoms: C_10  and  N_12 
REMARK    4  A    between atoms: N_12  and  N_13 
REMARK       I    between atoms: N_13  and  C_14 
REMARK       I    between atoms: C_14  and  N_16 
REMARK    5  A    between atoms: N_16  and  C_17 
REMARK    6  A    between atoms: C_17  and  C_18 
REMARK    7  A    between atoms: C_18  and  C_19 
REMARK    8  A    between atoms: C_19  and  N_20 
ROOT
ATOM      1  C   UNL d   1      25.520 -14.515  -3.998  0.00  0.00     0.259 C 
ATOM      2  O   UNL d   1      25.520 -15.474  -4.771  0.00  0.00    -0.267 OA
ATOM      3  N   UNL d   1      25.797 -14.650  -2.640  0.00  0.00    -0.263 N 
ATOM      4  H   UNL d   1      25.805 -13.875  -1.979  0.00  0.00     0.190 HD
ENDROOT
BRANCH   3   5
ATOM      5  N   UNL d   1      26.084 -15.950  -2.090  0.00  0.00    -0.249 N 
ATOM      6  C   UNL d   1      25.172 -16.561  -1.241  0.00  0.00     0.334 C 
ATOM      7  O   UNL d   1      24.103 -16.041  -0.923  0.00  0.00    -0.246 OA
ATOM      8  N   UNL d   1      25.552 -17.811  -0.773  0.00  0.00    -0.342 N 
ATOM      9  H   UNL d   1      26.444 -18.184  -1.065  0.00  0.00     0.164 HD
ATOM     10  H   UNL d   1      26.973 -16.351  -2.372  0.00  0.00     0.192 HD
BRANCH   8  11
ATOM     11  C   UNL d   1      24.688 -18.575   0.137  0.00  0.00     0.126 C 
BRANCH  11  12
ATOM     12  C   UNL d   1      23.325 -18.948  -0.463  0.00  0.00     0.040 C 
BRANCH  12  13
ATOM     13  C   UNL d   1      22.154 -18.213   0.205  0.00  0.00     0.130 C 
BRANCH  13  14
ATOM     14  N   UNL d   1      20.868 -18.950   0.123  0.00  0.00    -0.352 N 
ATOM     15  C   UNL d   1      20.368 -19.797   1.114  0.00  0.00     0.108 A 
ATOM     16  C   UNL d   1      19.175 -20.289   0.658  0.00  0.00     0.106 A 
ATOM     17  N   UNL d   1      18.977 -19.727  -0.578  0.00  0.00    -0.361 N 
ATOM     18  C   UNL d   1      19.990 -18.916  -0.895  0.00  0.00     0.182 A 
ATOM     19  H   UNL d   1      18.175 -19.897  -1.181  0.00  0.00     0.166 HD
ENDBRANCH  13  14
ENDBRANCH  12  13
ENDBRANCH  11  12
ENDBRANCH   8  11
ENDBRANCH   3   5
BRANCH   1  20
ATOM     20  C   UNL d   1      25.221 -13.113  -4.461  0.00  0.00     0.076 C 
ATOM     21  C   UNL d   1      25.955 -12.034  -4.101  0.00  0.00     0.017 C 
BRANCH  21  22
ATOM     22  C   UNL d   1      25.687 -10.615  -4.481  0.00  0.00    -0.036 A 
ATOM     23  C   UNL d   1      25.530  -9.619  -3.503  0.00  0.00     0.013 A 
ATOM     24  C   UNL d   1      25.163  -8.300  -3.851  0.00  0.00     0.030 A 
ATOM     25  C   UNL d   1      25.011  -7.896  -5.183  0.00  0.00     0.029 A 
ATOM     26  C   UNL d   1      25.187  -8.888  -6.150  0.00  0.00     0.030 A 
ATOM     27  C   UNL d   1      25.530 -10.209  -5.810  0.00  0.00     0.013 A 
BRANCH  25  28
ATOM     28  N   UNL d   1      24.732  -6.577  -5.512  0.00  0.00    -0.390 N 
ATOM     29  C   UNL d   1      24.428  -6.185  -6.879  0.00  0.00     0.149 C 
ATOM     30  C   UNL d   1      24.994  -5.539  -4.521  0.00  0.00     0.149 C 
ENDBRANCH  25  28
ENDBRANCH  21  22
ENDBRANCH   1  20
TORSDOF 8
ENDMDL
MODEL 4
REMARK VINA RESULT:    -6.502      2.669      4.507
REMARK INTER + INTRA:         -10.508
REMARK INTER:                  -8.889
REMARK INTRA:                  -1.620
REMARK CONF_INDEPENDENT:        2.386
REMARK UNBOUND:                -1.620
REMARK  8 active torsions:
REMARK  status: ('A' for Active; 'I' for Inactive)
REMARK    1  A    between atoms: N_2  and  C_4 
REMARK    2  A    between atoms: C_7  and  C_8 
REMARK    3  A    between atoms: C_9  and  C_10 
REMARK       I    between atoms: C_10  and  N_12 
REMARK    4  A    between atoms: N_12  and  N_13 
REMARK       I    between atoms: N_13  and  C_14 
REMARK       I    between atoms: C_14  and  N_16 
REMARK    5  A    between atoms: N_16  and  C_17 
REMARK    6  A    between atoms: C_17  and  C_18 
REMARK    7  A    between atoms: C_18  and  C_19 
REMARK    8  A    between atoms: C_19  and  N_20 
ROOT
ATOM      1  C   UNL d   1      25.643 -16.857  -0.818  0.00  0.00     0.259 C 
ATOM      2  O   UNL d   1      26.705 -16.775  -0.197  0.00  0.00    -0.267 OA
ATOM      3  N   UNL d   1      25.414 -16.160  -2.001  0.00  0.00    -0.263 N 
ATOM      4  H   UNL d   1      24.548 -16.210  -2.535  0.00  0.00     0.190 HD
ENDROOT
BRANCH   3   5
ATOM      5  N   UNL d   1      26.433 -15.293  -2.535  0.00  0.00    -0.249 N 
ATOM      6  C   UNL d   1      26.206 -14.601  -3.716  0.00  0.00     0.334 C 
ATOM      7  O   UNL d   1      25.156 -14.689  -4.351  0.00  0.00    -0.246 OA
ATOM      8  N   UNL d   1      27.255 -13.795  -4.136  0.00  0.00    -0.342 N 
ATOM      9  H   UNL d   1      28.095 -13.767  -3.575  0.00  0.00     0.164 HD
ATOM     10  H   UNL d   1      27.287 -15.242  -1.987  0.00  0.00     0.192 HD
BRANCH   8  11
ATOM     11  C   UNL d   1      27.160 -13.006  -5.371  0.00  0.00     0.126 C 
BRANCH  11  12
ATOM     12  C   UNL d   1      28.254 -13.323  -6.399  0.00  0.00     0.040 C 
BRANCH  12  13
ATOM     13  C   UNL d   1      28.402 -14.826  -6.676  0.00  0.00     0.130 C 
BRANCH  13  14
ATOM     14  N   UNL d   1      29.463 -15.476  -5.866  0.00  0.00    -0.352 N 
ATOM     15  C   UNL d   1      29.242 -16.201  -4.693  0.00  0.00     0.108 A 
ATOM     16  C   UNL d   1      30.464 -16.623  -4.245  0.00  0.00     0.106 A 
ATOM     17  N   UNL d   1      31.384 -16.160  -5.151  0.00  0.00    -0.361 N 
ATOM     18  C   UNL d   1      30.781 -15.478  -6.129  0.00  0.00     0.182 A 
ATOM     19  H   UNL d   1      32.390 -16.307  -5.098  0.00  0.00     0.166 HD
ENDBRANCH  13  14
ENDBRANCH  12  13
ENDBRANCH  11  12
ENDBRANCH   8  11
ENDBRANCH   3   5
BRANCH   1  20
ATOM     20  C   UNL d   1      24.505 -17.723  -0.345  0.00  0.00     0.076 C 
ATOM     21  C   UNL d   1      23.255 -17.661  -0.861  0.00  0.00     0.017 C 
BRANCH  21  22
ATOM     22  C   UNL d   1      22.071 -18.451  -0.408  0.00  0.00    -0.036 A 
ATOM     23  C   UNL d   1      21.158 -18.984  -1.331  0.00  0.00     0.013 A 
ATOM     24  C   UNL d   1      19.977 -19.633  -0.905  0.00  0.00     0.030 A 
ATOM     25  C   UNL d   1      19.690 -19.843   0.449  0.00  0.00     0.029 A 
ATOM     26  C   UNL d   1      20.612 -19.325   1.361  0.00  0.00     0.030 A 
ATOM     27  C   UNL d   1      21.779 -18.658   0.944  0.00  0.00     0.013 A 
BRANCH  25  28
ATOM     28  N   UNL d   1      18.567 -20.554   0.848  0.00  0.00    -0.390 N 
ATOM     29  C   UNL d   1      17.693 -21.198  -0.120  0.00  0.00     0.149 C 
ATOM     30  C   UNL d   1      18.123 -20.440   2.233  0.00  0.00     0.149 C 
ENDBRANCH  25  28
ENDBRANCH  21  22
ENDBRANCH   1  20
TORSDOF 8
ENDMDL
MODEL 5
REMARK VINA RESULT:    -6.492      6.097     11.010
REMARK INTER + INTRA:         -10.124
REMARK INTER:                  -8.878
REMARK INTRA:                  -1.246
REMARK CONF_INDEPENDENT:        2.386
REMARK UNBOUND:                -1.246
REMARK  8 active torsions:
REMARK  status: ('A' for Active; 'I' for Inactive)
REMARK    1  A    between atoms: N_2  and  C_4 
REMARK    2  A    between atoms: C_7  and  C_8 
REMARK    3  A    between atoms: C_9  and  C_10 
REMARK       I    between atoms: C_10  and  N_12 
REMARK    4  A    between atoms: N_12  and  N_13 
REMARK       I    between atoms: N_13  and  C_14 
REMARK       I    between atoms: C_14  and  N_16 
REMARK    5  A    between atoms: N_16  and  C_17 
REMARK    6  A    between atoms: C_17  and  C_18 
REMARK    7  A    between atoms: C_18  and  C_19 
REMARK    8  A    between atoms: C_19  and  N_20 
ROOT
ATOM      1  C   UNL d   1      27.373 -14.903   0.594  0.00  0.00     0.259 C 
ATOM      2  O   UNL d   1      27.343 -14.142  -0.374  0.00  0.00    -0.267 OA
ATOM      3  N   UNL d   1      26.701 -16.122   0.607  0.00  0.00    -0.263 N 
ATOM      4  H   UNL d   1      26.710 -16.771   1.392  0.00  0.00     0.190 HD
ENDROOT
BRANCH   3   5
ATOM      5  N   UNL d   1      25.923 -16.528  -0.536  0.00  0.00    -0.249 N 
ATOM      6  C   UNL d   1      24.934 -17.490  -0.396  0.00  0.00     0.334 C 
ATOM      7  O   UNL d   1      24.676 -18.032   0.679  0.00  0.00    -0.246 OA
ATOM      8  N   UNL d   1      24.247 -17.801  -1.561  0.00  0.00    -0.342 N 
ATOM      9  H   UNL d   1      24.506 -17.326  -2.414  0.00  0.00     0.164 HD
ATOM     10  H   UNL d   1      26.160 -16.061  -1.407  0.00  0.00     0.192 HD
BRANCH   8  11
ATOM     11  C   UNL d   1      23.175 -18.805  -1.566  0.00  0.00     0.126 C 
BRANCH  11  12
ATOM     12  C   UNL d   1      22.147 -18.625  -0.440  0.00  0.00     0.040 C 
BRANCH  12  13
ATOM     13  C   UNL d   1      20.706 -18.902  -0.894  0.00  0.00     0.130 C 
BRANCH  13  14
ATOM     14  N   UNL d   1      19.904 -19.650   0.107  0.00  0.00    -0.352 N 
ATOM     15  C   UNL d   1      20.122 -19.627   1.486  0.00  0.00     0.108 A 
ATOM     16  C   UNL d   1      19.188 -20.449   2.056  0.00  0.00     0.106 A 
ATOM     17  N   UNL d   1      18.428 -20.936   1.023  0.00  0.00    -0.361 N 
ATOM     18  C   UNL d   1      18.853 -20.449  -0.146  0.00  0.00     0.182 A 
ATOM     19  H   UNL d   1      17.646 -21.581   1.119  0.00  0.00     0.166 HD
ENDBRANCH  13  14
ENDBRANCH  12  13
ENDBRANCH  11  12
ENDBRANCH   8  11
ENDBRANCH   3   5
BRANCH   1  20
ATOM     20  C   UNL d   1      28.144 -14.576   1.846  0.00  0.00     0.076 C 
ATOM     21  C   UNL d   1      27.569 -14.440   3.064  0.00  0.00     0.017 C 
BRANCH  21  22
ATOM     22  C   UNL d   1      28.263 -14.068   4.334  0.00  0.00    -0.036 A 
ATOM     23  C   UNL d   1      29.420 -14.744   4.753  0.00  0.00     0.013 A 
ATOM     24  C   UNL d   1      30.014 -14.474   6.006  0.00  0.00     0.030 A 
ATOM     25  C   UNL d   1      29.530 -13.476   6.861  0.00  0.00     0.029 A 
ATOM     26  C   UNL d   1      28.389 -12.796   6.428  0.00  0.00     0.030 A 
ATOM     27  C   UNL d   1      27.779 -13.075   5.191  0.00  0.00     0.013 A 
BRANCH  25  28
ATOM     28  N   UNL d   1      30.173 -13.167   8.051  0.00  0.00    -0.390 N 
ATOM     29  C   UNL d   1      31.107 -14.094   8.670  0.00  0.00     0.149 C 
ATOM     30  C   UNL d   1      29.715 -12.011   8.814  0.00  0.00     0.149 C 
ENDBRANCH  25  28
ENDBRANCH  21  22
ENDBRANCH   1  20
TORSDOF 8
ENDMDL
MODEL 6
REMARK VINA RESULT:    -6.448      1.951      2.849
REMARK INTER + INTRA:         -10.228
REMARK INTER:                  -8.835
REMARK INTRA:                  -1.394
REMARK CONF_INDEPENDENT:        2.386
REMARK UNBOUND:                -1.394
REMARK  8 active torsions:
REMARK  status: ('A' for Active; 'I' for Inactive)
REMARK    1  A    between atoms: N_2  and  C_4 
REMARK    2  A    between atoms: C_7  and  C_8 
REMARK    3  A    between atoms: C_9  and  C_10 
REMARK       I    between atoms: C_10  and  N_12 
REMARK    4  A    between atoms: N_12  and  N_13 
REMARK       I    between atoms: N_13  and  C_14 
REMARK       I    between atoms: C_14  and  N_16 
REMARK    5  A    between atoms: N_16  and  C_17 
REMARK    6  A    between atoms: C_17  and  C_18 
REMARK    7  A    between atoms: C_18  and  C_19 
REMARK    8  A    between atoms: C_19  and  N_20 
ROOT
ATOM      1  C   UNL d   1      25.115 -16.397  -1.297  0.00  0.00     0.259 C 
ATOM      2  O   UNL d   1      26.291 -16.514  -0.947  0.00  0.00    -0.267 OA
ATOM      3  N   UNL d   1      24.727 -15.572  -2.349  0.00  0.00    -0.263 N 
ATOM      4  H   UNL d   1      23.764 -15.458  -2.660  0.00  0.00     0.190 HD
ENDROOT
BRANCH   3   5
ATOM      5  N   UNL d   1      25.714 -14.804  -3.064  0.00  0.00    -0.249 N 
ATOM      6  C   UNL d   1      25.315 -13.839  -3.977  0.00  0.00     0.334 C 
ATOM      7  O   UNL d   1      24.132 -13.596  -4.218  0.00  0.00    -0.246 OA
ATOM      8  N   UNL d   1      26.349 -13.161  -4.606  0.00  0.00    -0.342 N 
ATOM      9  H   UNL d   1      27.300 -13.407  -4.370  0.00  0.00     0.164 HD
ATOM     10  H   UNL d   1      26.680 -15.029  -2.842  0.00  0.00     0.192 HD
BRANCH   8  11
ATOM     11  C   UNL d   1      26.078 -12.114  -5.600  0.00  0.00     0.126 C 
BRANCH  11  12
ATOM     12  C   UNL d   1      26.734 -10.765  -5.280  0.00  0.00     0.040 C 
BRANCH  12  13
ATOM     13  C   UNL d   1      28.130 -10.614  -5.902  0.00  0.00     0.130 C 
BRANCH  13  14
ATOM     14  N   UNL d   1      28.339 -11.461  -7.103  0.00  0.00    -0.352 N 
ATOM     15  C   UNL d   1      27.835 -11.183  -8.375  0.00  0.00     0.108 A 
ATOM     16  C   UNL d   1      28.233 -12.202  -9.197  0.00  0.00     0.106 A 
ATOM     17  N   UNL d   1      28.969 -13.057  -8.417  0.00  0.00    -0.361 N 
ATOM     18  C   UNL d   1      29.039 -12.607  -7.161  0.00  0.00     0.182 A 
ATOM     19  H   UNL d   1      29.406 -13.920  -8.737  0.00  0.00     0.166 HD
ENDBRANCH  13  14
ENDBRANCH  12  13
ENDBRANCH  11  12
ENDBRANCH   8  11
ENDBRANCH   3   5
BRANCH   1  20
ATOM     20  C   UNL d   1      23.999 -17.143  -0.612  0.00  0.00     0.076 C 
ATOM     21  C   UNL d   1      23.042 -17.830  -1.278  0.00  0.00     0.017 C 
BRANCH  21  22
ATOM     22  C   UNL d   1      21.882 -18.546  -0.668  0.00  0.00    -0.036 A 
ATOM     23  C   UNL d   1      20.825 -19.022  -1.461  0.00  0.00     0.013 A 
ATOM     24  C   UNL d   1      19.673 -19.598  -0.879  0.00  0.00     0.030 A 
ATOM     25  C   UNL d   1      19.554 -19.792   0.503  0.00  0.00     0.029 A 
ATOM     26  C   UNL d   1      20.617 -19.332   1.282  0.00  0.00     0.030 A 
ATOM     27  C   UNL d   1      21.758 -18.738   0.712  0.00  0.00     0.013 A 
BRANCH  25  28
ATOM     28  N   UNL d   1      18.452 -20.434   1.051  0.00  0.00    -0.390 N 
ATOM     29  C   UNL d   1      18.188 -20.399   2.480  0.00  0.00     0.149 C 
ATOM     30  C   UNL d   1      17.696 -21.361   0.216  0.00  0.00     0.149 C 
ENDBRANCH  25  28
ENDBRANCH  21  22
ENDBRANCH   1  20
TORSDOF 8
ENDMDL
MODEL 7
REMARK VINA RESULT:    -6.244      3.815      6.875
REMARK INTER + INTRA:          -9.998
REMARK INTER:                  -8.630
REMARK INTRA:                  -1.368
REMARK CONF_INDEPENDENT:        2.386
REMARK UNBOUND:                -1.368
REMARK  8 active torsions:
REMARK  status: ('A' for Active; 'I' for Inactive)
REMARK    1  A    between atoms: N_2  and  C_4 
REMARK    2  A    between atoms: C_7  and  C_8 
REMARK    3  A    between atoms: C_9  and  C_10 
REMARK       I    between atoms: C_10  and  N_12 
REMARK    4  A    between atoms: N_12  and  N_13 
REMARK       I    between atoms: N_13  and  C_14 
REMARK       I    between atoms: C_14  and  N_16 
REMARK    5  A    between atoms: N_16  and  C_17 
REMARK    6  A    between atoms: C_17  and  C_18 
REMARK    7  A    between atoms: C_18  and  C_19 
REMARK    8  A    between atoms: C_19  and  N_20 
ROOT
ATOM      1  C   UNL d   1      26.524 -11.569  -5.360  0.00  0.00     0.259 C 
ATOM      2  O   UNL d   1      27.334 -11.488  -6.285  0.00  0.00    -0.267 OA
ATOM      3  N   UNL d   1      25.503 -10.641  -5.177  0.00  0.00    -0.263 N 
ATOM      4  H   UNL d   1      24.820 -10.684  -4.423  0.00  0.00     0.190 HD
ENDROOT
BRANCH   3   5
ATOM      5  N   UNL d   1      25.374  -9.526  -6.081  0.00  0.00    -0.249 N 
ATOM      6  C   UNL d   1      24.464  -8.514  -5.808  0.00  0.00     0.334 C 
ATOM      7  O   UNL d   1      23.741  -8.516  -4.812  0.00  0.00    -0.246 OA
ATOM      8  N   UNL d   1      24.426  -7.491  -6.745  0.00  0.00    -0.342 N 
ATOM      9  H   UNL d   1      25.040  -7.547  -7.545  0.00  0.00     0.164 HD
ATOM     10  H   UNL d   1      25.985  -9.554  -6.892  0.00  0.00     0.192 HD
BRANCH   8  11
ATOM     11  C   UNL d   1      23.508  -6.354  -6.590  0.00  0.00     0.126 C 
BRANCH  11  12
ATOM     12  C   UNL d   1      22.270  -6.424  -7.495  0.00  0.00     0.040 C 
BRANCH  12  13
ATOM     13  C   UNL d   1      20.957  -6.196  -6.734  0.00  0.00     0.130 C 
BRANCH  13  14
ATOM     14  N   UNL d   1      19.750  -6.284  -7.594  0.00  0.00    -0.352 N 
ATOM     15  C   UNL d   1      19.418  -5.375  -8.601  0.00  0.00     0.108 A 
ATOM     16  C   UNL d   1      18.237  -5.795  -9.149  0.00  0.00     0.106 A 
ATOM     17  N   UNL d   1      17.891  -6.941  -8.479  0.00  0.00    -0.361 N 
ATOM     18  C   UNL d   1      18.805  -7.239  -7.551  0.00  0.00     0.182 A 
ATOM     19  H   UNL d   1      17.056  -7.497  -8.652  0.00  0.00     0.166 HD
ENDBRANCH  13  14
ENDBRANCH  12  13
ENDBRANCH  11  12
ENDBRANCH   8  11
ENDBRANCH   3   5
BRANCH   1  20
ATOM     20  C   UNL d   1      26.572 -12.686  -4.349  0.00  0.00     0.076 C 
ATOM     21  C   UNL d   1      25.610 -13.630  -4.233  0.00  0.00     0.017 C 
BRANCH  21  22
ATOM     22  C   UNL d   1      25.569 -14.731  -3.225  0.00  0.00    -0.036 A 
ATOM     23  C   UNL d   1      24.407 -14.989  -2.479  0.00  0.00     0.013 A 
ATOM     24  C   UNL d   1      24.397 -15.952  -1.445  0.00  0.00     0.030 A 
ATOM     25  C   UNL d   1      25.513 -16.749  -1.158  0.00  0.00     0.029 A 
ATOM     26  C   UNL d   1      26.658 -16.498  -1.916  0.00  0.00     0.030 A 
ATOM     27  C   UNL d   1      26.683 -15.525  -2.933  0.00  0.00     0.013 A 
BRANCH  25  28
ATOM     28  N   UNL d   1      25.461 -17.746  -0.195  0.00  0.00    -0.390 N 
ATOM     29  C   UNL d   1      26.646 -18.147   0.545  0.00  0.00     0.149 C 
ATOM     30  C   UNL d   1      24.260 -18.571  -0.107  0.00  0.00     0.149 C 
ENDBRANCH  25  28
ENDBRANCH  21  22
ENDBRANCH   1  20
TORSDOF 8
ENDMDL
MODEL 8
REMARK VINA RESULT:    -6.236      8.076     10.969
REMARK INTER + INTRA:          -9.964
REMARK INTER:                  -8.623
REMARK INTRA:                  -1.341
REMARK CONF_INDEPENDENT:        2.386
REMARK UNBOUND:                -1.341
REMARK  8 active torsions:
REMARK  status: ('A' for Active; 'I' for Inactive)
REMARK    1  A    between atoms: N_2  and  C_4 
REMARK    2  A    between atoms: C_7  and  C_8 
REMARK    3  A    between atoms: C_9  and  C_10 
REMARK       I    between atoms: C_10  and  N_12 
REMARK    4  A    between atoms: N_12  and  N_13 
REMARK       I    between atoms: N_13  and  C_14 
REMARK       I    between atoms: C_14  and  N_16 
REMARK    5  A    between atoms: N_16  and  C_17 
REMARK    6  A    between atoms: C_17  and  C_18 
REMARK    7  A    between atoms: C_18  and  C_19 
REMARK    8  A    between atoms: C_19  and  N_20 
ROOT
ATOM      1  C   UNL d   1      27.906 -13.665   3.396  0.00  0.00     0.259 C 
ATOM      2  O   UNL d   1      27.719 -12.544   2.920  0.00  0.00    -0.267 OA
ATOM      3  N   UNL d   1      27.924 -14.815   2.612  0.00  0.00    -0.263 N 
ATOM      4  H   UNL d   1      28.078 -15.753   2.978  0.00  0.00     0.190 HD
ENDROOT
BRANCH   3   5
ATOM      5  N   UNL d   1      27.705 -14.723   1.191  0.00  0.00    -0.249 N 
ATOM      6  C   UNL d   1      27.251 -15.827   0.486  0.00  0.00     0.334 C 
ATOM      7  O   UNL d   1      27.019 -16.912   1.019  0.00  0.00    -0.246 OA
ATOM      8  N   UNL d   1      27.073 -15.623  -0.875  0.00  0.00    -0.342 N 
ATOM      9  H   UNL d   1      27.284 -14.712  -1.257  0.00  0.00     0.164 HD
ATOM     10  H   UNL d   1      27.904 -13.814   0.782  0.00  0.00     0.192 HD
BRANCH   8  11
ATOM     11  C   UNL d   1      26.601 -16.704  -1.750  0.00  0.00     0.126 C 
BRANCH  11  12
ATOM     12  C   UNL d   1      25.225 -16.443  -2.377  0.00  0.00     0.040 C 
BRANCH  12  13
ATOM     13  C   UNL d   1      24.122 -16.217  -1.333  0.00  0.00     0.130 C 
BRANCH  13  14
ATOM     14  N   UNL d   1      23.455 -17.469  -0.896  0.00  0.00    -0.352 N 
ATOM     15  C   UNL d   1      22.075 -17.680  -0.891  0.00  0.00     0.108 A 
ATOM     16  C   UNL d   1      21.862 -18.944  -0.411  0.00  0.00     0.106 A 
ATOM     17  N   UNL d   1      23.104 -19.467  -0.150  0.00  0.00    -0.361 N 
ATOM     18  C   UNL d   1      24.060 -18.584  -0.450  0.00  0.00     0.182 A 
ATOM     19  H   UNL d   1      23.286 -20.397   0.222  0.00  0.00     0.166 HD
ENDBRANCH  13  14
ENDBRANCH  12  13
ENDBRANCH  11  12
ENDBRANCH   8  11
ENDBRANCH   3   5
BRANCH   1  20
ATOM     20  C   UNL d   1      28.134 -13.881   4.869  0.00  0.00     0.076 C 
ATOM     21  C   UNL d   1      28.420 -12.882   5.736  0.00  0.00     0.017 C 
BRANCH  21  22
ATOM     22  C   UNL d   1      28.707 -13.031   7.194  0.00  0.00    -0.036 A 
ATOM     23  C   UNL d   1      29.515 -14.075   7.672  0.00  0.00     0.013 A 
ATOM     24  C   UNL d   1      29.695 -14.288   9.057  0.00  0.00     0.030 A 
ATOM     25  C   UNL d   1      29.145 -13.433  10.021  0.00  0.00     0.029 A 
ATOM     26  C   UNL d   1      28.359 -12.386   9.536  0.00  0.00     0.030 A 
ATOM     27  C   UNL d   1      28.156 -12.181   8.158  0.00  0.00     0.013 A 
BRANCH  25  28
ATOM     28  N   UNL d   1      29.401 -13.608  11.373  0.00  0.00    -0.390 N 
ATOM     29  C   UNL d   1      28.600 -14.510  12.185  0.00  0.00     0.149 C 
ATOM     30  C   UNL d   1      30.318 -12.688  12.036  0.00  0.00     0.149 C 
ENDBRANCH  25  28
ENDBRANCH  21  22
ENDBRANCH   1  20
TORSDOF 8
ENDMDL
MODEL 9
REMARK VINA RESULT:    -5.974      4.370      6.687
REMARK INTER + INTRA:          -9.897
REMARK INTER:                  -8.361
REMARK INTRA:                  -1.536
REMARK CONF_INDEPENDENT:        2.386
REMARK UNBOUND:                -1.536
REMARK  8 active torsions:
REMARK  status: ('A' for Active; 'I' for Inactive)
REMARK    1  A    between atoms: N_2  and  C_4 
REMARK    2  A    between atoms: C_7  and  C_8 
REMARK    3  A    between atoms: C_9  and  C_10 
REMARK       I    between atoms: C_10  and  N_12 
REMARK    4  A    between atoms: N_12  and  N_13 
REMARK       I    between atoms: N_13  and  C_14 
REMARK       I    between atoms: C_14  and  N_16 
REMARK    5  A    between atoms: N_16  and  C_17 
REMARK    6  A    between atoms: C_17  and  C_18 
REMARK    7  A    between atoms: C_18  and  C_19 
REMARK    8  A    between atoms: C_19  and  N_20 
ROOT
ATOM      1  C   UNL d   1      27.532 -15.410  -2.161  0.00  0.00     0.259 C 
ATOM      2  O   UNL d   1      28.387 -15.089  -1.333  0.00  0.00    -0.267 OA
ATOM      3  N   UNL d   1      27.784 -15.419  -3.530  0.00  0.00    -0.263 N 
ATOM      4  H   UNL d   1      27.098 -15.681  -4.235  0.00  0.00     0.190 HD
ENDROOT
BRANCH   3   5
ATOM      5  N   UNL d   1      29.080 -15.031  -4.026  0.00  0.00    -0.249 N 
ATOM      6  C   UNL d   1      29.402 -15.236  -5.360  0.00  0.00     0.334 C 
ATOM      7  O   UNL d   1      28.623 -15.745  -6.165  0.00  0.00    -0.246 OA
ATOM      8  N   UNL d   1      30.675 -14.823  -5.728  0.00  0.00    -0.342 N 
ATOM      9  H   UNL d   1      31.271 -14.415  -5.022  0.00  0.00     0.164 HD
ATOM     10  H   UNL d   1      29.699 -14.613  -3.337  0.00  0.00     0.192 HD
BRANCH   8  11
ATOM     11  C   UNL d   1      31.156 -14.980  -7.106  0.00  0.00     0.126 C 
BRANCH  11  12
ATOM     12  C   UNL d   1      31.847 -16.324  -7.376  0.00  0.00     0.040 C 
BRANCH  12  13
ATOM     13  C   UNL d   1      30.857 -17.465  -7.648  0.00  0.00     0.130 C 
BRANCH  13  14
ATOM     14  N   UNL d   1      30.801 -18.473  -6.560  0.00  0.00    -0.352 N 
ATOM     15  C   UNL d   1      30.884 -19.855  -6.745  0.00  0.00     0.108 A 
ATOM     16  C   UNL d   1      30.781 -20.433  -5.509  0.00  0.00     0.106 A 
ATOM     17  N   UNL d   1      30.652 -19.401  -4.614  0.00  0.00    -0.361 N 
ATOM     18  C   UNL d   1      30.673 -18.224  -5.245  0.00  0.00     0.182 A 
ATOM     19  H   UNL d   1      30.551 -19.503  -3.606  0.00  0.00     0.166 HD
ENDBRANCH  13  14
ENDBRANCH  12  13
ENDBRANCH  11  12
ENDBRANCH   8  11
ENDBRANCH   3   5
BRANCH   1  20
ATOM     20  C   UNL d   1      26.141 -15.821  -1.756  0.00  0.00     0.076 C 
ATOM     21  C   UNL d   1      25.855 -17.002  -1.159  0.00  0.00     0.017 C 
BRANCH  21  22
ATOM     22  C   UNL d   1      24.497 -17.495  -0.778  0.00  0.00    -0.036 A 
ATOM     23  C   UNL d   1      24.290 -18.830  -0.396  0.00  0.00     0.013 A 
ATOM     24  C   UNL d   1      22.992 -19.329  -0.146  0.00  0.00     0.030 A 
ATOM     25  C   UNL d   1      21.857 -18.510  -0.192  0.00  0.00     0.029 A 
ATOM     26  C   UNL d   1      22.074 -17.179  -0.554  0.00  0.00     0.030 A 
ATOM     27  C   UNL d   1      23.361 -16.680  -0.827  0.00  0.00     0.013 A 
BRANCH  25  28
ATOM     28  N   UNL d   1      20.600 -18.997   0.137  0.00  0.00    -0.390 N 
ATOM     29  C   UNL d   1      20.363 -19.699   1.388  0.00  0.00     0.149 C 
ATOM     30  C   UNL d   1      19.569 -19.025  -0.895  0.00  0.00     0.149 C 
ENDBRANCH  25  28
ENDBRANCH  21  22
ENDBRANCH   1  20
TORSDOF 8
ENDMDL
