MODEL 1
REMARK VINA RESULT:    -8.876      0.000      0.000
REMARK INTER + INTRA:         -12.401
REMARK INTER:                 -11.262
REMARK INTRA:                  -1.138
REMARK CONF_INDEPENDENT:        2.386
REMARK UNBOUND:                -1.138
REMARK  8 active torsions:
REMARK  status: ('A' for Active; 'I' for Inactive)
REMARK    1  A    between atoms: O_2  and  C_3 
REMARK    2  A    between atoms: C_6  and  C_7 
REMARK    3  A    between atoms: C_7  and  C_8 
REMARK    4  A    between atoms: C_8  and  N_9 
REMARK       I    between atoms: N_9  and  C_10 
REMARK    5  A    between atoms: C_10  and  C_12 
REMARK    6  A    between atoms: C_14  and  N_15 
REMARK       I    between atoms: N_15  and  C_16 
REMARK       I    between atoms: C_16  and  N_18 
REMARK    7  A    between atoms: N_18  and  C_19 
REMARK    8  A    between atoms: C_30  and  O_31 
ROOT
ATOM      1  C   UNL d   1      27.692 -13.349   2.469  0.00  0.00     0.100 A 
ATOM      2  S   UNL d   1      27.405 -13.826   4.084  0.00  0.00    -0.044 SA
ATOM      3  C   UNL d   1      27.904 -12.297   4.690  0.00  0.00     0.175 A 
ATOM      4  N   UNL d   1      28.269 -11.448   3.746  0.00  0.00    -0.228 NA
ATOM      5  C   UNL d   1      28.150 -12.040   2.471  0.00  0.00     0.056 A 
ATOM      6  C   UNL d   1      28.445 -11.250   1.245  0.00  0.00     0.072 C 
ENDROOT
BRANCH   1   7
ATOM      7  C   UNL d   1      27.387 -14.238   1.360  0.00  0.00     0.260 C 
ATOM      8  N   UNL d   1      28.244 -15.317   1.168  0.00  0.00    -0.356 N 
ATOM      9  H   UNL d   1      28.939 -15.537   1.865  0.00  0.00     0.162 HD
ATOM     10  O   UNL d   1      26.426 -14.061   0.594  0.00  0.00    -0.267 OA
BRANCH   8  11
ATOM     11  C   UNL d   1      28.039 -16.245   0.070  0.00  0.00     0.127 C 
BRANCH  11  12
ATOM     12  C   UNL d   1      27.257 -17.528   0.424  0.00  0.00     0.058 C 
BRANCH  12  13
ATOM     13  C   UNL d   1      25.784 -17.475   0.055  0.00  0.00    -0.054 A 
ATOM     14  C   UNL d   1      24.863 -18.394   0.559  0.00  0.00     0.010 A 
ATOM     15  C   UNL d   1      23.527 -18.391   0.100  0.00  0.00     0.040 A 
ATOM     16  C   UNL d   1      23.040 -17.423  -0.811  0.00  0.00     0.101 A 
ATOM     17  C   UNL d   1      23.960 -16.468  -1.273  0.00  0.00     0.102 A 
ATOM     18  C   UNL d   1      25.296 -16.522  -0.839  0.00  0.00     0.046 A 
BRANCH  16  19
ATOM     19  O   UNL d   1      21.664 -17.391  -0.895  0.00  0.00    -0.353 OA
ATOM     20  C   UNL d   1      20.864 -18.575  -0.895  0.00  0.00     0.210 C 
ENDBRANCH  16  19
BRANCH  17  21
ATOM     21  O   UNL d   1      23.832 -15.364  -2.079  0.00  0.00    -0.353 OA
ATOM     22  C   UNL d   1      25.036 -14.842  -2.545  0.00  0.00     0.210 C 
ENDBRANCH  17  21
ENDBRANCH  12  13
ENDBRANCH  11  12
ENDBRANCH   8  11
ENDBRANCH   1   7
BRANCH   3  23
ATOM     23  N   UNL d   1      27.907 -11.991   6.063  0.00  0.00    -0.287 N 
ATOM     24  C   UNL d   1      28.225 -12.899   7.063  0.00  0.00     0.326 C 
ATOM     25  O   UNL d   1      28.535 -14.066   6.845  0.00  0.00    -0.247 OA
ATOM     26  N   UNL d   1      28.154 -12.416   8.375  0.00  0.00    -0.309 N 
ATOM     27  H   UNL d   1      27.680 -11.549   8.587  0.00  0.00     0.170 HD
ATOM     28  H   UNL d   1      27.673 -11.034   6.279  0.00  0.00     0.172 HD
BRANCH  26  29
ATOM     29  C   UNL d   1      28.501 -13.249   9.494  0.00  0.00     0.036 A 
ATOM     30  C   UNL d   1      27.837 -13.140  10.722  0.00  0.00     0.029 A 
ATOM     31  C   UNL d   1      28.242 -13.915  11.826  0.00  0.00     0.003 A 
ATOM     32  C   UNL d   1      29.293 -14.825  11.709  0.00  0.00     0.007 A 
ATOM     33  C   UNL d   1      29.971 -14.942  10.498  0.00  0.00    -0.060 A 
ATOM     34  C   UNL d   1      31.165 -15.839  10.362  0.00  0.00     0.048 C 
ATOM     35  C   UNL d   1      29.561 -14.163   9.402  0.00  0.00     0.036 A 
ENDBRANCH  26  29
ENDBRANCH   3  23
TORSDOF 8
ENDMDL
MODEL 2
REMARK VINA RESULT:    -8.385      7.714     10.411
REMARK INTER + INTRA:         -11.644
REMARK INTER:                 -10.771
REMARK INTRA:                  -0.872
REMARK CONF_INDEPENDENT:        2.386
REMARK UNBOUND:                -0.872
REMARK  8 active torsions:
REMARK  status: ('A' for Active; 'I' for Inactive)
REMARK    1  A    between atoms: O_2  and  C_3 
REMARK    2  A    between atoms: C_6  and  C_7 
REMARK    3  A    between atoms: C_7  and  C_8 
REMARK    4  A    between atoms: C_8  and  N_9 
REMARK       I    between atoms: N_9  and  C_10 
REMARK    5  A    between atoms: C_10  and  C_12 
REMARK    6  A    between atoms: C_14  and  N_15 
REMARK       I    between atoms: N_15  and  C_16 
REMARK       I    between atoms: C_16  and  N_18 
REMARK    7  A    between atoms: N_18  and  C_19 
REMARK    8  A    between atoms: C_30  and  O_31 
ROOT
ATOM      1  C   UNL d   1      26.733 -15.574  -3.184  0.00  0.00     0.100 A 
ATOM      2  S   UNL d   1      25.074 -15.520  -2.785  0.00  0.00    -0.044 SA
ATOM      3  C   UNL d   1      25.334 -16.377  -1.317  0.00  0.00     0.175 A 
ATOM      4  N   UNL d   1      26.600 -16.695  -1.110  0.00  0.00    -0.228 NA
ATOM      5  C   UNL d   1      27.408 -16.239  -2.172  0.00  0.00     0.056 A 
ATOM      6  C   UNL d   1      28.884 -16.427  -2.127  0.00  0.00     0.072 C 
ENDROOT
BRANCH   1   7
ATOM      7  C   UNL d   1      27.237 -14.919  -4.380  0.00  0.00     0.260 C 
ATOM      8  N   UNL d   1      28.320 -15.519  -5.014  0.00  0.00    -0.356 N 
ATOM      9  H   UNL d   1      28.622 -16.439  -4.731  0.00  0.00     0.162 HD
ATOM     10  O   UNL d   1      26.756 -13.866  -4.829  0.00  0.00    -0.267 OA
BRANCH   8  11
ATOM     11  C   UNL d   1      28.912 -14.926  -6.200  0.00  0.00     0.127 C 
BRANCH  11  12
ATOM     12  C   UNL d   1      30.328 -15.426  -6.556  0.00  0.00     0.058 C 
BRANCH  12  13
ATOM     13  C   UNL d   1      30.517 -16.923  -6.378  0.00  0.00    -0.054 A 
ATOM     14  C   UNL d   1      30.472 -17.528  -5.122  0.00  0.00     0.010 A 
ATOM     15  C   UNL d   1      30.773 -18.901  -4.978  0.00  0.00     0.040 A 
ATOM     16  C   UNL d   1      31.047 -19.737  -6.087  0.00  0.00     0.101 A 
ATOM     17  C   UNL d   1      31.038 -19.132  -7.355  0.00  0.00     0.102 A 
ATOM     18  C   UNL d   1      30.784 -17.754  -7.466  0.00  0.00     0.046 A 
BRANCH  16  19
ATOM     19  O   UNL d   1      31.007 -21.081  -5.785  0.00  0.00    -0.353 OA
ATOM     20  C   UNL d   1      30.742 -21.568  -4.467  0.00  0.00     0.210 C 
ENDBRANCH  16  19
BRANCH  17  21
ATOM     21  O   UNL d   1      31.179 -19.630  -8.627  0.00  0.00    -0.353 OA
ATOM     22  C   UNL d   1      32.484 -19.624  -9.111  0.00  0.00     0.210 C 
ENDBRANCH  17  21
ENDBRANCH  12  13
ENDBRANCH  11  12
ENDBRANCH   8  11
ENDBRANCH   1   7
BRANCH   3  23
ATOM     23  N   UNL d   1      24.292 -16.690  -0.428  0.00  0.00    -0.287 N 
ATOM     24  C   UNL d   1      23.255 -17.565  -0.719  0.00  0.00     0.326 C 
ATOM     25  O   UNL d   1      23.146 -18.154  -1.791  0.00  0.00    -0.247 OA
ATOM     26  N   UNL d   1      22.296 -17.738   0.286  0.00  0.00    -0.309 N 
ATOM     27  H   UNL d   1      22.237 -17.097   1.065  0.00  0.00     0.170 HD
ATOM     28  H   UNL d   1      24.358 -16.237   0.472  0.00  0.00     0.172 HD
BRANCH  26  29
ATOM     29  C   UNL d   1      21.199 -18.651   0.119  0.00  0.00     0.036 A 
ATOM     30  C   UNL d   1      20.600 -18.856  -1.131  0.00  0.00     0.029 A 
ATOM     31  C   UNL d   1      19.481 -19.700  -1.258  0.00  0.00     0.003 A 
ATOM     32  C   UNL d   1      18.964 -20.369  -0.148  0.00  0.00     0.007 A 
ATOM     33  C   UNL d   1      19.541 -20.173   1.104  0.00  0.00    -0.060 A 
ATOM     34  C   UNL d   1      18.955 -20.800   2.335  0.00  0.00     0.048 C 
ATOM     35  C   UNL d   1      20.657 -19.327   1.222  0.00  0.00     0.036 A 
ENDBRANCH  26  29
ENDBRANCH   3  23
TORSDOF 8
ENDMDL
MODEL 3
REMARK VINA RESULT:    -8.235      3.857      6.646
REMARK INTER + INTRA:         -11.995
REMARK INTER:                 -10.622
REMARK INTRA:                  -1.374
REMARK CONF_INDEPENDENT:        2.386
REMARK UNBOUND:                -1.374
REMARK  8 active torsions:
REMARK  status: ('A' for Active; 'I' for Inactive)
REMARK    1  A    between atoms: O_2  and  C_3 
REMARK    2  A    between atoms: C_6  and  C_7 
REMARK    3  A    between atoms: C_7  and  C_8 
REMARK    4  A    between atoms: C_8  and  N_9 
REMARK       I    between atoms: N_9  and  C_10 
REMARK    5  A    between atoms: C_10  and  C_12 
REMARK    6  A    between atoms: C_14  and  N_15 
REMARK       I    between atoms: N_15  and  C_16 
REMARK       I    between atoms: C_16  and  N_18 
REMARK    7  A    between atoms: N_18  and  C_19 
REMARK    8  A    between atoms: C_30  and  O_31 
ROOT
ATOM      1  C   UNL d   1      25.952 -14.797  -1.756  0.00  0.00     0.100 A 
ATOM      2  S   UNL d   1      27.067 -14.017  -0.725  0.00  0.00    -0.044 SA
ATOM      3  C   UNL d   1      27.098 -15.353   0.356  0.00  0.00     0.175 A 
ATOM      4  N   UNL d   1      26.321 -16.354  -0.020  0.00  0.00    -0.228 NA
ATOM      5  C   UNL d   1      25.662 -16.046  -1.228  0.00  0.00     0.056 A 
ATOM      6  C   UNL d   1      24.780 -17.052  -1.880  0.00  0.00     0.072 C 
ENDROOT
BRANCH   1   7
ATOM      7  C   UNL d   1      25.519 -14.177  -2.998  0.00  0.00     0.260 C 
ATOM      8  N   UNL d   1      25.934 -12.868  -3.222  0.00  0.00    -0.356 N 
ATOM      9  H   UNL d   1      26.623 -12.449  -2.618  0.00  0.00     0.162 HD
ATOM     10  O   UNL d   1      24.800 -14.755  -3.830  0.00  0.00    -0.267 OA
BRANCH   8  11
ATOM     11  C   UNL d   1      25.530 -12.154  -4.420  0.00  0.00     0.127 C 
BRANCH  11  12
ATOM     12  C   UNL d   1      26.681 -11.544  -5.249  0.00  0.00     0.058 C 
BRANCH  12  13
ATOM     13  C   UNL d   1      27.659 -12.571  -5.795  0.00  0.00    -0.054 A 
ATOM     14  C   UNL d   1      28.529 -12.275  -6.845  0.00  0.00     0.010 A 
ATOM     15  C   UNL d   1      29.337 -13.287  -7.409  0.00  0.00     0.040 A 
ATOM     16  C   UNL d   1      29.370 -14.607  -6.896  0.00  0.00     0.101 A 
ATOM     17  C   UNL d   1      28.531 -14.883  -5.804  0.00  0.00     0.102 A 
ATOM     18  C   UNL d   1      27.700 -13.871  -5.293  0.00  0.00     0.046 A 
BRANCH  16  19
ATOM     19  O   UNL d   1      30.430 -15.353  -7.366  0.00  0.00    -0.353 OA
ATOM     20  C   UNL d   1      30.786 -16.621  -6.812  0.00  0.00     0.210 C 
ENDBRANCH  16  19
BRANCH  17  21
ATOM     21  O   UNL d   1      28.359 -15.996  -5.018  0.00  0.00    -0.353 OA
ATOM     22  C   UNL d   1      28.551 -15.780  -3.657  0.00  0.00     0.210 C 
ENDBRANCH  17  21
ENDBRANCH  12  13
ENDBRANCH  11  12
ENDBRANCH   8  11
ENDBRANCH   1   7
BRANCH   3  23
ATOM     23  N   UNL d   1      27.890 -15.369   1.518  0.00  0.00    -0.287 N 
ATOM     24  C   UNL d   1      27.742 -14.480   2.573  0.00  0.00     0.326 C 
ATOM     25  O   UNL d   1      26.901 -13.586   2.594  0.00  0.00    -0.247 OA
ATOM     26  N   UNL d   1      28.636 -14.639   3.639  0.00  0.00    -0.309 N 
ATOM     27  H   UNL d   1      29.470 -15.200   3.540  0.00  0.00     0.170 HD
ATOM     28  H   UNL d   1      28.581 -16.103   1.543  0.00  0.00     0.172 HD
BRANCH  26  29
ATOM     29  C   UNL d   1      28.556 -13.807   4.808  0.00  0.00     0.036 A 
ATOM     30  C   UNL d   1      28.182 -12.459   4.724  0.00  0.00     0.029 A 
ATOM     31  C   UNL d   1      28.179 -11.644   5.872  0.00  0.00     0.003 A 
ATOM     32  C   UNL d   1      28.522 -12.169   7.118  0.00  0.00     0.007 A 
ATOM     33  C   UNL d   1      28.903 -13.505   7.221  0.00  0.00    -0.060 A 
ATOM     34  C   UNL d   1      29.369 -14.080   8.526  0.00  0.00     0.048 C 
ATOM     35  C   UNL d   1      28.905 -14.311   6.069  0.00  0.00     0.036 A 
ENDBRANCH  26  29
ENDBRANCH   3  23
TORSDOF 8
ENDMDL
MODEL 4
REMARK VINA RESULT:    -8.186      6.068     10.435
REMARK INTER + INTRA:         -11.546
REMARK INTER:                 -10.572
REMARK INTRA:                  -0.973
REMARK CONF_INDEPENDENT:        2.386
REMARK UNBOUND:                -0.973
REMARK  8 active torsions:
REMARK  status: ('A' for Active; 'I' for Inactive)
REMARK    1  A    between atoms: O_2  and  C_3 
REMARK    2  A    between atoms: C_6  and  C_7 
REMARK    3  A    between atoms: C_7  and  C_8 
REMARK    4  A    between atoms: C_8  and  N_9 
REMARK       I    between atoms: N_9  and  C_10 
REMARK    5  A    between atoms: C_10  and  C_12 
REMARK    6  A    between atoms: C_14  and  N_15 
REMARK       I    between atoms: N_15  and  C_16 
REMARK       I    between atoms: C_16  and  N_18 
REMARK    7  A    between atoms: N_18  and  C_19 
REMARK    8  A    between atoms: C_30  and  O_31 
ROOT
ATOM      1  C   UNL d   1      26.586 -14.688  -1.586  0.00  0.00     0.100 A 
ATOM      2  S   UNL d   1      26.071 -15.558  -0.210  0.00  0.00    -0.044 SA
ATOM      3  C   UNL d   1      25.283 -16.742  -1.176  0.00  0.00     0.175 A 
ATOM      4  N   UNL d   1      25.391 -16.521  -2.474  0.00  0.00    -0.228 NA
ATOM      5  C   UNL d   1      26.136 -15.348  -2.719  0.00  0.00     0.056 A 
ATOM      6  C   UNL d   1      26.444 -14.931  -4.114  0.00  0.00     0.072 C 
ENDROOT
BRANCH   1   7
ATOM      7  C   UNL d   1      27.424 -13.506  -1.455  0.00  0.00     0.260 C 
ATOM      8  N   UNL d   1      27.069 -12.399  -2.219  0.00  0.00    -0.356 N 
ATOM      9  H   UNL d   1      26.188 -12.388  -2.709  0.00  0.00     0.162 HD
ATOM     10  O   UNL d   1      28.422 -13.463  -0.718  0.00  0.00    -0.267 OA
BRANCH   8  11
ATOM     11  C   UNL d   1      27.860 -11.182  -2.177  0.00  0.00     0.127 C 
BRANCH  11  12
ATOM     12  C   UNL d   1      27.055  -9.872  -2.037  0.00  0.00     0.058 C 
BRANCH  12  13
ATOM     13  C   UNL d   1      26.929  -9.374  -0.608  0.00  0.00    -0.054 A 
ATOM     14  C   UNL d   1      27.665  -9.934   0.436  0.00  0.00     0.010 A 
ATOM     15  C   UNL d   1      27.434  -9.531   1.770  0.00  0.00     0.040 A 
ATOM     16  C   UNL d   1      26.523  -8.500   2.104  0.00  0.00     0.101 A 
ATOM     17  C   UNL d   1      25.824  -7.904   1.042  0.00  0.00     0.102 A 
ATOM     18  C   UNL d   1      26.036  -8.356  -0.271  0.00  0.00     0.046 A 
BRANCH  16  19
ATOM     19  O   UNL d   1      26.663  -8.041   3.397  0.00  0.00    -0.353 OA
ATOM     20  C   UNL d   1      27.462  -6.904   3.729  0.00  0.00     0.210 C 
ENDBRANCH  16  19
BRANCH  17  21
ATOM     21  O   UNL d   1      24.943  -6.852   0.980  0.00  0.00    -0.353 OA
ATOM     22  C   UNL d   1      25.001  -6.116  -0.201  0.00  0.00     0.210 C 
ENDBRANCH  17  21
ENDBRANCH  12  13
ENDBRANCH  11  12
ENDBRANCH   8  11
ENDBRANCH   1   7
BRANCH   3  23
ATOM     23  N   UNL d   1      24.604 -17.841  -0.622  0.00  0.00    -0.287 N 
ATOM     24  C   UNL d   1      23.230 -18.021  -0.686  0.00  0.00     0.326 C 
ATOM     25  O   UNL d   1      22.468 -17.230  -1.235  0.00  0.00    -0.247 OA
ATOM     26  N   UNL d   1      22.730 -19.169  -0.060  0.00  0.00    -0.309 N 
ATOM     27  H   UNL d   1      23.297 -19.697   0.588  0.00  0.00     0.170 HD
ATOM     28  H   UNL d   1      25.201 -18.522  -0.177  0.00  0.00     0.172 HD
BRANCH  26  29
ATOM     29  C   UNL d   1      21.329 -19.486  -0.096  0.00  0.00     0.036 A 
ATOM     30  C   UNL d   1      20.581 -19.367  -1.273  0.00  0.00     0.029 A 
ATOM     31  C   UNL d   1      19.194 -19.614  -1.269  0.00  0.00     0.003 A 
ATOM     32  C   UNL d   1      18.546 -20.009  -0.098  0.00  0.00     0.007 A 
ATOM     33  C   UNL d   1      19.272 -20.126   1.085  0.00  0.00    -0.060 A 
ATOM     34  C   UNL d   1      18.593 -20.455   2.381  0.00  0.00     0.048 C 
ATOM     35  C   UNL d   1      20.655 -19.876   1.071  0.00  0.00     0.036 A 
ENDBRANCH  26  29
ENDBRANCH   3  23
TORSDOF 8
ENDMDL
MODEL 5
REMARK VINA RESULT:    -8.131      6.423      9.893
REMARK INTER + INTRA:         -11.821
REMARK INTER:                 -10.517
REMARK INTRA:                  -1.304
REMARK CONF_INDEPENDENT:        2.386
REMARK UNBOUND:                -1.304
REMARK  8 active torsions:
REMARK  status: ('A' for Active; 'I' for Inactive)
REMARK    1  A    between atoms: O_2  and  C_3 
REMARK    2  A    between atoms: C_6  and  C_7 
REMARK    3  A    between atoms: C_7  and  C_8 
REMARK    4  A    between atoms: C_8  and  N_9 
REMARK       I    between atoms: N_9  and  C_10 
REMARK    5  A    between atoms: C_10  and  C_12 
REMARK    6  A    between atoms: C_14  and  N_15 
REMARK       I    between atoms: N_15  and  C_16 
REMARK       I    between atoms: C_16  and  N_18 
REMARK    7  A    between atoms: N_18  and  C_19 
REMARK    8  A    between atoms: C_30  and  O_31 
ROOT
ATOM      1  C   UNL d   1      27.001 -16.296  -1.546  0.00  0.00     0.100 A 
ATOM      2  S   UNL d   1      25.587 -16.311  -2.504  0.00  0.00    -0.044 SA
ATOM      3  C   UNL d   1      24.614 -16.795  -1.172  0.00  0.00     0.175 A 
ATOM      4  N   UNL d   1      25.293 -16.939  -0.048  0.00  0.00    -0.228 NA
ATOM      5  C   UNL d   1      26.660 -16.655  -0.251  0.00  0.00     0.056 A 
ATOM      6  C   UNL d   1      27.613 -16.689   0.892  0.00  0.00     0.072 C 
ENDROOT
BRANCH   1   7
ATOM      7  C   UNL d   1      28.278 -15.877  -2.102  0.00  0.00     0.260 C 
ATOM      8  N   UNL d   1      29.164 -16.885  -2.464  0.00  0.00    -0.356 N 
ATOM      9  H   UNL d   1      28.856 -17.845  -2.478  0.00  0.00     0.162 HD
ATOM     10  O   UNL d   1      28.596 -14.684  -2.243  0.00  0.00    -0.267 OA
BRANCH   8  11
ATOM     11  C   UNL d   1      30.475 -16.566  -3.003  0.00  0.00     0.127 C 
BRANCH  11  12
ATOM     12  C   UNL d   1      30.675 -16.892  -4.499  0.00  0.00     0.058 C 
BRANCH  12  13
ATOM     13  C   UNL d   1      30.081 -15.858  -5.440  0.00  0.00    -0.054 A 
ATOM     14  C   UNL d   1      30.840 -15.244  -6.436  0.00  0.00     0.010 A 
ATOM     15  C   UNL d   1      30.290 -14.200  -7.213  0.00  0.00     0.040 A 
ATOM     16  C   UNL d   1      28.942 -13.787  -7.083  0.00  0.00     0.101 A 
ATOM     17  C   UNL d   1      28.168 -14.446  -6.114  0.00  0.00     0.102 A 
ATOM     18  C   UNL d   1      28.753 -15.448  -5.320  0.00  0.00     0.046 A 
BRANCH  16  19
ATOM     19  O   UNL d   1      28.510 -12.989  -8.121  0.00  0.00    -0.353 OA
ATOM     20  C   UNL d   1      27.686 -11.839  -7.918  0.00  0.00     0.210 C 
ENDBRANCH  16  19
BRANCH  17  21
ATOM     21  O   UNL d   1      26.841 -14.367  -5.770  0.00  0.00    -0.353 OA
ATOM     22  C   UNL d   1      26.515 -13.283  -4.960  0.00  0.00     0.210 C 
ENDBRANCH  17  21
ENDBRANCH  12  13
ENDBRANCH  11  12
ENDBRANCH   8  11
ENDBRANCH   1   7
BRANCH   3  23
ATOM     23  N   UNL d   1      23.228 -17.000  -1.282  0.00  0.00    -0.287 N 
ATOM     24  C   UNL d   1      22.533 -18.000  -0.617  0.00  0.00     0.326 C 
ATOM     25  O   UNL d   1      23.067 -18.809   0.137  0.00  0.00    -0.247 OA
ATOM     26  N   UNL d   1      21.157 -18.061  -0.865  0.00  0.00    -0.309 N 
ATOM     27  H   UNL d   1      20.746 -17.570  -1.647  0.00  0.00     0.170 HD
ATOM     28  H   UNL d   1      22.753 -16.341  -1.881  0.00  0.00     0.172 HD
BRANCH  26  29
ATOM     29  C   UNL d   1      20.323 -19.026  -0.202  0.00  0.00     0.036 A 
ATOM     30  C   UNL d   1      19.252 -19.644  -0.860  0.00  0.00     0.029 A 
ATOM     31  C   UNL d   1      18.404 -20.532  -0.169  0.00  0.00     0.003 A 
ATOM     32  C   UNL d   1      18.632 -20.834   1.173  0.00  0.00     0.007 A 
ATOM     33  C   UNL d   1      19.688 -20.223   1.847  0.00  0.00    -0.060 A 
ATOM     34  C   UNL d   1      19.906 -20.450   3.314  0.00  0.00     0.048 C 
ATOM     35  C   UNL d   1      20.527 -19.337   1.150  0.00  0.00     0.036 A 
ENDBRANCH  26  29
ENDBRANCH   3  23
TORSDOF 8
ENDMDL
MODEL 6
REMARK VINA RESULT:    -8.015      3.525      9.925
REMARK INTER + INTRA:         -11.600
REMARK INTER:                 -10.401
REMARK INTRA:                  -1.199
REMARK CONF_INDEPENDENT:        2.386
REMARK UNBOUND:                -1.199
REMARK  8 active torsions:
REMARK  status: ('A' for Active; 'I' for Inactive)
REMARK    1  A    between atoms: O_2  and  C_3 
REMARK    2  A    between atoms: C_6  and  C_7 
REMARK    3  A    between atoms: C_7  and  C_8 
REMARK    4  A    between atoms: C_8  and  N_9 
REMARK       I    between atoms: N_9  and  C_10 
REMARK    5  A    between atoms: C_10  and  C_12 
REMARK    6  A    between atoms: C_14  and  N_15 
REMARK       I    between atoms: N_15  and  C_16 
REMARK       I    between atoms: C_16  and  N_18 
REMARK    7  A    between atoms: N_18  and  C_19 
REMARK    8  A    between atoms: C_30  and  O_31 
ROOT
ATOM      1  C   UNL d   1      26.272 -14.231  -1.654  0.00  0.00     0.100 A 
ATOM      2  S   UNL d   1      25.902 -15.152  -0.265  0.00  0.00    -0.044 SA
ATOM      3  C   UNL d   1      25.067 -16.333  -1.194  0.00  0.00     0.175 A 
ATOM      4  N   UNL d   1      25.056 -16.074  -2.490  0.00  0.00    -0.228 NA
ATOM      5  C   UNL d   1      25.745 -14.874  -2.763  0.00  0.00     0.056 A 
ATOM      6  C   UNL d   1      25.920 -14.411  -4.167  0.00  0.00     0.072 C 
ENDROOT
BRANCH   1   7
ATOM      7  C   UNL d   1      27.086 -13.029  -1.561  0.00  0.00     0.260 C 
ATOM      8  N   UNL d   1      26.972 -12.285  -0.392  0.00  0.00    -0.356 N 
ATOM      9  H   UNL d   1      26.466 -12.660   0.396  0.00  0.00     0.162 HD
ATOM     10  O   UNL d   1      27.843 -12.651  -2.470  0.00  0.00    -0.267 OA
BRANCH   8  11
ATOM     11  C   UNL d   1      27.722 -11.054  -0.216  0.00  0.00     0.127 C 
BRANCH  11  12
ATOM     12  C   UNL d   1      28.806 -11.089   0.884  0.00  0.00     0.058 C 
BRANCH  12  13
ATOM     13  C   UNL d   1      28.441 -11.946   2.083  0.00  0.00    -0.054 A 
ATOM     14  C   UNL d   1      28.296 -13.330   1.985  0.00  0.00     0.010 A 
ATOM     15  C   UNL d   1      27.837 -14.081   3.090  0.00  0.00     0.040 A 
ATOM     16  C   UNL d   1      27.585 -13.494   4.354  0.00  0.00     0.101 A 
ATOM     17  C   UNL d   1      27.784 -12.108   4.460  0.00  0.00     0.102 A 
ATOM     18  C   UNL d   1      28.195 -11.376   3.333  0.00  0.00     0.046 A 
BRANCH  16  19
ATOM     19  O   UNL d   1      27.450 -14.415   5.371  0.00  0.00    -0.353 OA
ATOM     20  C   UNL d   1      28.544 -15.202   5.849  0.00  0.00     0.210 C 
ENDBRANCH  16  19
BRANCH  17  21
ATOM     21  O   UNL d   1      27.717 -11.234   5.518  0.00  0.00    -0.353 OA
ATOM     22  C   UNL d   1      28.313 -11.694   6.689  0.00  0.00     0.210 C 
ENDBRANCH  17  21
ENDBRANCH  12  13
ENDBRANCH  11  12
ENDBRANCH   8  11
ENDBRANCH   1   7
BRANCH   3  23
ATOM     23  N   UNL d   1      24.468 -17.466  -0.616  0.00  0.00    -0.287 N 
ATOM     24  C   UNL d   1      23.112 -17.752  -0.687  0.00  0.00     0.326 C 
ATOM     25  O   UNL d   1      22.298 -17.036  -1.263  0.00  0.00    -0.247 OA
ATOM     26  N   UNL d   1      22.696 -18.919  -0.034  0.00  0.00    -0.309 N 
ATOM     27  H   UNL d   1      23.295 -19.385   0.633  0.00  0.00     0.170 HD
ATOM     28  H   UNL d   1      25.111 -18.087  -0.149  0.00  0.00     0.172 HD
BRANCH  26  29
ATOM     29  C   UNL d   1      21.323 -19.343  -0.073  0.00  0.00     0.036 A 
ATOM     30  C   UNL d   1      20.591 -19.349  -1.267  0.00  0.00     0.029 A 
ATOM     31  C   UNL d   1      19.227 -19.699  -1.268  0.00  0.00     0.003 A 
ATOM     32  C   UNL d   1      18.588 -20.075  -0.087  0.00  0.00     0.007 A 
ATOM     33  C   UNL d   1      19.297 -20.069   1.112  0.00  0.00    -0.060 A 
ATOM     34  C   UNL d   1      18.619 -20.374   2.415  0.00  0.00     0.048 C 
ATOM     35  C   UNL d   1      20.657 -19.715   1.104  0.00  0.00     0.036 A 
ENDBRANCH  26  29
ENDBRANCH   3  23
TORSDOF 8
ENDMDL
MODEL 7
REMARK VINA RESULT:    -7.973      1.948      2.441
REMARK INTER + INTRA:         -11.652
REMARK INTER:                 -10.359
REMARK INTRA:                  -1.292
REMARK CONF_INDEPENDENT:        2.386
REMARK UNBOUND:                -1.292
REMARK  8 active torsions:
REMARK  status: ('A' for Active; 'I' for Inactive)
REMARK    1  A    between atoms: O_2  and  C_3 
REMARK    2  A    between atoms: C_6  and  C_7 
REMARK    3  A    between atoms: C_7  and  C_8 
REMARK    4  A    between atoms: C_8  and  N_9 
REMARK       I    between atoms: N_9  and  C_10 
REMARK    5  A    between atoms: C_10  and  C_12 
REMARK    6  A    between atoms: C_14  and  N_15 
REMARK       I    between atoms: N_15  and  C_16 
REMARK       I    between atoms: C_16  and  N_18 
REMARK    7  A    between atoms: N_18  and  C_19 
REMARK    8  A    between atoms: C_30  and  O_31 
ROOT
ATOM      1  C   UNL d   1      28.946 -14.070   2.673  0.00  0.00     0.100 A 
ATOM      2  S   UNL d   1      29.886 -14.792   3.903  0.00  0.00    -0.044 SA
ATOM      3  C   UNL d   1      28.695 -14.455   5.096  0.00  0.00     0.175 A 
ATOM      4  N   UNL d   1      27.629 -13.836   4.619  0.00  0.00    -0.228 NA
ATOM      5  C   UNL d   1      27.763 -13.612   3.232  0.00  0.00     0.056 A 
ATOM      6  C   UNL d   1      26.655 -12.984   2.462  0.00  0.00     0.072 C 
ENDROOT
BRANCH   1   7
ATOM      7  C   UNL d   1      29.393 -14.075   1.289  0.00  0.00     0.260 C 
ATOM      8  N   UNL d   1      29.695 -15.313   0.732  0.00  0.00    -0.356 N 
ATOM      9  H   UNL d   1      29.459 -16.158   1.229  0.00  0.00     0.162 HD
ATOM     10  O   UNL d   1      29.525 -13.039   0.617  0.00  0.00    -0.267 OA
BRANCH   8  11
ATOM     11  C   UNL d   1      30.176 -15.418  -0.634  0.00  0.00     0.127 C 
BRANCH  11  12
ATOM     12  C   UNL d   1      29.437 -16.444  -1.521  0.00  0.00     0.058 C 
BRANCH  12  13
ATOM     13  C   UNL d   1      27.932 -16.465  -1.318  0.00  0.00    -0.054 A 
ATOM     14  C   UNL d   1      27.344 -17.093  -0.221  0.00  0.00     0.010 A 
ATOM     15  C   UNL d   1      25.938 -17.200  -0.127  0.00  0.00     0.040 A 
ATOM     16  C   UNL d   1      25.068 -16.613  -1.078  0.00  0.00     0.101 A 
ATOM     17  C   UNL d   1      25.667 -15.936  -2.152  0.00  0.00     0.102 A 
ATOM     18  C   UNL d   1      27.068 -15.886  -2.248  0.00  0.00     0.046 A 
BRANCH  16  19
ATOM     19  O   UNL d   1      23.756 -16.554  -0.658  0.00  0.00    -0.353 OA
ATOM     20  C   UNL d   1      22.951 -17.720  -0.473  0.00  0.00     0.210 C 
ENDBRANCH  16  19
BRANCH  17  21
ATOM     21  O   UNL d   1      25.155 -15.200  -3.192  0.00  0.00    -0.353 OA
ATOM     22  C   UNL d   1      26.111 -14.662  -4.049  0.00  0.00     0.210 C 
ENDBRANCH  17  21
ENDBRANCH  12  13
ENDBRANCH  11  12
ENDBRANCH   8  11
ENDBRANCH   1   7
BRANCH   3  23
ATOM     23  N   UNL d   1      28.850 -14.821   6.445  0.00  0.00    -0.287 N 
ATOM     24  C   UNL d   1      28.899 -13.918   7.497  0.00  0.00     0.326 C 
ATOM     25  O   UNL d   1      28.815 -12.702   7.350  0.00  0.00    -0.247 OA
ATOM     26  N   UNL d   1      29.077 -14.468   8.772  0.00  0.00    -0.309 N 
ATOM     27  H   UNL d   1      29.382 -15.425   8.888  0.00  0.00     0.170 HD
ATOM     28  H   UNL d   1      28.905 -15.816   6.605  0.00  0.00     0.172 HD
BRANCH  26  29
ATOM     29  C   UNL d   1      29.101 -13.638   9.944  0.00  0.00     0.036 A 
ATOM     30  C   UNL d   1      28.156 -13.786  10.967  0.00  0.00     0.029 A 
ATOM     31  C   UNL d   1      28.155 -12.915  12.073  0.00  0.00     0.003 A 
ATOM     32  C   UNL d   1      29.112 -11.905  12.184  0.00  0.00     0.007 A 
ATOM     33  C   UNL d   1      30.056 -11.737  11.173  0.00  0.00    -0.060 A 
ATOM     34  C   UNL d   1      31.039 -10.605  11.212  0.00  0.00     0.048 C 
ATOM     35  C   UNL d   1      30.048 -12.611  10.073  0.00  0.00     0.036 A 
ENDBRANCH  26  29
ENDBRANCH   3  23
TORSDOF 8
ENDMDL
MODEL 8
REMARK VINA RESULT:    -7.863      3.596      6.643
REMARK INTER + INTRA:         -11.673
REMARK INTER:                 -10.249
REMARK INTRA:                  -1.424
REMARK CONF_INDEPENDENT:        2.386
REMARK UNBOUND:                -1.424
REMARK  8 active torsions:
REMARK  status: ('A' for Active; 'I' for Inactive)
REMARK    1  A    between atoms: O_2  and  C_3 
REMARK    2  A    between atoms: C_6  and  C_7 
REMARK    3  A    between atoms: C_7  and  C_8 
REMARK    4  A    between atoms: C_8  and  N_9 
REMARK       I    between atoms: N_9  and  C_10 
REMARK    5  A    between atoms: C_10  and  C_12 
REMARK    6  A    between atoms: C_14  and  N_15 
REMARK       I    between atoms: N_15  and  C_16 
REMARK       I    between atoms: C_16  and  N_18 
REMARK    7  A    between atoms: N_18  and  C_19 
REMARK    8  A    between atoms: C_30  and  O_31 
ROOT
ATOM      1  C   UNL d   1      26.369 -15.413  -2.130  0.00  0.00     0.100 A 
ATOM      2  S   UNL d   1      27.699 -14.795  -1.256  0.00  0.00    -0.044 SA
ATOM      3  C   UNL d   1      27.239 -15.645   0.166  0.00  0.00     0.175 A 
ATOM      4  N   UNL d   1      26.144 -16.371   0.016  0.00  0.00    -0.228 NA
ATOM      5  C   UNL d   1      25.640 -16.245  -1.295  0.00  0.00     0.056 A 
ATOM      6  C   UNL d   1      24.444 -17.024  -1.718  0.00  0.00     0.072 C 
ENDROOT
BRANCH   1   7
ATOM      7  C   UNL d   1      26.191 -15.102  -3.540  0.00  0.00     0.260 C 
ATOM      8  N   UNL d   1      27.327 -15.147  -4.340  0.00  0.00    -0.356 N 
ATOM      9  H   UNL d   1      28.186 -15.527  -3.972  0.00  0.00     0.162 HD
ATOM     10  O   UNL d   1      25.093 -14.793  -4.032  0.00  0.00    -0.267 OA
BRANCH   8  11
ATOM     11  C   UNL d   1      27.256 -14.825  -5.754  0.00  0.00     0.127 C 
BRANCH  11  12
ATOM     12  C   UNL d   1      27.852 -13.458  -6.155  0.00  0.00     0.058 C 
BRANCH  12  13
ATOM     13  C   UNL d   1      27.057 -12.267  -5.651  0.00  0.00    -0.054 A 
ATOM     14  C   UNL d   1      26.451 -11.362  -6.523  0.00  0.00     0.010 A 
ATOM     15  C   UNL d   1      25.823 -10.199  -6.024  0.00  0.00     0.040 A 
ATOM     16  C   UNL d   1      25.704  -9.937  -4.637  0.00  0.00     0.101 A 
ATOM     17  C   UNL d   1      26.270 -10.879  -3.763  0.00  0.00     0.102 A 
ATOM     18  C   UNL d   1      26.931 -12.004  -4.287  0.00  0.00     0.046 A 
BRANCH  16  19
ATOM     19  O   UNL d   1      24.804  -8.935  -4.343  0.00  0.00    -0.353 OA
ATOM     20  C   UNL d   1      24.029  -8.275  -5.347  0.00  0.00     0.210 C 
ENDBRANCH  16  19
BRANCH  17  21
ATOM     21  O   UNL d   1      26.280 -10.994  -2.395  0.00  0.00    -0.353 OA
ATOM     22  C   UNL d   1      27.541 -11.186  -1.838  0.00  0.00     0.210 C 
ENDBRANCH  17  21
ENDBRANCH  12  13
ENDBRANCH  11  12
ENDBRANCH   8  11
ENDBRANCH   1   7
BRANCH   3  23
ATOM     23  N   UNL d   1      27.974 -15.574   1.362  0.00  0.00    -0.287 N 
ATOM     24  C   UNL d   1      27.780 -14.610   2.341  0.00  0.00     0.326 C 
ATOM     25  O   UNL d   1      26.941 -13.717   2.255  0.00  0.00    -0.247 OA
ATOM     26  N   UNL d   1      28.621 -14.689   3.457  0.00  0.00    -0.309 N 
ATOM     27  H   UNL d   1      29.457 -15.256   3.440  0.00  0.00     0.170 HD
ATOM     28  H   UNL d   1      28.661 -16.305   1.475  0.00  0.00     0.172 HD
BRANCH  26  29
ATOM     29  C   UNL d   1      28.488 -13.772   4.556  0.00  0.00     0.036 A 
ATOM     30  C   UNL d   1      28.216 -12.414   4.348  0.00  0.00     0.029 A 
ATOM     31  C   UNL d   1      28.161 -11.521   5.435  0.00  0.00     0.003 A 
ATOM     32  C   UNL d   1      28.348 -11.976   6.740  0.00  0.00     0.007 A 
ATOM     33  C   UNL d   1      28.627 -13.322   6.966  0.00  0.00    -0.060 A 
ATOM     34  C   UNL d   1      28.928 -13.830   8.345  0.00  0.00     0.048 C 
ATOM     35  C   UNL d   1      28.682 -14.206   5.875  0.00  0.00     0.036 A 
ENDBRANCH  26  29
ENDBRANCH   3  23
TORSDOF 8
ENDMDL
MODEL 9
REMARK VINA RESULT:    -7.849      6.477     10.171
REMARK INTER + INTRA:         -11.827
REMARK INTER:                 -10.236
REMARK INTRA:                  -1.591
REMARK CONF_INDEPENDENT:        2.386
REMARK UNBOUND:                -1.591
REMARK  8 active torsions:
REMARK  status: ('A' for Active; 'I' for Inactive)
REMARK    1  A    between atoms: O_2  and  C_3 
REMARK    2  A    between atoms: C_6  and  C_7 
REMARK    3  A    between atoms: C_7  and  C_8 
REMARK    4  A    between atoms: C_8  and  N_9 
REMARK       I    between atoms: N_9  and  C_10 
REMARK    5  A    between atoms: C_10  and  C_12 
REMARK    6  A    between atoms: C_14  and  N_15 
REMARK       I    between atoms: N_15  and  C_16 
REMARK       I    between atoms: C_16  and  N_18 
REMARK    7  A    between atoms: N_18  and  C_19 
REMARK    8  A    between atoms: C_30  and  O_31 
ROOT
ATOM      1  C   UNL d   1      26.120 -13.898  -2.212  0.00  0.00     0.100 A 
ATOM      2  S   UNL d   1      25.270 -15.097  -3.081  0.00  0.00    -0.044 SA
ATOM      3  C   UNL d   1      25.155 -16.108  -1.695  0.00  0.00     0.175 A 
ATOM      4  N   UNL d   1      25.716 -15.590  -0.616  0.00  0.00    -0.228 NA
ATOM      5  C   UNL d   1      26.270 -14.325  -0.902  0.00  0.00     0.056 A 
ATOM      6  C   UNL d   1      26.900 -13.519   0.179  0.00  0.00     0.072 C 
ENDROOT
BRANCH   1   7
ATOM      7  C   UNL d   1      26.497 -12.643  -2.843  0.00  0.00     0.260 C 
ATOM      8  N   UNL d   1      25.521 -12.003  -3.599  0.00  0.00    -0.356 N 
ATOM      9  H   UNL d   1      24.567 -12.330  -3.569  0.00  0.00     0.162 HD
ATOM     10  O   UNL d   1      27.633 -12.149  -2.743  0.00  0.00    -0.267 OA
BRANCH   8  11
ATOM     11  C   UNL d   1      25.810 -10.759  -4.290  0.00  0.00     0.127 C 
BRANCH  11  12
ATOM     12  C   UNL d   1      26.040 -10.884  -5.811  0.00  0.00     0.058 C 
BRANCH  12  13
ATOM     13  C   UNL d   1      27.148 -11.851  -6.191  0.00  0.00    -0.054 A 
ATOM     14  C   UNL d   1      28.244 -11.453  -6.956  0.00  0.00     0.010 A 
ATOM     15  C   UNL d   1      29.193 -12.404  -7.394  0.00  0.00     0.040 A 
ATOM     16  C   UNL d   1      29.129 -13.768  -7.018  0.00  0.00     0.101 A 
ATOM     17  C   UNL d   1      28.051 -14.151  -6.204  0.00  0.00     0.102 A 
ATOM     18  C   UNL d   1      27.094 -13.195  -5.822  0.00  0.00     0.046 A 
BRANCH  16  19
ATOM     19  O   UNL d   1      30.290 -14.464  -7.277  0.00  0.00    -0.353 OA
ATOM     20  C   UNL d   1      31.587 -13.929  -7.003  0.00  0.00     0.210 C 
ENDBRANCH  16  19
BRANCH  17  21
ATOM     21  O   UNL d   1      27.716 -15.336  -5.597  0.00  0.00    -0.353 OA
ATOM     22  C   UNL d   1      28.607 -15.757  -4.614  0.00  0.00     0.210 C 
ENDBRANCH  17  21
ENDBRANCH  12  13
ENDBRANCH  11  12
ENDBRANCH   8  11
ENDBRANCH   1   7
BRANCH   3  23
ATOM     23  N   UNL d   1      24.512 -17.358  -1.720  0.00  0.00    -0.287 N 
ATOM     24  C   UNL d   1      23.268 -17.606  -1.158  0.00  0.00     0.326 C 
ATOM     25  O   UNL d   1      22.605 -16.751  -0.577  0.00  0.00    -0.247 OA
ATOM     26  N   UNL d   1      22.795 -18.919  -1.266  0.00  0.00    -0.309 N 
ATOM     27  H   UNL d   1      23.414 -19.676  -1.522  0.00  0.00     0.170 HD
ATOM     28  H   UNL d   1      25.021 -18.081  -2.206  0.00  0.00     0.172 HD
BRANCH  26  29
ATOM     29  C   UNL d   1      21.502 -19.288  -0.760  0.00  0.00     0.036 A 
ATOM     30  C   UNL d   1      20.374 -19.328  -1.590  0.00  0.00     0.029 A 
ATOM     31  C   UNL d   1      19.104 -19.622  -1.058  0.00  0.00     0.003 A 
ATOM     32  C   UNL d   1      18.949 -19.907   0.298  0.00  0.00     0.007 A 
ATOM     33  C   UNL d   1      20.057 -19.865   1.142  0.00  0.00    -0.060 A 
ATOM     34  C   UNL d   1      19.914 -20.072   2.620  0.00  0.00     0.048 C 
ATOM     35  C   UNL d   1      21.321 -19.569   0.603  0.00  0.00     0.036 A 
ENDBRANCH  26  29
ENDBRANCH   3  23
TORSDOF 8
ENDMDL
