MODEL 1
REMARK VINA RESULT:   -31.258      0.000      0.000
REMARK INTER + INTRA:         -33.531
REMARK INTER:                 -32.750
REMARK INTRA:                  -0.781
REMARK CONF_INDEPENDENT:        1.492
REMARK UNBOUND:                -0.781
REMARK  5 active torsions:
REMARK  status: ('A' for Active; 'I' for Inactive)
REMARK    1  A    between atoms: O_1  and  C_2 
REMARK    2  A    between atoms: C_2  and  C_3 
REMARK    3  A    between atoms: N_5  and  C_6 
REMARK    4  A    between atoms: C_6  and  C_7 
REMARK    5  A    between atoms: N_10  and  C_11 
ROOT
ATOM      1  C   UNL d   1      28.288 -15.986  -1.385  0.00  0.00     0.008 C 
ATOM      2  C   UNL d   1      27.357 -15.911  -2.633  0.00  0.00     0.026 C 
ATOM      3  C   UNL d   1      25.683 -15.582  -2.451  0.00  0.00     0.120 C 
ATOM      4  N   UNL d   1      24.693 -16.412  -1.159  0.00  0.00    -0.377 N 
ATOM      5  C   UNL d   1      25.979 -16.743   0.062  0.00  0.00     0.120 C 
ATOM      6  C   UNL d   1      27.563 -16.952  -0.391  0.00  0.00     0.026 C 
ENDROOT
BRANCH   1   7
ATOM      7  C   UNL d   1      28.828 -14.541  -0.872  0.00  0.00     0.150 C 
BRANCH   7   8
ATOM      8  N   UNL d   1      28.205 -14.050   0.348  0.00  0.00    -0.283 N 
ATOM      9  C   UNL d   1      28.687 -14.279   1.553  0.00  0.00     0.139 A 
ATOM     10  C   UNL d   1      27.880 -13.930   2.551  0.00  0.00     0.103 A 
ATOM     11  N   UNL d   1      26.828 -13.341   1.898  0.00  0.00    -0.160 NA
ATOM     12  N   UNL d   1      27.027 -13.435   0.544  0.00  0.00     0.004 NA
BRANCH  10  13
ATOM     13  C   UNL d   1      28.243 -14.244   3.988  0.00  0.00     0.104 C 
ATOM     14  C   UNL d   1      27.726 -13.278   5.090  0.00  0.00     0.044 C 
ATOM     15  C   UNL d   1      28.642 -13.535   6.288  0.00  0.00     0.004 C 
ATOM     16  C   UNL d   1      29.920 -14.133   5.705  0.00  0.00     0.004 C 
ATOM     17  C   UNL d   1      29.731 -14.175   4.196  0.00  0.00     0.044 C 
BRANCH  13  18
ATOM     18  O   UNL d   1      27.809 -15.577   4.371  0.00  0.00    -0.383 OA
ATOM     19  H   UNL d   1      28.570 -16.193   4.304  0.00  0.00     0.211 HD
ENDBRANCH  13  18
ENDBRANCH  10  13
ENDBRANCH   7   8
ENDBRANCH   1   7
BRANCH   4  20
ATOM     20  C   UNL d   1      22.996 -16.947  -1.010  0.00  0.00     0.222 C 
ATOM     21  N   UNL d   1      23.641 -17.939  -0.426  0.00  0.00    -0.256 NA
ATOM     22  C   UNL d   1      23.341 -18.976  -1.079  0.00  0.00     0.275 C 
ATOM     23  N   UNL d   1      22.833 -19.785  -0.213  0.00  0.00    -0.239 NA
ATOM     24  C   UNL d   1      21.659 -19.227   0.045  0.00  0.00     0.155 C 
ATOM     25  N   UNL d   1      20.631 -20.093   0.403  0.00  0.00    -0.334 N 
ATOM     26  C   UNL d   1      21.421 -17.938  -0.520  0.00  0.00     0.136 C 
ATOM     27  C   UNL d   1      19.532 -19.783  -0.356  0.00  0.00     0.209 C 
ATOM     28  H   UNL d   1      20.776 -20.972   0.904  0.00  0.00     0.168 HD
ATOM     29  N   UNL d   1      19.898 -18.576  -1.010  0.00  0.00    -0.240 NA
ENDBRANCH   4  20
TORSDOF 5
ENDMDL
MODEL 2
REMARK VINA RESULT:   -30.985      4.413      6.941
REMARK INTER + INTRA:         -33.536
REMARK INTER:                 -32.477
REMARK INTRA:                  -1.059
REMARK CONF_INDEPENDENT:        1.492
REMARK UNBOUND:                -1.059
REMARK  5 active torsions:
REMARK  status: ('A' for Active; 'I' for Inactive)
REMARK    1  A    between atoms: O_1  and  C_2 
REMARK    2  A    between atoms: C_2  and  C_3 
REMARK    3  A    between atoms: N_5  and  C_6 
REMARK    4  A    between atoms: C_6  and  C_7 
REMARK    5  A    between atoms: N_10  and  C_11 
ROOT
ATOM      1  C   UNL d   1      27.655 -14.365  -1.873  0.00  0.00     0.008 C 
ATOM      2  C   UNL d   1      27.362 -15.185  -0.580  0.00  0.00     0.026 C 
ATOM      3  C   UNL d   1      26.196 -16.446  -0.596  0.00  0.00     0.120 C 
ATOM      4  N   UNL d   1      24.574 -16.220  -1.404  0.00  0.00    -0.377 N 
ATOM      5  C   UNL d   1      25.008 -14.987  -2.648  0.00  0.00     0.120 C 
ATOM      6  C   UNL d   1      26.253 -13.917  -2.400  0.00  0.00     0.026 C 
ENDROOT
BRANCH   1   7
ATOM      7  C   UNL d   1      28.720 -15.071  -2.879  0.00  0.00     0.150 C 
BRANCH   7   8
ATOM      8  N   UNL d   1      28.386 -14.975  -4.292  0.00  0.00    -0.283 N 
ATOM      9  C   UNL d   1      28.872 -14.047  -5.092  0.00  0.00     0.139 A 
ATOM     10  C   UNL d   1      28.302 -13.992  -6.291  0.00  0.00     0.103 A 
ATOM     11  N   UNL d   1      27.435 -15.054  -6.264  0.00  0.00    -0.160 NA
ATOM     12  N   UNL d   1      27.480 -15.642  -5.025  0.00  0.00     0.004 NA
BRANCH  10  13
ATOM     13  C   UNL d   1      28.668 -12.900  -7.275  0.00  0.00     0.104 C 
ATOM     14  C   UNL d   1      30.083 -12.269  -7.158  0.00  0.00     0.044 C 
ATOM     15  C   UNL d   1      29.966 -10.924  -7.880  0.00  0.00     0.004 C 
ATOM     16  C   UNL d   1      28.480 -10.577  -7.858  0.00  0.00     0.004 C 
ATOM     17  C   UNL d   1      27.782 -11.698  -7.101  0.00  0.00     0.044 C 
BRANCH  13  18
ATOM     18  O   UNL d   1      28.530 -13.350  -8.651  0.00  0.00    -0.383 OA
ATOM     19  H   UNL d   1      28.181 -14.267  -8.653  0.00  0.00     0.211 HD
ENDBRANCH  13  18
ENDBRANCH  10  13
ENDBRANCH   7   8
ENDBRANCH   1   7
BRANCH   4  20
ATOM     20  C   UNL d   1      22.921 -16.832  -1.122  0.00  0.00     0.222 C 
ATOM     21  N   UNL d   1      23.655 -17.808  -0.623  0.00  0.00    -0.256 NA
ATOM     22  C   UNL d   1      23.343 -18.842  -1.274  0.00  0.00     0.275 C 
ATOM     23  N   UNL d   1      22.947 -19.692  -0.389  0.00  0.00    -0.239 NA
ATOM     24  C   UNL d   1      21.778 -19.192  -0.015  0.00  0.00     0.155 C 
ATOM     25  N   UNL d   1      20.822 -20.110   0.408  0.00  0.00    -0.334 N 
ATOM     26  C   UNL d   1      21.437 -17.902  -0.523  0.00  0.00     0.136 C 
ATOM     27  C   UNL d   1      19.649 -19.831  -0.244  0.00  0.00     0.209 C 
ATOM     28  H   UNL d   1      21.048 -20.993   0.871  0.00  0.00     0.168 HD
ATOM     29  N   UNL d   1      19.905 -18.595  -0.895  0.00  0.00    -0.240 NA
ENDBRANCH   4  20
TORSDOF 5
ENDMDL
MODEL 3
REMARK VINA RESULT:   -30.853      3.937      6.159
REMARK INTER + INTRA:         -33.039
REMARK INTER:                 -32.345
REMARK INTRA:                  -0.694
REMARK CONF_INDEPENDENT:        1.492
REMARK UNBOUND:                -0.694
REMARK  5 active torsions:
REMARK  status: ('A' for Active; 'I' for Inactive)
REMARK    1  A    between atoms: O_1  and  C_2 
REMARK    2  A    between atoms: C_2  and  C_3 
REMARK    3  A    between atoms: N_5  and  C_6 
REMARK    4  A    between atoms: C_6  and  C_7 
REMARK    5  A    between atoms: N_10  and  C_11 
ROOT
ATOM      1  C   UNL d   1      28.073 -15.210  -1.434  0.00  0.00     0.008 C 
ATOM      2  C   UNL d   1      27.733 -16.452  -0.556  0.00  0.00     0.026 C 
ATOM      3  C   UNL d   1      26.370 -17.429  -0.921  0.00  0.00     0.120 C 
ATOM      4  N   UNL d   1      24.759 -16.680  -1.345  0.00  0.00    -0.377 N 
ATOM      5  C   UNL d   1      25.311 -15.106  -2.031  0.00  0.00     0.120 C 
ATOM      6  C   UNL d   1      26.736 -14.407  -1.543  0.00  0.00     0.026 C 
ENDROOT
BRANCH   1   7
ATOM      7  C   UNL d   1      28.928 -15.559  -2.772  0.00  0.00     0.150 C 
BRANCH   7   8
ATOM      8  N   UNL d   1      28.374 -15.032  -4.010  0.00  0.00    -0.283 N 
ATOM      9  C   UNL d   1      27.940 -13.795  -4.143  0.00  0.00     0.139 A 
ATOM     10  C   UNL d   1      27.284 -13.554  -5.274  0.00  0.00     0.103 A 
ATOM     11  N   UNL d   1      27.403 -14.740  -5.952  0.00  0.00    -0.160 NA
ATOM     12  N   UNL d   1      28.059 -15.649  -5.160  0.00  0.00     0.004 NA
BRANCH  10  13
ATOM     13  C   UNL d   1      26.619 -12.214  -5.516  0.00  0.00     0.104 C 
ATOM     14  C   UNL d   1      26.985 -11.452  -6.820  0.00  0.00     0.044 C 
ATOM     15  C   UNL d   1      26.600  -9.998  -6.537  0.00  0.00     0.004 C 
ATOM     16  C   UNL d   1      26.599  -9.864  -5.017  0.00  0.00     0.004 C 
ATOM     17  C   UNL d   1      27.013 -11.219  -4.460  0.00  0.00     0.044 C 
BRANCH  13  18
ATOM     18  O   UNL d   1      25.170 -12.324  -5.496  0.00  0.00    -0.383 OA
ATOM     19  H   UNL d   1      24.781 -11.423  -5.510  0.00  0.00     0.211 HD
ENDBRANCH  13  18
ENDBRANCH  10  13
ENDBRANCH   7   8
ENDBRANCH   1   7
BRANCH   4  20
ATOM     20  C   UNL d   1      23.048 -17.137  -1.114  0.00  0.00     0.222 C 
ATOM     21  N   UNL d   1      23.673 -18.119  -0.491  0.00  0.00    -0.256 NA
ATOM     22  C   UNL d   1      23.314 -19.179  -1.072  0.00  0.00     0.275 C 
ATOM     23  N   UNL d   1      22.803 -19.915  -0.145  0.00  0.00    -0.239 NA
ATOM     24  C   UNL d   1      21.659 -19.297   0.114  0.00  0.00     0.155 C 
ATOM     25  N   UNL d   1      20.611 -20.099   0.552  0.00  0.00    -0.334 N 
ATOM     26  C   UNL d   1      21.453 -18.034  -0.520  0.00  0.00     0.136 C 
ATOM     27  C   UNL d   1      19.502 -19.790  -0.191  0.00  0.00     0.209 C 
ATOM     28  H   UNL d   1      20.739 -20.953   1.100  0.00  0.00     0.168 HD
ATOM     29  N   UNL d   1      19.892 -18.639  -0.926  0.00  0.00    -0.240 NA
ENDBRANCH   4  20
TORSDOF 5
ENDMDL
MODEL 4
REMARK VINA RESULT:   -30.847      4.453      6.914
REMARK INTER + INTRA:         -33.344
REMARK INTER:                 -32.338
REMARK INTRA:                  -1.006
REMARK CONF_INDEPENDENT:        1.492
REMARK UNBOUND:                -1.006
REMARK  5 active torsions:
REMARK  status: ('A' for Active; 'I' for Inactive)
REMARK    1  A    between atoms: O_1  and  C_2 
REMARK    2  A    between atoms: C_2  and  C_3 
REMARK    3  A    between atoms: N_5  and  C_6 
REMARK    4  A    between atoms: C_6  and  C_7 
REMARK    5  A    between atoms: N_10  and  C_11 
ROOT
ATOM      1  C   UNL d   1      27.735 -14.515  -1.926  0.00  0.00     0.008 C 
ATOM      2  C   UNL d   1      27.366 -15.151  -0.551  0.00  0.00     0.026 C 
ATOM      3  C   UNL d   1      26.199 -16.407  -0.458  0.00  0.00     0.120 C 
ATOM      4  N   UNL d   1      24.626 -16.304  -1.381  0.00  0.00    -0.377 N 
ATOM      5  C   UNL d   1      25.134 -15.252  -2.756  0.00  0.00     0.120 C 
ATOM      6  C   UNL d   1      26.366 -14.152  -2.589  0.00  0.00     0.026 C 
ENDROOT
BRANCH   1   7
ATOM      7  C   UNL d   1      28.852 -15.349  -2.762  0.00  0.00     0.150 C 
BRANCH   7   8
ATOM      8  N   UNL d   1      28.738 -15.248  -4.209  0.00  0.00    -0.283 N 
ATOM      9  C   UNL d   1      29.590 -14.578  -4.960  0.00  0.00     0.139 A 
ATOM     10  C   UNL d   1      29.215 -14.426  -6.227  0.00  0.00     0.103 A 
ATOM     11  N   UNL d   1      28.055 -15.154  -6.289  0.00  0.00    -0.160 NA
ATOM     12  N   UNL d   1      27.759 -15.640  -5.040  0.00  0.00     0.004 NA
BRANCH  10  13
ATOM     13  C   UNL d   1      30.030 -13.575  -7.180  0.00  0.00     0.104 C 
ATOM     14  C   UNL d   1      31.438 -14.093  -7.585  0.00  0.00     0.044 C 
ATOM     15  C   UNL d   1      32.176 -12.849  -8.086  0.00  0.00     0.004 C 
ATOM     16  C   UNL d   1      31.461 -11.664  -7.443  0.00  0.00     0.004 C 
ATOM     17  C   UNL d   1      30.358 -12.243  -6.567  0.00  0.00     0.044 C 
BRANCH  13  18
ATOM     18  O   UNL d   1      29.312 -13.322  -8.419  0.00  0.00    -0.383 OA
ATOM     19  H   UNL d   1      28.692 -14.064  -8.586  0.00  0.00     0.211 HD
ENDBRANCH  13  18
ENDBRANCH  10  13
ENDBRANCH   7   8
ENDBRANCH   1   7
BRANCH   4  20
ATOM     20  C   UNL d   1      22.958 -16.878  -1.111  0.00  0.00     0.222 C 
ATOM     21  N   UNL d   1      23.667 -17.867  -0.600  0.00  0.00    -0.256 NA
ATOM     22  C   UNL d   1      23.338 -18.898  -1.249  0.00  0.00     0.275 C 
ATOM     23  N   UNL d   1      22.916 -19.734  -0.363  0.00  0.00    -0.239 NA
ATOM     24  C   UNL d   1      21.754 -19.207  -0.002  0.00  0.00     0.155 C 
ATOM     25  N   UNL d   1      20.776 -20.103   0.416  0.00  0.00    -0.334 N 
ATOM     26  C   UNL d   1      21.447 -17.913  -0.520  0.00  0.00     0.136 C 
ATOM     27  C   UNL d   1      19.615 -19.802  -0.248  0.00  0.00     0.209 C 
ATOM     28  H   UNL d   1      20.978 -20.988   0.885  0.00  0.00     0.168 HD
ATOM     29  N   UNL d   1      19.903 -18.576  -0.903  0.00  0.00    -0.240 NA
ENDBRANCH   4  20
TORSDOF 5
ENDMDL
MODEL 5
REMARK VINA RESULT:   -30.421      4.589      6.243
REMARK INTER + INTRA:         -32.642
REMARK INTER:                 -31.913
REMARK INTRA:                  -0.729
REMARK CONF_INDEPENDENT:        1.492
REMARK UNBOUND:                -0.729
REMARK  5 active torsions:
REMARK  status: ('A' for Active; 'I' for Inactive)
REMARK    1  A    between atoms: O_1  and  C_2 
REMARK    2  A    between atoms: C_2  and  C_3 
REMARK    3  A    between atoms: N_5  and  C_6 
REMARK    4  A    between atoms: C_6  and  C_7 
REMARK    5  A    between atoms: N_10  and  C_11 
ROOT
ATOM      1  C   UNL d   1      25.875 -15.563  -2.107  0.00  0.00     0.008 C 
ATOM      2  C   UNL d   1      26.300 -16.608  -1.031  0.00  0.00     0.026 C 
ATOM      3  C   UNL d   1      25.312 -17.974  -0.706  0.00  0.00     0.120 C 
ATOM      4  N   UNL d   1      23.501 -17.809  -0.531  0.00  0.00    -0.377 N 
ATOM      5  C   UNL d   1      23.215 -16.352  -1.556  0.00  0.00     0.120 C 
ATOM      6  C   UNL d   1      24.393 -15.200  -1.762  0.00  0.00     0.026 C 
ENDROOT
BRANCH   1   7
ATOM      7  C   UNL d   1      26.282 -15.973  -3.626  0.00  0.00     0.150 C 
BRANCH   7   8
ATOM      8  N   UNL d   1      26.674 -14.861  -4.479  0.00  0.00    -0.283 N 
ATOM      9  C   UNL d   1      26.414 -13.601  -4.194  0.00  0.00     0.139 A 
ATOM     10  C   UNL d   1      26.665 -12.744  -5.180  0.00  0.00     0.103 A 
ATOM     11  N   UNL d   1      27.223 -13.546  -6.142  0.00  0.00    -0.160 NA
ATOM     12  N   UNL d   1      27.208 -14.848  -5.711  0.00  0.00     0.004 NA
BRANCH  10  13
ATOM     13  C   UNL d   1      26.302 -11.279  -5.046  0.00  0.00     0.104 C 
ATOM     14  C   UNL d   1      27.457 -10.242  -5.103  0.00  0.00     0.044 C 
ATOM     15  C   UNL d   1      26.880  -8.987  -4.444  0.00  0.00     0.004 C 
ATOM     16  C   UNL d   1      25.737  -9.479  -3.560  0.00  0.00     0.004 C 
ATOM     17  C   UNL d   1      25.700 -10.994  -3.698  0.00  0.00     0.044 C 
BRANCH  13  18
ATOM     18  O   UNL d   1      25.334 -10.874  -6.052  0.00  0.00    -0.383 OA
ATOM     19  H   UNL d   1      24.551 -11.463  -5.998  0.00  0.00     0.211 HD
ENDBRANCH  13  18
ENDBRANCH  10  13
ENDBRANCH   7   8
ENDBRANCH   1   7
BRANCH   4  20
ATOM     20  C   UNL d   1      22.238 -18.643   0.415  0.00  0.00     0.222 C 
ATOM     21  N   UNL d   1      21.824 -18.847  -0.821  0.00  0.00    -0.256 NA
ATOM     22  C   UNL d   1      20.673 -18.336  -0.887  0.00  0.00     0.275 C 
ATOM     23  N   UNL d   1      19.898 -19.296  -1.262  0.00  0.00    -0.239 NA
ATOM     24  C   UNL d   1      19.841 -20.058  -0.178  0.00  0.00     0.155 C 
ATOM     25  N   UNL d   1      18.665 -20.778   0.007  0.00  0.00    -0.334 N 
ATOM     26  C   UNL d   1      20.712 -19.710   0.899  0.00  0.00     0.136 C 
ATOM     27  C   UNL d   1      18.244 -20.576   1.296  0.00  0.00     0.209 C 
ATOM     28  H   UNL d   1      18.085 -21.125  -0.759  0.00  0.00     0.168 HD
ATOM     29  N   UNL d   1      19.325 -19.887   1.906  0.00  0.00    -0.240 NA
ENDBRANCH   4  20
TORSDOF 5
ENDMDL
MODEL 6
REMARK VINA RESULT:   -30.338      1.559      2.273
REMARK INTER + INTRA:         -32.650
REMARK INTER:                 -31.829
REMARK INTRA:                  -0.820
REMARK CONF_INDEPENDENT:        1.492
REMARK UNBOUND:                -0.820
REMARK  5 active torsions:
REMARK  status: ('A' for Active; 'I' for Inactive)
REMARK    1  A    between atoms: O_1  and  C_2 
REMARK    2  A    between atoms: C_2  and  C_3 
REMARK    3  A    between atoms: N_5  and  C_6 
REMARK    4  A    between atoms: C_6  and  C_7 
REMARK    5  A    between atoms: N_10  and  C_11 
ROOT
ATOM      1  C   UNL d   1      26.233 -16.374  -1.579  0.00  0.00     0.008 C 
ATOM      2  C   UNL d   1      24.834 -16.358  -2.267  0.00  0.00     0.026 C 
ATOM      3  C   UNL d   1      23.401 -16.472  -1.328  0.00  0.00     0.120 C 
ATOM      4  N   UNL d   1      23.257 -17.684   0.031  0.00  0.00    -0.377 N 
ATOM      5  C   UNL d   1      24.995 -17.857   0.487  0.00  0.00     0.120 C 
ATOM      6  C   UNL d   1      26.204 -17.612  -0.624  0.00  0.00     0.026 C 
ENDROOT
BRANCH   1   7
ATOM      7  C   UNL d   1      26.715 -14.925  -1.024  0.00  0.00     0.150 C 
BRANCH   7   8
ATOM      8  N   UNL d   1      27.798 -14.968  -0.053  0.00  0.00    -0.283 N 
ATOM      9  C   UNL d   1      27.642 -14.680   1.224  0.00  0.00     0.139 A 
ATOM     10  C   UNL d   1      28.774 -14.575   1.914  0.00  0.00     0.103 A 
ATOM     11  N   UNL d   1      29.725 -14.924   0.990  0.00  0.00    -0.160 NA
ATOM     12  N   UNL d   1      29.119 -15.147  -0.221  0.00  0.00     0.004 NA
BRANCH  10  13
ATOM     13  C   UNL d   1      28.762 -14.128   3.361  0.00  0.00     0.104 C 
ATOM     14  C   UNL d   1      27.498 -14.452   4.206  0.00  0.00     0.044 C 
ATOM     15  C   UNL d   1      27.557 -13.471   5.379  0.00  0.00     0.004 C 
ATOM     16  C   UNL d   1      28.428 -12.313   4.899  0.00  0.00     0.004 C 
ATOM     17  C   UNL d   1      28.821 -12.629   3.463  0.00  0.00     0.044 C 
BRANCH  13  18
ATOM     18  O   UNL d   1      29.897 -14.662   4.096  0.00  0.00    -0.383 OA
ATOM     19  H   UNL d   1      29.774 -15.628   4.215  0.00  0.00     0.211 HD
ENDBRANCH  13  18
ENDBRANCH  10  13
ENDBRANCH   7   8
ENDBRANCH   1   7
BRANCH   4  20
ATOM     20  C   UNL d   1      21.925 -18.628   0.752  0.00  0.00     0.222 C 
ATOM     21  N   UNL d   1      21.703 -18.795  -0.539  0.00  0.00    -0.256 NA
ATOM     22  C   UNL d   1      20.544 -18.344  -0.750  0.00  0.00     0.275 C 
ATOM     23  N   UNL d   1      19.889 -19.325  -1.270  0.00  0.00    -0.239 NA
ATOM     24  C   UNL d   1      19.725 -20.139  -0.237  0.00  0.00     0.155 C 
ATOM     25  N   UNL d   1      18.580 -20.929  -0.252  0.00  0.00    -0.334 N 
ATOM     26  C   UNL d   1      20.412 -19.798   0.967  0.00  0.00     0.136 C 
ATOM     27  C   UNL d   1      17.969 -20.812   0.970  0.00  0.00     0.209 C 
ATOM     28  H   UNL d   1      18.136 -21.270  -1.107  0.00  0.00     0.168 HD
ATOM     29  N   UNL d   1      18.910 -20.097   1.756  0.00  0.00    -0.240 NA
ENDBRANCH   4  20
TORSDOF 5
ENDMDL
MODEL 7
REMARK VINA RESULT:   -30.218      4.213      6.783
REMARK INTER + INTRA:         -32.533
REMARK INTER:                 -31.709
REMARK INTRA:                  -0.823
REMARK CONF_INDEPENDENT:        1.492
REMARK UNBOUND:                -0.823
REMARK  5 active torsions:
REMARK  status: ('A' for Active; 'I' for Inactive)
REMARK    1  A    between atoms: O_1  and  C_2 
REMARK    2  A    between atoms: C_2  and  C_3 
REMARK    3  A    between atoms: N_5  and  C_6 
REMARK    4  A    between atoms: C_6  and  C_7 
REMARK    5  A    between atoms: N_10  and  C_11 
ROOT
ATOM      1  C   UNL d   1      27.683 -14.445  -1.883  0.00  0.00     0.008 C 
ATOM      2  C   UNL d   1      27.159 -14.745  -0.446  0.00  0.00     0.026 C 
ATOM      3  C   UNL d   1      26.037 -16.016  -0.177  0.00  0.00     0.120 C 
ATOM      4  N   UNL d   1      24.597 -16.253  -1.276  0.00  0.00    -0.377 N 
ATOM      5  C   UNL d   1      25.244 -15.541  -2.803  0.00  0.00     0.120 C 
ATOM      6  C   UNL d   1      26.402 -14.352  -2.775  0.00  0.00     0.026 C 
ENDROOT
BRANCH   1   7
ATOM      7  C   UNL d   1      28.931 -15.381  -2.342  0.00  0.00     0.150 C 
BRANCH   7   8
ATOM      8  N   UNL d   1      28.970 -15.702  -3.760  0.00  0.00    -0.283 N 
ATOM      9  C   UNL d   1      29.733 -16.648  -4.270  0.00  0.00     0.139 A 
ATOM     10  C   UNL d   1      29.790 -16.661  -5.599  0.00  0.00     0.103 A 
ATOM     11  N   UNL d   1      28.899 -15.680  -5.950  0.00  0.00    -0.160 NA
ATOM     12  N   UNL d   1      28.413 -15.083  -4.814  0.00  0.00     0.004 NA
BRANCH  10  13
ATOM     13  C   UNL d   1      30.720 -17.610  -6.326  0.00  0.00     0.104 C 
ATOM     14  C   UNL d   1      30.406 -19.130  -6.248  0.00  0.00     0.044 C 
ATOM     15  C   UNL d   1      31.729 -19.815  -6.598  0.00  0.00     0.004 C 
ATOM     16  C   UNL d   1      32.815 -18.786  -6.294  0.00  0.00     0.004 C 
ATOM     17  C   UNL d   1      32.107 -17.554  -5.748  0.00  0.00     0.044 C 
BRANCH  13  18
ATOM     18  O   UNL d   1      30.822 -17.283  -7.739  0.00  0.00    -0.383 OA
ATOM     19  H   UNL d   1      30.996 -16.322  -7.833  0.00  0.00     0.211 HD
ENDBRANCH  13  18
ENDBRANCH  10  13
ENDBRANCH   7   8
ENDBRANCH   1   7
BRANCH   4  20
ATOM     20  C   UNL d   1      22.929 -16.856  -1.070  0.00  0.00     0.222 C 
ATOM     21  N   UNL d   1      23.632 -17.811  -0.491  0.00  0.00    -0.256 NA
ATOM     22  C   UNL d   1      23.359 -18.870  -1.121  0.00  0.00     0.275 C 
ATOM     23  N   UNL d   1      22.910 -19.686  -0.229  0.00  0.00    -0.239 NA
ATOM     24  C   UNL d   1      21.721 -19.174   0.056  0.00  0.00     0.155 C 
ATOM     25  N   UNL d   1      20.742 -20.077   0.455  0.00  0.00    -0.334 N 
ATOM     26  C   UNL d   1      21.413 -17.905  -0.520  0.00  0.00     0.136 C 
ATOM     27  C   UNL d   1      19.609 -19.825  -0.275  0.00  0.00     0.209 C 
ATOM     28  H   UNL d   1      20.939 -20.942   0.963  0.00  0.00     0.168 HD
ATOM     29  N   UNL d   1      19.905 -18.614  -0.957  0.00  0.00    -0.240 NA
ENDBRANCH   4  20
TORSDOF 5
ENDMDL
MODEL 8
REMARK VINA RESULT:   -30.109      4.715      6.922
REMARK INTER + INTRA:         -32.268
REMARK INTER:                 -31.600
REMARK INTRA:                  -0.668
REMARK CONF_INDEPENDENT:        1.492
REMARK UNBOUND:                -0.668
REMARK  5 active torsions:
REMARK  status: ('A' for Active; 'I' for Inactive)
REMARK    1  A    between atoms: O_1  and  C_2 
REMARK    2  A    between atoms: C_2  and  C_3 
REMARK    3  A    between atoms: N_5  and  C_6 
REMARK    4  A    between atoms: C_6  and  C_7 
REMARK    5  A    between atoms: N_10  and  C_11 
ROOT
ATOM      1  C   UNL d   1      25.939 -15.726  -2.056  0.00  0.00     0.008 C 
ATOM      2  C   UNL d   1      26.290 -16.978  -1.197  0.00  0.00     0.026 C 
ATOM      3  C   UNL d   1      25.127 -18.214  -0.944  0.00  0.00     0.120 C 
ATOM      4  N   UNL d   1      23.396 -17.809  -0.523  0.00  0.00    -0.377 N 
ATOM      5  C   UNL d   1      23.255 -16.182  -1.291  0.00  0.00     0.120 C 
ATOM      6  C   UNL d   1      24.582 -15.203  -1.481  0.00  0.00     0.026 C 
ENDROOT
BRANCH   1   7
ATOM      7  C   UNL d   1      26.116 -15.949  -3.657  0.00  0.00     0.150 C 
BRANCH   7   8
ATOM      8  N   UNL d   1      26.377 -14.738  -4.421  0.00  0.00    -0.283 N 
ATOM      9  C   UNL d   1      27.316 -14.649  -5.342  0.00  0.00     0.139 A 
ATOM     10  C   UNL d   1      27.543 -13.417  -5.787  0.00  0.00     0.103 A 
ATOM     11  N   UNL d   1      26.585 -12.680  -5.141  0.00  0.00    -0.160 NA
ATOM     12  N   UNL d   1      25.885 -13.496  -4.289  0.00  0.00     0.004 NA
BRANCH  10  13
ATOM     13  C   UNL d   1      28.674 -13.139  -6.756  0.00  0.00     0.104 C 
ATOM     14  C   UNL d   1      29.887 -12.319  -6.234  0.00  0.00     0.044 C 
ATOM     15  C   UNL d   1      30.559 -11.778  -7.498  0.00  0.00     0.004 C 
ATOM     16  C   UNL d   1      29.475 -11.785  -8.572  0.00  0.00     0.004 C 
ATOM     17  C   UNL d   1      28.204 -12.291  -7.905  0.00  0.00     0.044 C 
BRANCH  13  18
ATOM     18  O   UNL d   1      29.217 -14.367  -7.313  0.00  0.00    -0.383 OA
ATOM     19  H   UNL d   1      28.854 -14.497  -8.215  0.00  0.00     0.211 HD
ENDBRANCH  13  18
ENDBRANCH  10  13
ENDBRANCH   7   8
ENDBRANCH   1   7
BRANCH   4  20
ATOM     20  C   UNL d   1      22.114 -18.581   0.450  0.00  0.00     0.222 C 
ATOM     21  N   UNL d   1      21.719 -18.857  -0.779  0.00  0.00    -0.256 NA
ATOM     22  C   UNL d   1      20.571 -18.347  -0.894  0.00  0.00     0.275 C 
ATOM     23  N   UNL d   1      19.799 -19.325  -1.225  0.00  0.00    -0.239 NA
ATOM     24  C   UNL d   1      19.721 -20.021  -0.099  0.00  0.00     0.155 C 
ATOM     25  N   UNL d   1      18.539 -20.725   0.108  0.00  0.00    -0.334 N 
ATOM     26  C   UNL d   1      20.575 -19.614   0.969  0.00  0.00     0.136 C 
ATOM     27  C   UNL d   1      18.097 -20.447   1.375  0.00  0.00     0.209 C 
ATOM     28  H   UNL d   1      17.970 -21.115  -0.646  0.00  0.00     0.168 HD
ATOM     29  N   UNL d   1      19.172 -19.727   1.962  0.00  0.00    -0.240 NA
ENDBRANCH   4  20
TORSDOF 5
ENDMDL
MODEL 9
REMARK VINA RESULT:   -29.504      1.921      2.185
REMARK INTER + INTRA:         -31.650
REMARK INTER:                 -30.995
REMARK INTRA:                  -0.655
REMARK CONF_INDEPENDENT:        1.492
REMARK UNBOUND:                -0.655
REMARK  5 active torsions:
REMARK  status: ('A' for Active; 'I' for Inactive)
REMARK    1  A    between atoms: O_1  and  C_2 
REMARK    2  A    between atoms: C_2  and  C_3 
REMARK    3  A    between atoms: N_5  and  C_6 
REMARK    4  A    between atoms: C_6  and  C_7 
REMARK    5  A    between atoms: N_10  and  C_11 
ROOT
ATOM      1  C   UNL d   1      28.081 -15.556  -1.653  0.00  0.00     0.008 C 
ATOM      2  C   UNL d   1      27.039 -15.315  -2.787  0.00  0.00     0.026 C 
ATOM      3  C   UNL d   1      25.375 -15.121  -2.412  0.00  0.00     0.120 C 
ATOM      4  N   UNL d   1      24.542 -16.221  -1.216  0.00  0.00    -0.377 N 
ATOM      5  C   UNL d   1      25.947 -16.688  -0.183  0.00  0.00     0.120 C 
ATOM      6  C   UNL d   1      27.490 -16.722  -0.795  0.00  0.00     0.026 C 
ENDROOT
BRANCH   1   7
ATOM      7  C   UNL d   1      28.604 -14.195  -0.933  0.00  0.00     0.150 C 
BRANCH   7   8
ATOM      8  N   UNL d   1      27.647 -13.569  -0.033  0.00  0.00    -0.283 N 
ATOM      9  C   UNL d   1      27.927 -12.515   0.706  0.00  0.00     0.139 A 
ATOM     10  C   UNL d   1      27.003 -12.209   1.612  0.00  0.00     0.103 A 
ATOM     11  N   UNL d   1      26.007 -13.112   1.345  0.00  0.00    -0.160 NA
ATOM     12  N   UNL d   1      26.418 -13.956   0.345  0.00  0.00     0.004 NA
BRANCH  10  13
ATOM     13  C   UNL d   1      27.239 -11.099   2.617  0.00  0.00     0.104 C 
ATOM     14  C   UNL d   1      28.384 -10.091   2.322  0.00  0.00     0.044 C 
ATOM     15  C   UNL d   1      28.704  -9.464   3.681  0.00  0.00     0.004 C 
ATOM     16  C   UNL d   1      28.214 -10.469   4.720  0.00  0.00     0.004 C 
ATOM     17  C   UNL d   1      27.658 -11.658   3.948  0.00  0.00     0.044 C 
BRANCH  13  18
ATOM     18  O   UNL d   1      26.038 -10.308   2.832  0.00  0.00    -0.383 OA
ATOM     19  H   UNL d   1      25.373 -10.545   2.151  0.00  0.00     0.211 HD
ENDBRANCH  13  18
ENDBRANCH  10  13
ENDBRANCH   7   8
ENDBRANCH   1   7
BRANCH   4  20
ATOM     20  C   UNL d   1      22.890 -16.871  -1.027  0.00  0.00     0.222 C 
ATOM     21  N   UNL d   1      23.619 -17.839  -0.504  0.00  0.00    -0.256 NA
ATOM     22  C   UNL d   1      23.362 -18.870  -1.184  0.00  0.00     0.275 C 
ATOM     23  N   UNL d   1      22.939 -19.740  -0.332  0.00  0.00    -0.239 NA
ATOM     24  C   UNL d   1      21.742 -19.269  -0.012  0.00  0.00     0.155 C 
ATOM     25  N   UNL d   1      20.786 -20.213   0.348  0.00  0.00    -0.334 N 
ATOM     26  C   UNL d   1      21.401 -17.979  -0.520  0.00  0.00     0.136 C 
ATOM     27  C   UNL d   1      19.642 -19.949  -0.360  0.00  0.00     0.209 C 
ATOM     28  H   UNL d   1      21.006 -21.098   0.810  0.00  0.00     0.168 HD
ATOM     29  N   UNL d   1      19.905 -18.699  -0.980  0.00  0.00    -0.240 NA
ENDBRANCH   4  20
TORSDOF 5
ENDMDL
