MODEL 1
REMARK VINA RESULT:    -8.811      0.000      0.000
REMARK INTER + INTRA:         -11.759
REMARK INTER:                 -10.899
REMARK INTRA:                  -0.859
REMARK CONF_INDEPENDENT:        2.088
REMARK UNBOUND:                -0.859
REMARK  7 active torsions:
REMARK  status: ('A' for Active; 'I' for Inactive)
REMARK    1  A    between atoms: C_2  and  N_15 
REMARK    2  A    between atoms: C_3  and  C_4 
REMARK       I    between atoms: C_4  and  N_6 
REMARK    3  A    between atoms: N_6  and  C_7 
REMARK    4  A    between atoms: C_7  and  C_8 
REMARK    5  A    between atoms: N_15  and  N_16 
REMARK       I    between atoms: N_16  and  C_17 
REMARK    6  A    between atoms: C_17  and  C_19 
REMARK       I    between atoms: C_19  and  N_21 
REMARK    7  A    between atoms: N_21  and  C_22 
ROOT
ATOM      1  N   UNL d   1      27.880 -16.539   1.012  0.00  0.00    -0.302 N 
ATOM      2  H   UNL d   1      28.804 -16.982   0.949  0.00  0.00     0.186 HD
ENDROOT
BRANCH   1   3
ATOM      3  C   UNL d   1      26.857 -17.080   0.205  0.00  0.00     0.027 C 
ATOM      4  C   UNL d   1      26.774 -18.606   0.231  0.00  0.00     0.070 C 
ATOM      5  C   UNL d   1      25.997 -16.347  -0.546  0.00  0.00     0.100 C 
BRANCH   5   6
ATOM      6  C   UNL d   1      24.902 -16.879  -1.426  0.00  0.00     0.243 C 
ATOM      7  O   UNL d   1      24.780 -16.624  -2.621  0.00  0.00    -0.269 OA
ATOM      8  N   UNL d   1      23.998 -17.704  -0.812  0.00  0.00    -0.353 N 
ATOM      9  H   UNL d   1      24.109 -17.979   0.151  0.00  0.00     0.163 HD
BRANCH   8  10
ATOM     10  C   UNL d   1      22.909 -18.246  -1.610  0.00  0.00     0.161 C 
BRANCH  10  11
ATOM     11  C   UNL d   1      21.774 -18.812  -0.800  0.00  0.00    -0.040 A 
ATOM     12  C   UNL d   1      21.789 -18.781   0.602  0.00  0.00     0.010 A 
ATOM     13  C   UNL d   1      20.737 -19.324   1.337  0.00  0.00     0.024 A 
ATOM     14  C   UNL d   1      19.638 -19.864   0.676  0.00  0.00     0.034 A 
ATOM     15 CL   UNL d   1      18.349 -20.542   1.590  0.00  0.00    -0.084 Cl
ATOM     16  C   UNL d   1      19.576 -19.852  -0.715  0.00  0.00     0.024 A 
ATOM     17  C   UNL d   1      20.640 -19.326  -1.452  0.00  0.00     0.010 A 
ENDBRANCH  10  11
ENDBRANCH   8  10
ENDBRANCH   5   6
ENDBRANCH   1   3
BRANCH   1  18
ATOM     18  N   UNL d   1      27.782 -15.460   1.923  0.00  0.00    -0.262 N 
ATOM     19  C   UNL d   1      27.466 -14.156   1.516  0.00  0.00     0.328 C 
ATOM     20  O   UNL d   1      27.225 -13.787   0.370  0.00  0.00    -0.261 OA
ATOM     21  H   UNL d   1      27.946 -15.640   2.908  0.00  0.00     0.190 HD
BRANCH  19  22
ATOM     22  C   UNL d   1      27.438 -13.132   2.700  0.00  0.00     0.315 C 
ATOM     23  O   UNL d   1      26.650 -12.194   2.611  0.00  0.00    -0.262 OA
ATOM     24  N   UNL d   1      28.360 -13.336   3.741  0.00  0.00    -0.318 N 
ATOM     25  H   UNL d   1      29.084 -14.031   3.585  0.00  0.00     0.169 HD
BRANCH  24  26
ATOM     26  C   UNL d   1      28.472 -12.469   4.875  0.00  0.00     0.042 A 
ATOM     27  C   UNL d   1      28.444 -11.078   4.677  0.00  0.00     0.030 A 
ATOM     28  C   UNL d   1      28.555 -10.184   5.746  0.00  0.00     0.004 A 
ATOM     29  C   UNL d   1      28.731 -10.664   7.035  0.00  0.00     0.024 A 
ATOM     30  C   UNL d   1      28.759 -12.041   7.262  0.00  0.00     0.042 A 
ATOM     31 CL   UNL d   1      29.038 -12.530   8.903  0.00  0.00    -0.084 Cl
ATOM     32  C   UNL d   1      28.596 -12.968   6.199  0.00  0.00    -0.013 A 
ATOM     33  C   UNL d   1      28.630 -14.448   6.464  0.00  0.00     0.052 C 
ENDBRANCH  24  26
ENDBRANCH  19  22
ENDBRANCH   1  18
TORSDOF 7
ENDMDL
MODEL 2
REMARK VINA RESULT:    -8.623      3.003      4.451
REMARK INTER + INTRA:         -12.290
REMARK INTER:                 -10.711
REMARK INTRA:                  -1.578
REMARK CONF_INDEPENDENT:        2.088
REMARK UNBOUND:                -1.578
REMARK  7 active torsions:
REMARK  status: ('A' for Active; 'I' for Inactive)
REMARK    1  A    between atoms: C_2  and  N_15 
REMARK    2  A    between atoms: C_3  and  C_4 
REMARK       I    between atoms: C_4  and  N_6 
REMARK    3  A    between atoms: N_6  and  C_7 
REMARK    4  A    between atoms: C_7  and  C_8 
REMARK    5  A    between atoms: N_15  and  N_16 
REMARK       I    between atoms: N_16  and  C_17 
REMARK    6  A    between atoms: C_17  and  C_19 
REMARK       I    between atoms: C_19  and  N_21 
REMARK    7  A    between atoms: N_21  and  C_22 
ROOT
ATOM      1  N   UNL d   1      29.718 -14.619   3.320  0.00  0.00    -0.302 N 
ATOM      2  H   UNL d   1      30.482 -15.200   2.954  0.00  0.00     0.186 HD
ENDROOT
BRANCH   1   3
ATOM      3  C   UNL d   1      28.621 -14.395   2.463  0.00  0.00     0.027 C 
ATOM      4  C   UNL d   1      27.815 -13.137   2.786  0.00  0.00     0.070 C 
ATOM      5  C   UNL d   1      28.272 -15.200   1.428  0.00  0.00     0.100 C 
BRANCH   5   6
ATOM      6  C   UNL d   1      27.108 -15.006   0.498  0.00  0.00     0.243 C 
ATOM      7  O   UNL d   1      26.408 -13.997   0.455  0.00  0.00    -0.269 OA
ATOM      8  N   UNL d   1      26.843 -16.052  -0.345  0.00  0.00    -0.353 N 
ATOM      9  H   UNL d   1      27.437 -16.866  -0.374  0.00  0.00     0.163 HD
BRANCH   8  10
ATOM     10  C   UNL d   1      25.722 -15.927  -1.265  0.00  0.00     0.161 C 
BRANCH  10  11
ATOM     11  C   UNL d   1      24.557 -16.823  -0.941  0.00  0.00    -0.040 A 
ATOM     12  C   UNL d   1      24.747 -18.134  -0.482  0.00  0.00     0.010 A 
ATOM     13  C   UNL d   1      23.656 -18.954  -0.201  0.00  0.00     0.024 A 
ATOM     14  C   UNL d   1      22.364 -18.457  -0.336  0.00  0.00     0.034 A 
ATOM     15 CL   UNL d   1      21.023 -19.480   0.001  0.00  0.00    -0.084 Cl
ATOM     16  C   UNL d   1      22.153 -17.139  -0.735  0.00  0.00     0.024 A 
ATOM     17  C   UNL d   1      23.247 -16.323  -1.035  0.00  0.00     0.010 A 
ENDBRANCH  10  11
ENDBRANCH   8  10
ENDBRANCH   5   6
ENDBRANCH   1   3
BRANCH   1  18
ATOM     18  N   UNL d   1      29.889 -14.151   4.645  0.00  0.00    -0.262 N 
ATOM     19  C   UNL d   1      29.013 -14.493   5.685  0.00  0.00     0.328 C 
ATOM     20  O   UNL d   1      28.032 -15.227   5.601  0.00  0.00    -0.261 OA
ATOM     21  H   UNL d   1      30.678 -13.545   4.847  0.00  0.00     0.190 HD
BRANCH  19  22
ATOM     22  C   UNL d   1      29.398 -13.836   7.053  0.00  0.00     0.315 C 
ATOM     23  O   UNL d   1      30.146 -12.863   7.017  0.00  0.00    -0.262 OA
ATOM     24  N   UNL d   1      28.906 -14.452   8.216  0.00  0.00    -0.318 N 
ATOM     25  H   UNL d   1      28.470 -15.363   8.106  0.00  0.00     0.169 HD
BRANCH  24  26
ATOM     26  C   UNL d   1      29.195 -13.983   9.538  0.00  0.00     0.042 A 
ATOM     27  C   UNL d   1      28.185 -13.335  10.269  0.00  0.00     0.030 A 
ATOM     28  C   UNL d   1      28.411 -12.852  11.561  0.00  0.00     0.004 A 
ATOM     29  C   UNL d   1      29.667 -12.978  12.138  0.00  0.00     0.024 A 
ATOM     30  C   UNL d   1      30.688 -13.621  11.437  0.00  0.00     0.042 A 
ATOM     31 CL   UNL d   1      32.230 -13.675  12.230  0.00  0.00    -0.084 Cl
ATOM     32  C   UNL d   1      30.466 -14.165  10.144  0.00  0.00    -0.013 A 
ATOM     33  C   UNL d   1      31.580 -14.855   9.404  0.00  0.00     0.052 C 
ENDBRANCH  24  26
ENDBRANCH  19  22
ENDBRANCH   1  18
TORSDOF 7
ENDMDL
MODEL 3
REMARK VINA RESULT:    -8.283      2.853      4.255
REMARK INTER + INTRA:         -12.227
REMARK INTER:                 -10.371
REMARK INTRA:                  -1.857
REMARK CONF_INDEPENDENT:        2.088
REMARK UNBOUND:                -1.857
REMARK  7 active torsions:
REMARK  status: ('A' for Active; 'I' for Inactive)
REMARK    1  A    between atoms: C_2  and  N_15 
REMARK    2  A    between atoms: C_3  and  C_4 
REMARK       I    between atoms: C_4  and  N_6 
REMARK    3  A    between atoms: N_6  and  C_7 
REMARK    4  A    between atoms: C_7  and  C_8 
REMARK    5  A    between atoms: N_15  and  N_16 
REMARK       I    between atoms: N_16  and  C_17 
REMARK    6  A    between atoms: C_17  and  C_19 
REMARK       I    between atoms: C_19  and  N_21 
REMARK    7  A    between atoms: N_21  and  C_22 
ROOT
ATOM      1  N   UNL d   1      28.717 -14.446   3.384  0.00  0.00    -0.302 N 
ATOM      2  H   UNL d   1      29.625 -14.895   3.216  0.00  0.00     0.186 HD
ENDROOT
BRANCH   1   3
ATOM      3  C   UNL d   1      27.806 -14.425   2.309  0.00  0.00     0.027 C 
ATOM      4  C   UNL d   1      26.806 -13.270   2.352  0.00  0.00     0.070 C 
ATOM      5  C   UNL d   1      27.781 -15.331   1.299  0.00  0.00     0.100 C 
BRANCH   5   6
ATOM      6  C   UNL d   1      26.825 -15.353   0.141  0.00  0.00     0.243 C 
ATOM      7  O   UNL d   1      26.302 -14.356  -0.353  0.00  0.00    -0.269 OA
ATOM      8  N   UNL d   1      26.542 -16.591  -0.371  0.00  0.00    -0.353 N 
ATOM      9  H   UNL d   1      27.003 -17.418  -0.026  0.00  0.00     0.163 HD
BRANCH   8  10
ATOM     10  C   UNL d   1      25.615 -16.678  -1.489  0.00  0.00     0.161 C 
BRANCH  10  11
ATOM     11  C   UNL d   1      24.310 -17.350  -1.157  0.00  0.00    -0.040 A 
ATOM     12  C   UNL d   1      24.262 -18.686  -0.736  0.00  0.00     0.010 A 
ATOM     13  C   UNL d   1      23.044 -19.298  -0.447  0.00  0.00     0.024 A 
ATOM     14  C   UNL d   1      21.864 -18.565  -0.535  0.00  0.00     0.034 A 
ATOM     15 CL   UNL d   1      20.364 -19.330  -0.188  0.00  0.00    -0.084 Cl
ATOM     16  C   UNL d   1      21.895 -17.220  -0.894  0.00  0.00     0.024 A 
ATOM     17  C   UNL d   1      23.115 -16.613  -1.203  0.00  0.00     0.010 A 
ENDBRANCH  10  11
ENDBRANCH   8  10
ENDBRANCH   5   6
ENDBRANCH   1   3
BRANCH   1  18
ATOM     18  N   UNL d   1      28.524 -13.934   4.690  0.00  0.00    -0.262 N 
ATOM     19  C   UNL d   1      29.276 -14.371   5.790  0.00  0.00     0.328 C 
ATOM     20  O   UNL d   1      30.175 -15.206   5.775  0.00  0.00    -0.261 OA
ATOM     21  H   UNL d   1      27.815 -13.222   4.831  0.00  0.00     0.190 HD
BRANCH  19  22
ATOM     22  C   UNL d   1      28.864 -13.673   7.131  0.00  0.00     0.315 C 
ATOM     23  O   UNL d   1      28.125 -12.696   7.050  0.00  0.00    -0.262 OA
ATOM     24  N   UNL d   1      29.425 -14.184   8.313  0.00  0.00    -0.318 N 
ATOM     25  H   UNL d   1      30.176 -14.862   8.212  0.00  0.00     0.169 HD
BRANCH  24  26
ATOM     26  C   UNL d   1      29.166 -13.634   9.610  0.00  0.00     0.042 A 
ATOM     27  C   UNL d   1      28.085 -14.130  10.358  0.00  0.00     0.030 A 
ATOM     28  C   UNL d   1      27.781 -13.627  11.626  0.00  0.00     0.004 A 
ATOM     29  C   UNL d   1      28.535 -12.593  12.160  0.00  0.00     0.024 A 
ATOM     30  C   UNL d   1      29.618 -12.084  11.441  0.00  0.00     0.042 A 
ATOM     31 CL   UNL d   1      30.456 -10.756  12.179  0.00  0.00    -0.084 Cl
ATOM     32  C   UNL d   1      29.976 -12.613  10.174  0.00  0.00    -0.013 A 
ATOM     33  C   UNL d   1      31.146 -12.050   9.414  0.00  0.00     0.052 C 
ENDBRANCH  24  26
ENDBRANCH  19  22
ENDBRANCH   1  18
TORSDOF 7
ENDMDL
MODEL 4
REMARK VINA RESULT:    -8.270      1.704      2.360
REMARK INTER + INTRA:         -12.134
REMARK INTER:                 -10.358
REMARK INTRA:                  -1.775
REMARK CONF_INDEPENDENT:        2.088
REMARK UNBOUND:                -1.775
REMARK  7 active torsions:
REMARK  status: ('A' for Active; 'I' for Inactive)
REMARK    1  A    between atoms: C_2  and  N_15 
REMARK    2  A    between atoms: C_3  and  C_4 
REMARK       I    between atoms: C_4  and  N_6 
REMARK    3  A    between atoms: N_6  and  C_7 
REMARK    4  A    between atoms: C_7  and  C_8 
REMARK    5  A    between atoms: N_15  and  N_16 
REMARK       I    between atoms: N_16  and  C_17 
REMARK    6  A    between atoms: C_17  and  C_19 
REMARK       I    between atoms: C_19  and  N_21 
REMARK    7  A    between atoms: N_21  and  C_22 
ROOT
ATOM      1  N   UNL d   1      28.166 -15.413   1.343  0.00  0.00    -0.302 N 
ATOM      2  H   UNL d   1      29.092 -15.799   1.127  0.00  0.00     0.186 HD
ENDROOT
BRANCH   1   3
ATOM      3  C   UNL d   1      27.156 -15.597   0.377  0.00  0.00     0.027 C 
ATOM      4  C   UNL d   1      26.970 -14.414  -0.574  0.00  0.00     0.070 C 
ATOM      5  C   UNL d   1      26.389 -16.711   0.262  0.00  0.00     0.100 C 
BRANCH   5   6
ATOM      6  C   UNL d   1      25.298 -16.944  -0.744  0.00  0.00     0.243 C 
ATOM      7  O   UNL d   1      25.371 -16.653  -1.935  0.00  0.00    -0.269 OA
ATOM      8  N   UNL d   1      24.158 -17.526  -0.257  0.00  0.00    -0.353 N 
ATOM      9  H   UNL d   1      24.093 -17.831   0.702  0.00  0.00     0.163 HD
BRANCH   8  10
ATOM     10  C   UNL d   1      23.062 -17.771  -1.181  0.00  0.00     0.161 C 
BRANCH  10  11
ATOM     11  C   UNL d   1      21.897 -18.507  -0.574  0.00  0.00    -0.040 A 
ATOM     12  C   UNL d   1      21.753 -18.629   0.815  0.00  0.00     0.010 A 
ATOM     13  C   UNL d   1      20.677 -19.327   1.360  0.00  0.00     0.024 A 
ATOM     14  C   UNL d   1      19.710 -19.872   0.521  0.00  0.00     0.034 A 
ATOM     15 CL   UNL d   1      18.391 -20.741   1.200  0.00  0.00    -0.084 Cl
ATOM     16  C   UNL d   1      19.802 -19.711  -0.859  0.00  0.00     0.024 A 
ATOM     17  C   UNL d   1      20.892 -19.029  -1.406  0.00  0.00     0.010 A 
ENDBRANCH  10  11
ENDBRANCH   8  10
ENDBRANCH   5   6
ENDBRANCH   1   3
BRANCH   1  18
ATOM     18  N   UNL d   1      28.052 -14.771   2.600  0.00  0.00    -0.262 N 
ATOM     19  C   UNL d   1      29.166 -14.459   3.391  0.00  0.00     0.328 C 
ATOM     20  O   UNL d   1      30.343 -14.673   3.112  0.00  0.00    -0.261 OA
ATOM     21  H   UNL d   1      27.126 -14.526   2.937  0.00  0.00     0.190 HD
BRANCH  19  22
ATOM     22  C   UNL d   1      28.785 -13.770   4.745  0.00  0.00     0.315 C 
ATOM     23  O   UNL d   1      27.655 -13.298   4.835  0.00  0.00    -0.262 OA
ATOM     24  N   UNL d   1      29.789 -13.692   5.725  0.00  0.00    -0.318 N 
ATOM     25  H   UNL d   1      30.732 -13.941   5.439  0.00  0.00     0.169 HD
BRANCH  24  26
ATOM     26  C   UNL d   1      29.599 -13.068   6.999  0.00  0.00     0.042 A 
ATOM     27  C   UNL d   1      29.166 -13.848   8.084  0.00  0.00     0.030 A 
ATOM     28  C   UNL d   1      28.958 -13.292   9.349  0.00  0.00     0.004 A 
ATOM     29  C   UNL d   1      29.147 -11.932   9.548  0.00  0.00     0.024 A 
ATOM     30  C   UNL d   1      29.581 -11.133   8.490  0.00  0.00     0.042 A 
ATOM     31 CL   UNL d   1      29.734  -9.440   8.836  0.00  0.00    -0.084 Cl
ATOM     32  C   UNL d   1      29.848 -11.685   7.210  0.00  0.00    -0.013 A 
ATOM     33  C   UNL d   1      30.315 -10.807   6.081  0.00  0.00     0.052 C 
ENDBRANCH  24  26
ENDBRANCH  19  22
ENDBRANCH   1  18
TORSDOF 7
ENDMDL
MODEL 5
REMARK VINA RESULT:    -8.144      2.782      4.073
REMARK INTER + INTRA:         -11.928
REMARK INTER:                 -10.233
REMARK INTRA:                  -1.695
REMARK CONF_INDEPENDENT:        2.088
REMARK UNBOUND:                -1.695
REMARK  7 active torsions:
REMARK  status: ('A' for Active; 'I' for Inactive)
REMARK    1  A    between atoms: C_2  and  N_15 
REMARK    2  A    between atoms: C_3  and  C_4 
REMARK       I    between atoms: C_4  and  N_6 
REMARK    3  A    between atoms: N_6  and  C_7 
REMARK    4  A    between atoms: C_7  and  C_8 
REMARK    5  A    between atoms: N_15  and  N_16 
REMARK       I    between atoms: N_16  and  C_17 
REMARK    6  A    between atoms: C_17  and  C_19 
REMARK       I    between atoms: C_19  and  N_21 
REMARK    7  A    between atoms: N_21  and  C_22 
ROOT
ATOM      1  N   UNL d   1      30.146 -14.262   1.922  0.00  0.00    -0.302 N 
ATOM      2  H   UNL d   1      31.051 -13.823   1.713  0.00  0.00     0.186 HD
ENDROOT
BRANCH   1   3
ATOM      3  C   UNL d   1      29.330 -14.599   0.823  0.00  0.00     0.027 C 
ATOM      4  C   UNL d   1      29.143 -13.471  -0.192  0.00  0.00     0.070 C 
ATOM      5  C   UNL d   1      28.741 -15.807   0.640  0.00  0.00     0.100 C 
BRANCH   5   6
ATOM      6  C   UNL d   1      27.858 -16.206  -0.508  0.00  0.00     0.243 C 
ATOM      7  O   UNL d   1      28.189 -16.967  -1.414  0.00  0.00    -0.269 OA
ATOM      8  N   UNL d   1      26.602 -15.661  -0.506  0.00  0.00    -0.353 N 
ATOM      9  H   UNL d   1      26.282 -15.083   0.256  0.00  0.00     0.163 HD
BRANCH   8  10
ATOM     10  C   UNL d   1      25.702 -16.003  -1.596  0.00  0.00     0.161 C 
BRANCH  10  11
ATOM     11  C   UNL d   1      24.535 -16.861  -1.186  0.00  0.00    -0.040 A 
ATOM     12  C   UNL d   1      24.712 -18.195  -0.790  0.00  0.00     0.010 A 
ATOM     13  C   UNL d   1      23.619 -18.980  -0.429  0.00  0.00     0.024 A 
ATOM     14  C   UNL d   1      22.342 -18.426  -0.418  0.00  0.00     0.034 A 
ATOM     15 CL   UNL d   1      20.998 -19.405   0.018  0.00  0.00    -0.084 Cl
ATOM     16  C   UNL d   1      22.152 -17.087  -0.751  0.00  0.00     0.024 A 
ATOM     17  C   UNL d   1      23.245 -16.306  -1.133  0.00  0.00     0.010 A 
ENDBRANCH  10  11
ENDBRANCH   8  10
ENDBRANCH   5   6
ENDBRANCH   1   3
BRANCH   1  18
ATOM     18  N   UNL d   1      29.876 -14.473   3.296  0.00  0.00    -0.262 N 
ATOM     19  C   UNL d   1      30.368 -13.628   4.301  0.00  0.00     0.328 C 
ATOM     20  O   UNL d   1      31.056 -12.625   4.138  0.00  0.00    -0.261 OA
ATOM     21  H   UNL d   1      29.301 -15.267   3.560  0.00  0.00     0.190 HD
BRANCH  19  22
ATOM     22  C   UNL d   1      29.952 -14.079   5.741  0.00  0.00     0.315 C 
ATOM     23  O   UNL d   1      28.910 -14.722   5.849  0.00  0.00    -0.262 OA
ATOM     24  N   UNL d   1      30.771 -13.659   6.802  0.00  0.00    -0.318 N 
ATOM     25  H   UNL d   1      31.483 -12.966   6.588  0.00  0.00     0.169 HD
BRANCH  24  26
ATOM     26  C   UNL d   1      30.504 -13.969   8.175  0.00  0.00     0.042 A 
ATOM     27  C   UNL d   1      31.379 -14.825   8.864  0.00  0.00     0.030 A 
ATOM     28  C   UNL d   1      31.165 -15.167  10.202  0.00  0.00     0.004 A 
ATOM     29  C   UNL d   1      30.051 -14.684  10.871  0.00  0.00     0.024 A 
ATOM     30  C   UNL d   1      29.166 -13.828  10.213  0.00  0.00     0.042 A 
ATOM     31 CL   UNL d   1      27.779 -13.328  11.126  0.00  0.00    -0.084 Cl
ATOM     32  C   UNL d   1      29.391 -13.427   8.870  0.00  0.00    -0.013 A 
ATOM     33  C   UNL d   1      28.426 -12.503   8.177  0.00  0.00     0.052 C 
ENDBRANCH  24  26
ENDBRANCH  19  22
ENDBRANCH   1  18
TORSDOF 7
ENDMDL
MODEL 6
REMARK VINA RESULT:    -8.141      8.244      9.795
REMARK INTER + INTRA:         -11.984
REMARK INTER:                 -10.229
REMARK INTRA:                  -1.755
REMARK CONF_INDEPENDENT:        2.088
REMARK UNBOUND:                -1.755
REMARK  7 active torsions:
REMARK  status: ('A' for Active; 'I' for Inactive)
REMARK    1  A    between atoms: C_2  and  N_15 
REMARK    2  A    between atoms: C_3  and  C_4 
REMARK       I    between atoms: C_4  and  N_6 
REMARK    3  A    between atoms: N_6  and  C_7 
REMARK    4  A    between atoms: C_7  and  C_8 
REMARK    5  A    between atoms: N_15  and  N_16 
REMARK       I    between atoms: N_16  and  C_17 
REMARK    6  A    between atoms: C_17  and  C_19 
REMARK       I    between atoms: C_19  and  N_21 
REMARK    7  A    between atoms: N_21  and  C_22 
ROOT
ATOM      1  N   UNL d   1      26.194 -11.633  -3.089  0.00  0.00    -0.302 N 
ATOM      2  H   UNL d   1      26.865 -11.132  -2.494  0.00  0.00     0.186 HD
ENDROOT
BRANCH   1   3
ATOM      3  C   UNL d   1      26.041 -13.015  -2.855  0.00  0.00     0.027 C 
ATOM      4  C   UNL d   1      24.946 -13.678  -3.689  0.00  0.00     0.070 C 
ATOM      5  C   UNL d   1      26.780 -13.735  -1.974  0.00  0.00     0.100 C 
BRANCH   5   6
ATOM      6  C   UNL d   1      26.646 -15.204  -1.686  0.00  0.00     0.243 C 
ATOM      7  O   UNL d   1      27.001 -16.101  -2.446  0.00  0.00    -0.269 OA
ATOM      8  N   UNL d   1      26.083 -15.521  -0.479  0.00  0.00    -0.353 N 
ATOM      9  H   UNL d   1      25.838 -14.807   0.190  0.00  0.00     0.163 HD
BRANCH   8  10
ATOM     10  C   UNL d   1      25.918 -16.927  -0.145  0.00  0.00     0.161 C 
BRANCH  10  11
ATOM     11  C   UNL d   1      24.518 -17.447  -0.338  0.00  0.00    -0.040 A 
ATOM     12  C   UNL d   1      23.444 -16.581  -0.586  0.00  0.00     0.010 A 
ATOM     13  C   UNL d   1      22.153 -17.077  -0.748  0.00  0.00     0.024 A 
ATOM     14  C   UNL d   1      21.929 -18.451  -0.706  0.00  0.00     0.034 A 
ATOM     15 CL   UNL d   1      20.330 -19.054  -0.894  0.00  0.00    -0.084 Cl
ATOM     16  C   UNL d   1      22.991 -19.332  -0.519  0.00  0.00     0.024 A 
ATOM     17  C   UNL d   1      24.283 -18.832  -0.337  0.00  0.00     0.010 A 
ENDBRANCH  10  11
ENDBRANCH   8  10
ENDBRANCH   5   6
ENDBRANCH   1   3
BRANCH   1  18
ATOM     18  N   UNL d   1      25.514 -10.838  -4.043  0.00  0.00    -0.262 N 
ATOM     19  C   UNL d   1      25.320  -9.460  -3.877  0.00  0.00     0.328 C 
ATOM     20  O   UNL d   1      25.710  -8.777  -2.934  0.00  0.00    -0.261 OA
ATOM     21  H   UNL d   1      25.155 -11.287  -4.880  0.00  0.00     0.190 HD
BRANCH  19  22
ATOM     22  C   UNL d   1      24.523  -8.805  -5.055  0.00  0.00     0.315 C 
ATOM     23  O   UNL d   1      24.567  -9.370  -6.144  0.00  0.00    -0.262 OA
ATOM     24  N   UNL d   1      23.872  -7.589  -4.785  0.00  0.00    -0.318 N 
ATOM     25  H   UNL d   1      24.088  -7.137  -3.901  0.00  0.00     0.169 HD
BRANCH  24  26
ATOM     26  C   UNL d   1      23.128  -6.859  -5.767  0.00  0.00     0.042 A 
ATOM     27  C   UNL d   1      21.776  -6.566  -5.521  0.00  0.00     0.030 A 
ATOM     28  C   UNL d   1      21.000  -5.862  -6.446  0.00  0.00     0.004 A 
ATOM     29  C   UNL d   1      21.553  -5.463  -7.654  0.00  0.00     0.024 A 
ATOM     30  C   UNL d   1      22.894  -5.737  -7.923  0.00  0.00     0.042 A 
ATOM     31 CL   UNL d   1      23.466  -5.241  -9.484  0.00  0.00    -0.084 Cl
ATOM     32  C   UNL d   1      23.715  -6.405  -6.978  0.00  0.00    -0.013 A 
ATOM     33  C   UNL d   1      25.160  -6.691  -7.287  0.00  0.00     0.052 C 
ENDBRANCH  24  26
ENDBRANCH  19  22
ENDBRANCH   1  18
TORSDOF 7
ENDMDL
MODEL 7
REMARK VINA RESULT:    -8.088      1.606      2.120
REMARK INTER + INTRA:         -11.941
REMARK INTER:                 -10.176
REMARK INTRA:                  -1.765
REMARK CONF_INDEPENDENT:        2.088
REMARK UNBOUND:                -1.765
REMARK  7 active torsions:
REMARK  status: ('A' for Active; 'I' for Inactive)
REMARK    1  A    between atoms: C_2  and  N_15 
REMARK    2  A    between atoms: C_3  and  C_4 
REMARK       I    between atoms: C_4  and  N_6 
REMARK    3  A    between atoms: N_6  and  C_7 
REMARK    4  A    between atoms: C_7  and  C_8 
REMARK    5  A    between atoms: N_15  and  N_16 
REMARK       I    between atoms: N_16  and  C_17 
REMARK    6  A    between atoms: C_17  and  C_19 
REMARK       I    between atoms: C_19  and  N_21 
REMARK    7  A    between atoms: N_21  and  C_22 
ROOT
ATOM      1  N   UNL d   1      26.351 -14.266  -0.764  0.00  0.00    -0.302 N 
ATOM      2  H   UNL d   1      26.575 -13.614  -1.525  0.00  0.00     0.186 HD
ENDROOT
BRANCH   1   3
ATOM      3  C   UNL d   1      25.779 -15.502  -1.128  0.00  0.00     0.027 C 
ATOM      4  C   UNL d   1      26.098 -15.948  -2.555  0.00  0.00     0.070 C 
ATOM      5  C   UNL d   1      25.004 -16.264  -0.316  0.00  0.00     0.100 C 
BRANCH   5   6
ATOM      6  C   UNL d   1      24.367 -17.579  -0.665  0.00  0.00     0.243 C 
ATOM      7  O   UNL d   1      24.870 -18.679  -0.447  0.00  0.00    -0.269 OA
ATOM      8  N   UNL d   1      23.140 -17.501  -1.266  0.00  0.00    -0.353 N 
ATOM      9  H   UNL d   1      22.678 -16.616  -1.402  0.00  0.00     0.163 HD
BRANCH   8  10
ATOM     10  C   UNL d   1      22.475 -18.741  -1.636  0.00  0.00     0.161 C 
BRANCH  10  11
ATOM     11  C   UNL d   1      21.374 -19.154  -0.697  0.00  0.00    -0.040 A 
ATOM     12  C   UNL d   1      21.478 -18.951   0.687  0.00  0.00     0.010 A 
ATOM     13  C   UNL d   1      20.456 -19.353   1.544  0.00  0.00     0.024 A 
ATOM     14  C   UNL d   1      19.299 -19.924   1.021  0.00  0.00     0.034 A 
ATOM     15 CL   UNL d   1      18.048 -20.428   2.086  0.00  0.00    -0.084 Cl
ATOM     16  C   UNL d   1      19.150 -20.081  -0.355  0.00  0.00     0.024 A 
ATOM     17  C   UNL d   1      20.184 -19.696  -1.212  0.00  0.00     0.010 A 
ENDBRANCH  10  11
ENDBRANCH   8  10
ENDBRANCH   5   6
ENDBRANCH   1   3
BRANCH   1  18
ATOM     18  N   UNL d   1      26.676 -13.815   0.539  0.00  0.00    -0.262 N 
ATOM     19  C   UNL d   1      27.479 -14.558   1.416  0.00  0.00     0.328 C 
ATOM     20  O   UNL d   1      28.001 -15.645   1.184  0.00  0.00    -0.261 OA
ATOM     21  H   UNL d   1      26.314 -12.918   0.846  0.00  0.00     0.190 HD
BRANCH  19  22
ATOM     22  C   UNL d   1      27.679 -13.863   2.804  0.00  0.00     0.315 C 
ATOM     23  O   UNL d   1      27.064 -12.818   3.002  0.00  0.00    -0.262 OA
ATOM     24  N   UNL d   1      28.594 -14.457   3.689  0.00  0.00    -0.318 N 
ATOM     25  H   UNL d   1      29.179 -15.200   3.316  0.00  0.00     0.169 HD
BRANCH  24  26
ATOM     26  C   UNL d   1      28.903 -13.922   4.981  0.00  0.00     0.042 A 
ATOM     27  C   UNL d   1      28.630 -14.693   6.123  0.00  0.00     0.030 A 
ATOM     28  C   UNL d   1      28.905 -14.220   7.409  0.00  0.00     0.004 A 
ATOM     29  C   UNL d   1      29.429 -12.948   7.581  0.00  0.00     0.024 A 
ATOM     30  C   UNL d   1      29.714 -12.160   6.465  0.00  0.00     0.042 A 
ATOM     31 CL   UNL d   1      30.315 -10.568   6.799  0.00  0.00    -0.084 Cl
ATOM     32  C   UNL d   1      29.491 -12.640   5.148  0.00  0.00    -0.013 A 
ATOM     33  C   UNL d   1      29.804 -11.776   3.957  0.00  0.00     0.052 C 
ENDBRANCH  24  26
ENDBRANCH  19  22
ENDBRANCH   1  18
TORSDOF 7
ENDMDL
MODEL 8
REMARK VINA RESULT:    -7.989      3.003      4.943
REMARK INTER + INTRA:         -11.854
REMARK INTER:                 -10.077
REMARK INTRA:                  -1.777
REMARK CONF_INDEPENDENT:        2.088
REMARK UNBOUND:                -1.777
REMARK  7 active torsions:
REMARK  status: ('A' for Active; 'I' for Inactive)
REMARK    1  A    between atoms: C_2  and  N_15 
REMARK    2  A    between atoms: C_3  and  C_4 
REMARK       I    between atoms: C_4  and  N_6 
REMARK    3  A    between atoms: N_6  and  C_7 
REMARK    4  A    between atoms: C_7  and  C_8 
REMARK    5  A    between atoms: N_15  and  N_16 
REMARK       I    between atoms: N_16  and  C_17 
REMARK    6  A    between atoms: C_17  and  C_19 
REMARK       I    between atoms: C_19  and  N_21 
REMARK    7  A    between atoms: N_21  and  C_22 
ROOT
ATOM      1  N   UNL d   1      27.918 -12.202   3.622  0.00  0.00    -0.302 N 
ATOM      2  H   UNL d   1      28.104 -11.192   3.623  0.00  0.00     0.186 HD
ENDROOT
BRANCH   1   3
ATOM      3  C   UNL d   1      27.505 -12.774   2.402  0.00  0.00     0.027 C 
ATOM      4  C   UNL d   1      27.079 -11.758   1.342  0.00  0.00     0.070 C 
ATOM      5  C   UNL d   1      27.471 -14.106   2.145  0.00  0.00     0.100 C 
BRANCH   5   6
ATOM      6  C   UNL d   1      27.029 -14.758   0.866  0.00  0.00     0.243 C 
ATOM      7  O   UNL d   1      26.287 -14.238   0.036  0.00  0.00    -0.269 OA
ATOM      8  N   UNL d   1      27.510 -16.021   0.649  0.00  0.00    -0.353 N 
ATOM      9  H   UNL d   1      28.168 -16.448   1.282  0.00  0.00     0.163 HD
BRANCH   8  10
ATOM     10  C   UNL d   1      27.112 -16.709  -0.569  0.00  0.00     0.161 C 
BRANCH  10  11
ATOM     11  C   UNL d   1      25.682 -17.182  -0.571  0.00  0.00    -0.040 A 
ATOM     12  C   UNL d   1      24.645 -16.370  -1.050  0.00  0.00     0.010 A 
ATOM     13  C   UNL d   1      23.325 -16.817  -1.030  0.00  0.00     0.024 A 
ATOM     14  C   UNL d   1      23.036 -18.098  -0.572  0.00  0.00     0.034 A 
ATOM     15 CL   UNL d   1      21.403 -18.638  -0.540  0.00  0.00    -0.084 Cl
ATOM     16  C   UNL d   1      24.058 -18.943  -0.146  0.00  0.00     0.024 A 
ATOM     17  C   UNL d   1      25.379 -18.486  -0.147  0.00  0.00     0.010 A 
ENDBRANCH  10  11
ENDBRANCH   8  10
ENDBRANCH   5   6
ENDBRANCH   1   3
BRANCH   1  18
ATOM     18  N   UNL d   1      28.129 -12.861   4.858  0.00  0.00    -0.262 N 
ATOM     19  C   UNL d   1      28.317 -12.166   6.061  0.00  0.00     0.328 C 
ATOM     20  O   UNL d   1      28.310 -10.947   6.209  0.00  0.00    -0.261 OA
ATOM     21  H   UNL d   1      28.141 -13.876   4.870  0.00  0.00     0.190 HD
BRANCH  19  22
ATOM     22  C   UNL d   1      28.551 -13.112   7.286  0.00  0.00     0.315 C 
ATOM     23  O   UNL d   1      28.530 -14.322   7.073  0.00  0.00    -0.262 OA
ATOM     24  N   UNL d   1      28.705 -12.502   8.543  0.00  0.00    -0.318 N 
ATOM     25  H   UNL d   1      28.498 -11.509   8.601  0.00  0.00     0.169 HD
BRANCH  24  26
ATOM     26  C   UNL d   1      28.897 -13.236   9.757  0.00  0.00     0.042 A 
ATOM     27  C   UNL d   1      28.015 -13.025  10.830  0.00  0.00     0.030 A 
ATOM     28  C   UNL d   1      28.158 -13.708  12.041  0.00  0.00     0.004 A 
ATOM     29  C   UNL d   1      29.209 -14.595  12.215  0.00  0.00     0.024 A 
ATOM     30  C   UNL d   1      30.099 -14.828  11.166  0.00  0.00     0.042 A 
ATOM     31 CL   UNL d   1      31.407 -15.914  11.512  0.00  0.00    -0.084 Cl
ATOM     32  C   UNL d   1      29.944 -14.184   9.910  0.00  0.00    -0.013 A 
ATOM     33  C   UNL d   1      30.913 -14.448   8.791  0.00  0.00     0.052 C 
ENDBRANCH  24  26
ENDBRANCH  19  22
ENDBRANCH   1  18
TORSDOF 7
ENDMDL
MODEL 9
REMARK VINA RESULT:    -7.391      7.402      9.635
REMARK INTER + INTRA:         -11.336
REMARK INTER:                  -9.479
REMARK INTRA:                  -1.856
REMARK CONF_INDEPENDENT:        2.088
REMARK UNBOUND:                -1.856
REMARK  7 active torsions:
REMARK  status: ('A' for Active; 'I' for Inactive)
REMARK    1  A    between atoms: C_2  and  N_15 
REMARK    2  A    between atoms: C_3  and  C_4 
REMARK       I    between atoms: C_4  and  N_6 
REMARK    3  A    between atoms: N_6  and  C_7 
REMARK    4  A    between atoms: C_7  and  C_8 
REMARK    5  A    between atoms: N_15  and  N_16 
REMARK       I    between atoms: N_16  and  C_17 
REMARK    6  A    between atoms: C_17  and  C_19 
REMARK       I    between atoms: C_19  and  N_21 
REMARK    7  A    between atoms: N_21  and  C_22 
ROOT
ATOM      1  N   UNL d   1      25.936 -12.562  -4.697  0.00  0.00    -0.302 N 
ATOM      2  H   UNL d   1      25.158 -12.008  -5.074  0.00  0.00     0.186 HD
ENDROOT
BRANCH   1   3
ATOM      3  C   UNL d   1      25.646 -13.415  -3.613  0.00  0.00     0.027 C 
ATOM      4  C   UNL d   1      24.268 -14.074  -3.680  0.00  0.00     0.070 C 
ATOM      5  C   UNL d   1      26.486 -13.661  -2.576  0.00  0.00     0.100 C 
BRANCH   5   6
ATOM      6  C   UNL d   1      26.215 -14.552  -1.398  0.00  0.00     0.243 C 
ATOM      7  O   UNL d   1      26.276 -14.197  -0.223  0.00  0.00    -0.269 OA
ATOM      8  N   UNL d   1      25.880 -15.845  -1.698  0.00  0.00    -0.353 N 
ATOM      9  H   UNL d   1      25.763 -16.148  -2.653  0.00  0.00     0.163 HD
BRANCH   8  10
ATOM     10  C   UNL d   1      25.613 -16.760  -0.600  0.00  0.00     0.161 C 
BRANCH  10  11
ATOM     11  C   UNL d   1      24.255 -17.408  -0.652  0.00  0.00    -0.040 A 
ATOM     12  C   UNL d   1      24.094 -18.785  -0.444  0.00  0.00     0.010 A 
ATOM     13  C   UNL d   1      22.832 -19.371  -0.512  0.00  0.00     0.024 A 
ATOM     14  C   UNL d   1      21.712 -18.578  -0.744  0.00  0.00     0.034 A 
ATOM     15 CL   UNL d   1      20.159 -19.310  -0.837  0.00  0.00    -0.084 Cl
ATOM     16  C   UNL d   1      21.843 -17.200  -0.894  0.00  0.00     0.024 A 
ATOM     17  C   UNL d   1      23.112 -16.616  -0.847  0.00  0.00     0.010 A 
ENDBRANCH  10  11
ENDBRANCH   8  10
ENDBRANCH   5   6
ENDBRANCH   1   3
BRANCH   1  18
ATOM     18  N   UNL d   1      27.181 -12.387  -5.349  0.00  0.00    -0.262 N 
ATOM     19  C   UNL d   1      27.835 -13.430  -6.019  0.00  0.00     0.328 C 
ATOM     20  O   UNL d   1      27.432 -14.583  -6.144  0.00  0.00    -0.261 OA
ATOM     21  H   UNL d   1      27.612 -11.468  -5.330  0.00  0.00     0.190 HD
BRANCH  19  22
ATOM     22  C   UNL d   1      29.204 -12.996  -6.642  0.00  0.00     0.315 C 
ATOM     23  O   UNL d   1      29.612 -11.870  -6.371  0.00  0.00    -0.262 OA
ATOM     24  N   UNL d   1      29.826 -13.908  -7.511  0.00  0.00    -0.318 N 
ATOM     25  H   UNL d   1      29.279 -14.714  -7.802  0.00  0.00     0.169 HD
BRANCH  24  26
ATOM     26  C   UNL d   1      31.066 -13.642  -8.177  0.00  0.00     0.042 A 
ATOM     27  C   UNL d   1      31.142 -12.562  -9.071  0.00  0.00     0.030 A 
ATOM     28  C   UNL d   1      32.323 -12.258  -9.754  0.00  0.00     0.004 A 
ATOM     29  C   UNL d   1      33.447 -13.053  -9.581  0.00  0.00     0.024 A 
ATOM     30  C   UNL d   1      33.401 -14.131  -8.696  0.00  0.00     0.042 A 
ATOM     31 CL   UNL d   1      34.845 -15.088  -8.599  0.00  0.00    -0.084 Cl
ATOM     32  C   UNL d   1      32.229 -14.427  -7.954  0.00  0.00    -0.013 A 
ATOM     33  C   UNL d   1      32.199 -15.594  -7.005  0.00  0.00     0.052 C 
ENDBRANCH  24  26
ENDBRANCH  19  22
ENDBRANCH   1  18
TORSDOF 7
ENDMDL
