MODEL 1
REMARK VINA RESULT:    -8.149      0.000      0.000
REMARK INTER + INTRA:         -14.796
REMARK INTER:                 -10.834
REMARK INTRA:                  -3.963
REMARK CONF_INDEPENDENT:        2.685
REMARK UNBOUND:                -3.963
REMARK  9 active torsions:
REMARK  status: ('A' for Active; 'I' for Inactive)
REMARK    1  A    between atoms: CG_2  and  CB_4 
REMARK    2  A    between atoms: CA_5  and  CB_4 
REMARK    3  A    between atoms: CA_5  and  C_30 
REMARK    4  A    between atoms: CA_5  and  N_6 
REMARK       I    between atoms: N_6  and  C_7 
REMARK    5  A    between atoms: C_9  and  C_7 
REMARK       I    between atoms: C_30  and  N_32 
REMARK    6  A    between atoms: N_32  and  CA_33 
REMARK    7  A    between atoms: CA_33  and  C_34 
REMARK    8  A    between atoms: CA_33  and  CB_37 
REMARK    9  A    between atoms: CB_37  and  OG1_39 
ROOT
ATOM      1  C   UNK d   0      27.716 -14.789   1.796  0.00  0.00     0.185 C 
ATOM      2  C   UNK d   0      27.348 -13.961   3.035  0.00  0.00     0.076 C 
ATOM      3  C   UNK d   0      28.598 -13.755   3.864  0.00  0.00    -0.018 A 
ATOM      4  C   UNK d   0      29.872 -13.966   3.364  0.00  0.00     0.045 A 
ATOM      5  N   UNK d   0      30.779 -13.682   4.343  0.00  0.00    -0.356 N 
ATOM      6  C   UNK d   0      30.123 -13.289   5.482  0.00  0.00     0.043 A 
ATOM      7  C   UNK d   0      30.642 -12.894   6.717  0.00  0.00     0.030 A 
ATOM      8  C   UNK d   0      29.721 -12.564   7.714  0.00  0.00     0.002 A 
ATOM      9  C   UNK d   0      28.348 -12.628   7.479  0.00  0.00     0.001 A 
ATOM     10  C   UNK d   0      27.849 -13.019   6.234  0.00  0.00     0.014 A 
ATOM     11  C   UNK d   0      28.752 -13.348   5.213  0.00  0.00    -0.001 A 
ATOM     12  C   UNK d   0      30.237 -14.453   2.016  0.00  0.00     0.173 C 
ATOM     13  C   UNK d   0      31.164 -13.570   1.241  0.00  0.00    -0.014 A 
ATOM     14  C   UNK d   0      32.442 -13.130   1.503  0.00  0.00     0.011 A 
ATOM     15  C   UNK d   0      33.053 -12.277   0.574  0.00  0.00     0.001 A 
ATOM     16  C   UNK d   0      32.399 -11.878  -0.605  0.00  0.00     0.001 A 
ATOM     17  C   UNK d   0      31.122 -12.336  -0.881  0.00  0.00     0.017 A 
ATOM     18  C   UNK d   0      30.561 -13.183   0.054  0.00  0.00     0.041 A 
ATOM     19  C   UNK d   0      29.253 -13.771   0.014  0.00  0.00     0.256 C 
ATOM     20  O   UNK d   0      28.567 -13.618  -0.983  0.00  0.00    -0.267 OA
ATOM     21  N   UNK d   0      29.034 -14.399   1.222  0.00  0.00    -0.320 N 
ATOM     22  H   UNK d   0      31.782 -13.736   4.249  0.00  0.00     0.166 HD
ENDROOT
BRANCH   1  23
ATOM     23  C   UNK d   0      26.868 -14.947   0.552  0.00  0.00     0.241 C 
ATOM     24  N   LEU d   1      26.688 -16.208  -0.007  0.00  0.00    -0.346 N 
ATOM     25  H   LEU d   1      27.199 -16.981   0.377  0.00  0.00     0.163 HD
ATOM     26  O   UNK d   0      26.226 -13.925   0.279  0.00  0.00    -0.271 OA
BRANCH  24  27
ATOM     27  CA  LEU d   1      25.623 -16.540  -1.007  0.00  0.00     0.177 C 
BRANCH  27  28
ATOM     28  C   LEU d   1      25.968 -15.822  -2.324  0.00  0.00     0.241 C 
ATOM     29  O   LEU d   1      25.399 -16.121  -3.362  0.00  0.00    -0.271 OA
ATOM     30  N   THR d   2      26.862 -14.797  -2.363  0.00  0.00    -0.343 N 
ATOM     31  H   THR d   2      27.190 -14.353  -1.521  0.00  0.00     0.163 HD
BRANCH  30  32
ATOM     32  CA  THR d   2      27.107 -14.176  -3.714  0.00  0.00     0.214 C 
BRANCH  32  33
ATOM     33  C   THR d   2      27.460 -15.201  -4.912  0.00  0.00     0.199 C 
ATOM     34  O   THR d   2      28.624 -15.698  -4.874  0.00  0.00    -0.646 OA
ATOM     35  OXT THR d   2      26.580 -15.476  -5.774  0.00  0.00    -0.646 OA
ENDBRANCH  32  33
BRANCH  32  36
ATOM     36  CB  THR d   2      25.879 -13.328  -4.109  0.00  0.00     0.147 C 
ATOM     37  CG2 THR d   2      26.189 -12.324  -5.216  0.00  0.00     0.042 C 
BRANCH  36  38
ATOM     38  OG1 THR d   2      24.782 -14.079  -4.645  0.00  0.00    -0.393 OA
ATOM     39  HG1 THR d   2      25.155 -14.858  -5.087  0.00  0.00     0.210 HD
ENDBRANCH  36  38
ENDBRANCH  32  36
ENDBRANCH  30  32
ENDBRANCH  27  28
BRANCH  27  40
ATOM     40  CB  LEU d   1      24.154 -16.328  -0.562  0.00  0.00     0.038 C 
BRANCH  40  41
ATOM     41  CG  LEU d   1      23.395 -17.597  -0.091  0.00  0.00    -0.020 C 
ATOM     42  CD1 LEU d   1      22.145 -17.936  -0.893  0.00  0.00     0.009 C 
ATOM     43  CD2 LEU d   1      24.315 -18.823  -0.163  0.00  0.00     0.009 C 
ENDBRANCH  40  41
ENDBRANCH  27  40
ENDBRANCH  24  27
ENDBRANCH   1  23
TORSDOF 9
ENDMDL
MODEL 2
REMARK VINA RESULT:    -8.090      2.873      4.159
REMARK INTER + INTRA:         -13.946
REMARK INTER:                 -10.775
REMARK INTRA:                  -3.171
REMARK CONF_INDEPENDENT:        2.685
REMARK UNBOUND:                -3.171
REMARK  9 active torsions:
REMARK  status: ('A' for Active; 'I' for Inactive)
REMARK    1  A    between atoms: CG_2  and  CB_4 
REMARK    2  A    between atoms: CA_5  and  CB_4 
REMARK    3  A    between atoms: CA_5  and  C_30 
REMARK    4  A    between atoms: CA_5  and  N_6 
REMARK       I    between atoms: N_6  and  C_7 
REMARK    5  A    between atoms: C_9  and  C_7 
REMARK       I    between atoms: C_30  and  N_32 
REMARK    6  A    between atoms: N_32  and  CA_33 
REMARK    7  A    between atoms: CA_33  and  C_34 
REMARK    8  A    between atoms: CA_33  and  CB_37 
REMARK    9  A    between atoms: CB_37  and  OG1_39 
ROOT
ATOM      1  C   UNK d   0      27.237 -12.757   0.893  0.00  0.00     0.185 C 
ATOM      2  C   UNK d   0      27.817 -11.359   0.639  0.00  0.00     0.076 C 
ATOM      3  C   UNK d   0      27.588 -10.513   1.874  0.00  0.00    -0.018 A 
ATOM      4  C   UNK d   0      27.258 -11.057   3.105  0.00  0.00     0.045 A 
ATOM      5  N   UNK d   0      27.135 -10.045   4.011  0.00  0.00    -0.356 N 
ATOM      6  C   UNK d   0      27.377  -8.842   3.398  0.00  0.00     0.043 A 
ATOM      7  C   UNK d   0      27.376  -7.552   3.935  0.00  0.00     0.030 A 
ATOM      8  C   UNK d   0      27.639  -6.500   3.055  0.00  0.00     0.002 A 
ATOM      9  C   UNK d   0      27.891  -6.735   1.704  0.00  0.00     0.001 A 
ATOM     10  C   UNK d   0      27.895  -8.032   1.189  0.00  0.00     0.014 A 
ATOM     11  C   UNK d   0      27.641  -9.108   2.051  0.00  0.00    -0.001 A 
ATOM     12  C   UNK d   0      27.030 -12.484   3.422  0.00  0.00     0.173 C 
ATOM     13  C   UNK d   0      27.874 -13.040   4.526  0.00  0.00    -0.014 A 
ATOM     14  C   UNK d   0      27.992 -12.693   5.853  0.00  0.00     0.011 A 
ATOM     15  C   UNK d   0      28.902 -13.405   6.646  0.00  0.00     0.001 A 
ATOM     16  C   UNK d   0      29.675 -14.457   6.121  0.00  0.00     0.001 A 
ATOM     17  C   UNK d   0      29.542 -14.822   4.793  0.00  0.00     0.017 A 
ATOM     18  C   UNK d   0      28.627 -14.103   4.050  0.00  0.00     0.041 A 
ATOM     19  C   UNK d   0      28.323 -14.268   2.657  0.00  0.00     0.256 C 
ATOM     20  O   UNK d   0      28.825 -15.199   2.049  0.00  0.00    -0.267 OA
ATOM     21  N   UNK d   0      27.490 -13.235   2.281  0.00  0.00    -0.320 N 
ATOM     22  H   UNK d   0      26.915 -10.155   4.990  0.00  0.00     0.166 HD
ENDROOT
BRANCH   1  23
ATOM     23  C   UNK d   0      27.529 -13.999   0.076  0.00  0.00     0.241 C 
ATOM     24  N   LEU d   1      26.610 -15.042   0.052  0.00  0.00    -0.346 N 
ATOM     25  H   LEU d   1      25.806 -14.989   0.649  0.00  0.00     0.163 HD
ATOM     26  O   UNK d   0      28.497 -13.855  -0.681  0.00  0.00    -0.271 OA
BRANCH  24  27
ATOM     27  CA  LEU d   1      26.620 -16.147  -0.960  0.00  0.00     0.177 C 
BRANCH  27  28
ATOM     28  C   LEU d   1      26.412 -15.520  -2.350  0.00  0.00     0.241 C 
ATOM     29  O   LEU d   1      25.395 -15.746  -2.987  0.00  0.00    -0.271 OA
ATOM     30  N   THR d   2      27.313 -14.650  -2.881  0.00  0.00    -0.343 N 
ATOM     31  H   THR d   2      28.047 -14.248  -2.321  0.00  0.00     0.163 HD
BRANCH  30  32
ATOM     32  CA  THR d   2      26.989 -14.104  -4.247  0.00  0.00     0.214 C 
BRANCH  32  33
ATOM     33  C   THR d   2      26.888 -15.189  -5.439  0.00  0.00     0.199 C 
ATOM     34  O   THR d   2      25.876 -15.949  -5.396  0.00  0.00    -0.646 OA
ATOM     35  OXT THR d   2      27.768 -15.201  -6.345  0.00  0.00    -0.646 OA
ENDBRANCH  32  33
BRANCH  32  36
ATOM     36  CB  THR d   2      25.673 -13.302  -4.169  0.00  0.00     0.147 C 
ATOM     37  CG2 THR d   2      25.614 -12.167  -5.189  0.00  0.00     0.042 C 
BRANCH  36  38
ATOM     38  OG1 THR d   2      24.492 -14.063  -4.457  0.00  0.00    -0.393 OA
ATOM     39  HG1 THR d   2      24.778 -14.892  -4.873  0.00  0.00     0.210 HD
ENDBRANCH  36  38
ENDBRANCH  32  36
ENDBRANCH  30  32
ENDBRANCH  27  28
BRANCH  27  40
ATOM     40  CB  LEU d   1      25.687 -17.354  -0.687  0.00  0.00     0.038 C 
BRANCH  40  41
ATOM     41  CG  LEU d   1      24.270 -17.012  -0.152  0.00  0.00    -0.020 C 
ATOM     42  CD1 LEU d   1      23.377 -16.256  -1.128  0.00  0.00     0.009 C 
ATOM     43  CD2 LEU d   1      23.524 -18.296   0.230  0.00  0.00     0.009 C 
ENDBRANCH  40  41
ENDBRANCH  27  40
ENDBRANCH  24  27
ENDBRANCH   1  23
TORSDOF 9
ENDMDL
MODEL 3
REMARK VINA RESULT:    -7.598      3.735      7.427
REMARK INTER + INTRA:         -13.725
REMARK INTER:                 -10.283
REMARK INTRA:                  -3.442
REMARK CONF_INDEPENDENT:        2.685
REMARK UNBOUND:                -3.442
REMARK  9 active torsions:
REMARK  status: ('A' for Active; 'I' for Inactive)
REMARK    1  A    between atoms: CG_2  and  CB_4 
REMARK    2  A    between atoms: CA_5  and  CB_4 
REMARK    3  A    between atoms: CA_5  and  C_30 
REMARK    4  A    between atoms: CA_5  and  N_6 
REMARK       I    between atoms: N_6  and  C_7 
REMARK    5  A    between atoms: C_9  and  C_7 
REMARK       I    between atoms: C_30  and  N_32 
REMARK    6  A    between atoms: N_32  and  CA_33 
REMARK    7  A    between atoms: CA_33  and  C_34 
REMARK    8  A    between atoms: CA_33  and  CB_37 
REMARK    9  A    between atoms: CB_37  and  OG1_39 
ROOT
ATOM      1  C   UNK d   0      27.284 -13.748  -2.263  0.00  0.00     0.185 C 
ATOM      2  C   UNK d   0      25.944 -14.492  -2.356  0.00  0.00     0.076 C 
ATOM      3  C   UNK d   0      25.907 -15.553  -1.277  0.00  0.00    -0.018 A 
ATOM      4  C   UNK d   0      26.777 -15.556  -0.199  0.00  0.00     0.045 A 
ATOM      5  N   UNK d   0      26.482 -16.622   0.599  0.00  0.00    -0.356 N 
ATOM      6  C   UNK d   0      25.433 -17.325   0.063  0.00  0.00     0.043 A 
ATOM      7  C   UNK d   0      24.791 -18.470   0.540  0.00  0.00     0.030 A 
ATOM      8  C   UNK d   0      23.752 -18.984  -0.239  0.00  0.00     0.002 A 
ATOM      9  C   UNK d   0      23.378 -18.376  -1.437  0.00  0.00     0.001 A 
ATOM     10  C   UNK d   0      24.028 -17.228  -1.893  0.00  0.00     0.014 A 
ATOM     11  C   UNK d   0      25.069 -16.686  -1.127  0.00  0.00    -0.001 A 
ATOM     12  C   UNK d   0      27.879 -14.605   0.067  0.00  0.00     0.173 C 
ATOM     13  C   UNK d   0      27.827 -13.913   1.393  0.00  0.00    -0.014 A 
ATOM     14  C   UNK d   0      27.844 -14.398   2.681  0.00  0.00     0.011 A 
ATOM     15  C   UNK d   0      27.760 -13.481   3.737  0.00  0.00     0.001 A 
ATOM     16  C   UNK d   0      27.672 -12.096   3.507  0.00  0.00     0.001 A 
ATOM     17  C   UNK d   0      27.677 -11.604   2.213  0.00  0.00     0.017 A 
ATOM     18  C   UNK d   0      27.772 -12.540   1.203  0.00  0.00     0.041 A 
ATOM     19  C   UNK d   0      27.773 -12.291  -0.210  0.00  0.00     0.256 C 
ATOM     20  O   UNK d   0      27.799 -11.138  -0.607  0.00  0.00    -0.267 OA
ATOM     21  N   UNK d   0      27.705 -13.509  -0.854  0.00  0.00    -0.320 N 
ATOM     22  H   UNK d   0      26.949 -16.859   1.461  0.00  0.00     0.166 HD
ENDROOT
BRANCH   1  23
ATOM     23  C   UNK d   0      27.608 -12.421  -2.915  0.00  0.00     0.241 C 
ATOM     24  N   LEU d   1      26.628 -11.438  -3.008  0.00  0.00    -0.346 N 
ATOM     25  H   LEU d   1      25.694 -11.661  -2.718  0.00  0.00     0.163 HD
ATOM     26  O   UNK d   0      28.820 -12.270  -3.113  0.00  0.00    -0.271 OA
BRANCH  24  27
ATOM     27  CA  LEU d   1      26.909  -9.998  -3.312  0.00  0.00     0.177 C 
BRANCH  27  28
ATOM     28  C   LEU d   1      26.009  -9.138  -2.407  0.00  0.00     0.241 C 
ATOM     29  O   LEU d   1      24.896  -8.800  -2.778  0.00  0.00    -0.271 OA
ATOM     30  N   THR d   2      26.393  -8.784  -1.151  0.00  0.00    -0.343 N 
ATOM     31  H   THR d   2      27.186  -9.214  -0.703  0.00  0.00     0.163 HD
BRANCH  30  32
ATOM     32  CA  THR d   2      25.419  -7.944  -0.366  0.00  0.00     0.214 C 
BRANCH  32  33
ATOM     33  C   THR d   2      25.528  -8.046   1.242  0.00  0.00     0.199 C 
ATOM     34  O   THR d   2      25.805  -6.963   1.836  0.00  0.00    -0.646 OA
ATOM     35  OXT THR d   2      25.302  -9.150   1.811  0.00  0.00    -0.646 OA
ENDBRANCH  32  33
BRANCH  32  36
ATOM     36  CB  THR d   2      25.564  -6.469  -0.798  0.00  0.00     0.147 C 
ATOM     37  CG2 THR d   2      27.014  -5.991  -0.782  0.00  0.00     0.042 C 
BRANCH  36  38
ATOM     38  OG1 THR d   2      25.144  -6.197  -2.142  0.00  0.00    -0.393 OA
ATOM     39  HG1 THR d   2      24.426  -6.814  -2.350  0.00  0.00     0.210 HD
ENDBRANCH  36  38
ENDBRANCH  32  36
ENDBRANCH  30  32
ENDBRANCH  27  28
BRANCH  27  40
ATOM     40  CB  LEU d   1      26.861  -9.575  -4.802  0.00  0.00     0.038 C 
BRANCH  40  41
ATOM     41  CG  LEU d   1      25.570  -9.954  -5.576  0.00  0.00    -0.020 C 
ATOM     42  CD1 LEU d   1      24.628  -8.792  -5.870  0.00  0.00     0.009 C 
ATOM     43  CD2 LEU d   1      25.928 -10.587  -6.927  0.00  0.00     0.009 C 
ENDBRANCH  40  41
ENDBRANCH  27  40
ENDBRANCH  24  27
ENDBRANCH   1  23
TORSDOF 9
ENDMDL
MODEL 4
REMARK VINA RESULT:    -7.388      4.654      7.498
REMARK INTER + INTRA:         -13.111
REMARK INTER:                 -10.073
REMARK INTRA:                  -3.038
REMARK CONF_INDEPENDENT:        2.685
REMARK UNBOUND:                -3.038
REMARK  9 active torsions:
REMARK  status: ('A' for Active; 'I' for Inactive)
REMARK    1  A    between atoms: CG_2  and  CB_4 
REMARK    2  A    between atoms: CA_5  and  CB_4 
REMARK    3  A    between atoms: CA_5  and  C_30 
REMARK    4  A    between atoms: CA_5  and  N_6 
REMARK       I    between atoms: N_6  and  C_7 
REMARK    5  A    between atoms: C_9  and  C_7 
REMARK       I    between atoms: C_30  and  N_32 
REMARK    6  A    between atoms: N_32  and  CA_33 
REMARK    7  A    between atoms: CA_33  and  C_34 
REMARK    8  A    between atoms: CA_33  and  CB_37 
REMARK    9  A    between atoms: CB_37  and  OG1_39 
ROOT
ATOM      1  C   UNK d   0      28.276 -15.247  -3.671  0.00  0.00     0.185 C 
ATOM      2  C   UNK d   0      29.269 -16.354  -4.049  0.00  0.00     0.076 C 
ATOM      3  C   UNK d   0      29.696 -17.069  -2.784  0.00  0.00    -0.018 A 
ATOM      4  C   UNK d   0      29.003 -16.957  -1.590  0.00  0.00     0.045 A 
ATOM      5  N   UNK d   0      29.623 -17.726  -0.650  0.00  0.00    -0.356 N 
ATOM      6  C   UNK d   0      30.716 -18.343  -1.204  0.00  0.00     0.043 A 
ATOM      7  C   UNK d   0      31.631 -19.225  -0.624  0.00  0.00     0.030 A 
ATOM      8  C   UNK d   0      32.670 -19.683  -1.437  0.00  0.00     0.002 A 
ATOM      9  C   UNK d   0      32.783 -19.274  -2.765  0.00  0.00     0.001 A 
ATOM     10  C   UNK d   0      31.854 -18.397  -3.328  0.00  0.00     0.014 A 
ATOM     11  C   UNK d   0      30.796 -17.928  -2.537  0.00  0.00    -0.001 A 
ATOM     12  C   UNK d   0      27.808 -16.126  -1.321  0.00  0.00     0.173 C 
ATOM     13  C   UNK d   0      26.621 -16.861  -0.783  0.00  0.00    -0.014 A 
ATOM     14  C   UNK d   0      26.445 -17.607   0.361  0.00  0.00     0.011 A 
ATOM     15  C   UNK d   0      25.194 -18.200   0.581  0.00  0.00     0.001 A 
ATOM     16  C   UNK d   0      24.132 -18.041  -0.326  0.00  0.00     0.001 A 
ATOM     17  C   UNK d   0      24.299 -17.275  -1.467  0.00  0.00     0.017 A 
ATOM     18  C   UNK d   0      25.542 -16.699  -1.640  0.00  0.00     0.041 A 
ATOM     19  C   UNK d   0      25.973 -15.887  -2.741  0.00  0.00     0.256 C 
ATOM     20  O   UNK d   0      25.158 -15.557  -3.587  0.00  0.00    -0.267 OA
ATOM     21  N   UNK d   0      27.329 -15.672  -2.603  0.00  0.00    -0.320 N 
ATOM     22  H   UNK d   0      29.324 -17.843   0.306  0.00  0.00     0.166 HD
ENDROOT
BRANCH   1  23
ATOM     23  C   UNK d   0      27.359 -14.515  -4.628  0.00  0.00     0.241 C 
ATOM     24  N   LEU d   1      26.959 -13.213  -4.345  0.00  0.00    -0.346 N 
ATOM     25  H   LEU d   1      27.217 -12.812  -3.463  0.00  0.00     0.163 HD
ATOM     26  O   UNK d   0      27.229 -15.103  -5.709  0.00  0.00    -0.271 OA
BRANCH  24  27
ATOM     27  CA  LEU d   1      26.351 -12.283  -5.350  0.00  0.00     0.177 C 
BRANCH  27  28
ATOM     28  C   LEU d   1      27.435 -11.920  -6.379  0.00  0.00     0.241 C 
ATOM     29  O   LEU d   1      27.537 -10.778  -6.797  0.00  0.00    -0.271 OA
ATOM     30  N   THR d   2      28.349 -12.835  -6.804  0.00  0.00    -0.343 N 
ATOM     31  H   THR d   2      28.464 -13.718  -6.335  0.00  0.00     0.163 HD
BRANCH  30  32
ATOM     32  CA  THR d   2      29.360 -12.351  -7.810  0.00  0.00     0.214 C 
BRANCH  32  33
ATOM     33  C   THR d   2      30.830 -13.013  -7.713  0.00  0.00     0.199 C 
ATOM     34  O   THR d   2      30.976 -13.879  -6.801  0.00  0.00    -0.646 OA
ATOM     35  OXT THR d   2      31.718 -12.678  -8.546  0.00  0.00    -0.646 OA
ENDBRANCH  32  33
BRANCH  32  36
ATOM     36  CB  THR d   2      28.795 -12.559  -9.231  0.00  0.00     0.147 C 
ATOM     37  CG2 THR d   2      27.856 -11.434  -9.661  0.00  0.00     0.042 C 
BRANCH  36  38
ATOM     38  OG1 THR d   2      29.783 -12.575 -10.270  0.00  0.00    -0.393 OA
ATOM     39  HG1 THR d   2      30.372 -13.326 -10.096  0.00  0.00     0.210 HD
ENDBRANCH  36  38
ENDBRANCH  32  36
ENDBRANCH  30  32
ENDBRANCH  27  28
BRANCH  27  40
ATOM     40  CB  LEU d   1      25.597 -11.049  -4.794  0.00  0.00     0.038 C 
BRANCH  40  41
ATOM     41  CG  LEU d   1      26.482  -9.929  -4.182  0.00  0.00    -0.020 C 
ATOM     42  CD1 LEU d   1      25.750  -8.958  -3.264  0.00  0.00     0.009 C 
ATOM     43  CD2 LEU d   1      27.622 -10.544  -3.360  0.00  0.00     0.009 C 
ENDBRANCH  40  41
ENDBRANCH  27  40
ENDBRANCH  24  27
ENDBRANCH   1  23
TORSDOF 9
ENDMDL
MODEL 5
REMARK VINA RESULT:    -7.356      3.418      7.515
REMARK INTER + INTRA:         -13.771
REMARK INTER:                 -10.040
REMARK INTRA:                  -3.731
REMARK CONF_INDEPENDENT:        2.685
REMARK UNBOUND:                -3.731
REMARK  9 active torsions:
REMARK  status: ('A' for Active; 'I' for Inactive)
REMARK    1  A    between atoms: CG_2  and  CB_4 
REMARK    2  A    between atoms: CA_5  and  CB_4 
REMARK    3  A    between atoms: CA_5  and  C_30 
REMARK    4  A    between atoms: CA_5  and  N_6 
REMARK       I    between atoms: N_6  and  C_7 
REMARK    5  A    between atoms: C_9  and  C_7 
REMARK       I    between atoms: C_30  and  N_32 
REMARK    6  A    between atoms: N_32  and  CA_33 
REMARK    7  A    between atoms: CA_33  and  C_34 
REMARK    8  A    between atoms: CA_33  and  CB_37 
REMARK    9  A    between atoms: CB_37  and  OG1_39 
ROOT
ATOM      1  C   UNK d   0      26.303 -13.568  -3.232  0.00  0.00     0.185 C 
ATOM      2  C   UNK d   0      25.059 -14.079  -2.491  0.00  0.00     0.076 C 
ATOM      3  C   UNK d   0      25.398 -15.404  -1.841  0.00  0.00    -0.018 A 
ATOM      4  C   UNK d   0      26.701 -15.839  -1.660  0.00  0.00     0.045 A 
ATOM      5  N   UNK d   0      26.675 -17.052  -1.038  0.00  0.00    -0.356 N 
ATOM      6  C   UNK d   0      25.376 -17.426  -0.807  0.00  0.00     0.043 A 
ATOM      7  C   UNK d   0      24.876 -18.575  -0.188  0.00  0.00     0.030 A 
ATOM      8  C   UNK d   0      23.487 -18.699  -0.112  0.00  0.00     0.002 A 
ATOM      9  C   UNK d   0      22.645 -17.717  -0.631  0.00  0.00     0.001 A 
ATOM     10  C   UNK d   0      23.164 -16.573  -1.239  0.00  0.00     0.014 A 
ATOM     11  C   UNK d   0      24.555 -16.419  -1.323  0.00  0.00    -0.001 A 
ATOM     12  C   UNK d   0      27.942 -15.155  -2.087  0.00  0.00     0.173 C 
ATOM     13  C   UNK d   0      28.939 -14.895  -1.001  0.00  0.00    -0.014 A 
ATOM     14  C   UNK d   0      29.617 -15.744  -0.157  0.00  0.00     0.011 A 
ATOM     15  C   UNK d   0      30.488 -15.185   0.788  0.00  0.00     0.001 A 
ATOM     16  C   UNK d   0      30.686 -13.796   0.879  0.00  0.00     0.001 A 
ATOM     17  C   UNK d   0      30.022 -12.941   0.017  0.00  0.00     0.017 A 
ATOM     18  C   UNK d   0      29.183 -13.533  -0.905  0.00  0.00     0.041 A 
ATOM     19  C   UNK d   0      28.371 -12.870  -1.886  0.00  0.00     0.256 C 
ATOM     20  O   UNK d   0      28.479 -11.663  -2.026  0.00  0.00    -0.267 OA
ATOM     21  N   UNK d   0      27.560 -13.819  -2.474  0.00  0.00    -0.320 N 
ATOM     22  H   UNK d   0      27.483 -17.593  -0.770  0.00  0.00     0.166 HD
ENDROOT
BRANCH   1  23
ATOM     23  C   UNK d   0      26.517 -12.156  -3.734  0.00  0.00     0.241 C 
ATOM     24  N   LEU d   1      25.865 -11.095  -3.114  0.00  0.00    -0.346 N 
ATOM     25  H   LEU d   1      25.192 -11.296  -2.398  0.00  0.00     0.163 HD
ATOM     26  O   UNK d   0      27.452 -12.072  -4.539  0.00  0.00    -0.271 OA
BRANCH  24  27
ATOM     27  CA  LEU d   1      26.247  -9.657  -3.288  0.00  0.00     0.177 C 
BRANCH  27  28
ATOM     28  C   LEU d   1      26.838  -9.158  -1.957  0.00  0.00     0.241 C 
ATOM     29  O   LEU d   1      28.041  -8.993  -1.836  0.00  0.00    -0.271 OA
ATOM     30  N   THR d   2      26.042  -8.826  -0.905  0.00  0.00    -0.343 N 
ATOM     31  H   THR d   2      25.046  -8.720  -1.012  0.00  0.00     0.163 HD
BRANCH  30  32
ATOM     32  CA  THR d   2      26.744  -8.347   0.338  0.00  0.00     0.214 C 
BRANCH  32  33
ATOM     33  C   THR d   2      25.870  -7.429   1.340  0.00  0.00     0.199 C 
ATOM     34  O   THR d   2      24.780  -6.995   0.863  0.00  0.00    -0.646 OA
ATOM     35  OXT THR d   2      26.280  -7.230   2.517  0.00  0.00    -0.646 OA
ENDBRANCH  32  33
BRANCH  32  36
ATOM     36  CB  THR d   2      27.293  -9.568   1.108  0.00  0.00     0.147 C 
ATOM     37  CG2 THR d   2      26.291 -10.128   2.115  0.00  0.00     0.042 C 
BRANCH  36  38
ATOM     38  OG1 THR d   2      27.600 -10.702   0.287  0.00  0.00    -0.393 OA
ATOM     39  HG1 THR d   2      28.094 -10.376  -0.482  0.00  0.00     0.210 HD
ENDBRANCH  36  38
ENDBRANCH  32  36
ENDBRANCH  30  32
ENDBRANCH  27  28
BRANCH  27  40
ATOM     40  CB  LEU d   1      25.166  -8.711  -3.870  0.00  0.00     0.038 C 
BRANCH  40  41
ATOM     41  CG  LEU d   1      25.085  -8.640  -5.418  0.00  0.00    -0.020 C 
ATOM     42  CD1 LEU d   1      25.414  -9.941  -6.142  0.00  0.00     0.009 C 
ATOM     43  CD2 LEU d   1      23.673  -8.233  -5.858  0.00  0.00     0.009 C 
ENDBRANCH  40  41
ENDBRANCH  27  40
ENDBRANCH  24  27
ENDBRANCH   1  23
TORSDOF 9
ENDMDL
MODEL 6
REMARK VINA RESULT:    -7.091      3.800      7.524
REMARK INTER + INTRA:         -13.454
REMARK INTER:                  -9.775
REMARK INTRA:                  -3.679
REMARK CONF_INDEPENDENT:        2.685
REMARK UNBOUND:                -3.679
REMARK  9 active torsions:
REMARK  status: ('A' for Active; 'I' for Inactive)
REMARK    1  A    between atoms: CG_2  and  CB_4 
REMARK    2  A    between atoms: CA_5  and  CB_4 
REMARK    3  A    between atoms: CA_5  and  C_30 
REMARK    4  A    between atoms: CA_5  and  N_6 
REMARK       I    between atoms: N_6  and  C_7 
REMARK    5  A    between atoms: C_9  and  C_7 
REMARK       I    between atoms: C_30  and  N_32 
REMARK    6  A    between atoms: N_32  and  CA_33 
REMARK    7  A    between atoms: CA_33  and  C_34 
REMARK    8  A    between atoms: CA_33  and  CB_37 
REMARK    9  A    between atoms: CB_37  and  OG1_39 
ROOT
ATOM      1  C   UNK d   0      27.612 -13.147  -1.784  0.00  0.00     0.185 C 
ATOM      2  C   UNK d   0      26.264 -13.854  -1.979  0.00  0.00     0.076 C 
ATOM      3  C   UNK d   0      26.223 -15.068  -1.075  0.00  0.00    -0.018 A 
ATOM      4  C   UNK d   0      27.100 -15.245  -0.018  0.00  0.00     0.045 A 
ATOM      5  N   UNK d   0      26.799 -16.419   0.608  0.00  0.00    -0.356 N 
ATOM      6  C   UNK d   0      25.739 -17.020  -0.020  0.00  0.00     0.043 A 
ATOM      7  C   UNK d   0      25.088 -18.219   0.281  0.00  0.00     0.030 A 
ATOM      8  C   UNK d   0      24.037 -18.597  -0.558  0.00  0.00     0.002 A 
ATOM      9  C   UNK d   0      23.662 -17.808  -1.645  0.00  0.00     0.001 A 
ATOM     10  C   UNK d   0      24.321 -16.610  -1.925  0.00  0.00     0.014 A 
ATOM     11  C   UNK d   0      25.374 -16.203  -1.094  0.00  0.00    -0.001 A 
ATOM     12  C   UNK d   0      28.215 -14.358   0.380  0.00  0.00     0.173 C 
ATOM     13  C   UNK d   0      28.181 -13.878   1.798  0.00  0.00    -0.014 A 
ATOM     14  C   UNK d   0      28.201 -14.556   2.995  0.00  0.00     0.011 A 
ATOM     15  C   UNK d   0      28.136 -13.811   4.180  0.00  0.00     0.001 A 
ATOM     16  C   UNK d   0      28.061 -12.406   4.167  0.00  0.00     0.001 A 
ATOM     17  C   UNK d   0      28.062 -11.721   2.965  0.00  0.00     0.017 A 
ATOM     18  C   UNK d   0      28.139 -12.492   1.822  0.00  0.00     0.041 A 
ATOM     19  C   UNK d   0      28.133 -12.028   0.464  0.00  0.00     0.256 C 
ATOM     20  O   UNK d   0      28.169 -10.828   0.249  0.00  0.00    -0.267 OA
ATOM     21  N   UNK d   0      28.046 -13.132  -0.359  0.00  0.00    -0.320 N 
ATOM     22  H   UNK d   0      27.270 -16.791   1.419  0.00  0.00     0.166 HD
ENDROOT
BRANCH   1  23
ATOM     23  C   UNK d   0      27.946 -11.738  -2.228  0.00  0.00     0.241 C 
ATOM     24  N   LEU d   1      26.923 -10.828  -2.470  0.00  0.00    -0.346 N 
ATOM     25  H   LEU d   1      25.974 -11.150  -2.430  0.00  0.00     0.163 HD
ATOM     26  O   UNK d   0      29.151 -11.476  -2.117  0.00  0.00    -0.271 OA
BRANCH  24  27
ATOM     27  CA  LEU d   1      27.124  -9.347  -2.576  0.00  0.00     0.177 C 
BRANCH  27  28
ATOM     28  C   LEU d   1      26.722  -8.715  -1.232  0.00  0.00     0.241 C 
ATOM     29  O   LEU d   1      25.548  -8.499  -0.974  0.00  0.00    -0.271 OA
ATOM     30  N   THR d   2      27.644  -8.440  -0.270  0.00  0.00    -0.343 N 
ATOM     31  H   THR d   2      28.583  -8.800  -0.325  0.00  0.00     0.163 HD
BRANCH  30  32
ATOM     32  CA  THR d   2      27.120  -7.826   1.002  0.00  0.00     0.214 C 
BRANCH  32  33
ATOM     33  C   THR d   2      26.168  -6.533   0.826  0.00  0.00     0.199 C 
ATOM     34  O   THR d   2      26.499  -5.739  -0.102  0.00  0.00    -0.646 OA
ATOM     35  OXT THR d   2      25.155  -6.402   1.569  0.00  0.00    -0.646 OA
ENDBRANCH  32  33
BRANCH  32  36
ATOM     36  CB  THR d   2      26.373  -8.908   1.811  0.00  0.00     0.147 C 
ATOM     37  CG2 THR d   2      26.655  -8.821   3.310  0.00  0.00     0.042 C 
BRANCH  36  38
ATOM     38  OG1 THR d   2      24.944  -8.825   1.743  0.00  0.00    -0.393 OA
ATOM     39  HG1 THR d   2      24.724  -8.268   0.979  0.00  0.00     0.210 HD
ENDBRANCH  36  38
ENDBRANCH  32  36
ENDBRANCH  30  32
ENDBRANCH  27  28
BRANCH  27  40
ATOM     40  CB  LEU d   1      26.486  -8.641  -3.799  0.00  0.00     0.038 C 
BRANCH  40  41
ATOM     41  CG  LEU d   1      25.280  -9.368  -4.452  0.00  0.00    -0.020 C 
ATOM     42  CD1 LEU d   1      24.233  -8.451  -5.075  0.00  0.00     0.009 C 
ATOM     43  CD2 LEU d   1      25.765 -10.307  -5.564  0.00  0.00     0.009 C 
ENDBRANCH  40  41
ENDBRANCH  27  40
ENDBRANCH  24  27
ENDBRANCH   1  23
TORSDOF 9
ENDMDL
MODEL 7
REMARK VINA RESULT:    -6.978      2.982      8.338
REMARK INTER + INTRA:         -13.091
REMARK INTER:                  -9.663
REMARK INTRA:                  -3.428
REMARK CONF_INDEPENDENT:        2.685
REMARK UNBOUND:                -3.428
REMARK  9 active torsions:
REMARK  status: ('A' for Active; 'I' for Inactive)
REMARK    1  A    between atoms: CG_2  and  CB_4 
REMARK    2  A    between atoms: CA_5  and  CB_4 
REMARK    3  A    between atoms: CA_5  and  C_30 
REMARK    4  A    between atoms: CA_5  and  N_6 
REMARK       I    between atoms: N_6  and  C_7 
REMARK    5  A    between atoms: C_9  and  C_7 
REMARK       I    between atoms: C_30  and  N_32 
REMARK    6  A    between atoms: N_32  and  CA_33 
REMARK    7  A    between atoms: CA_33  and  C_34 
REMARK    8  A    between atoms: CA_33  and  CB_37 
REMARK    9  A    between atoms: CB_37  and  OG1_39 
ROOT
ATOM      1  C   UNK d   0      26.509 -14.423  -5.026  0.00  0.00     0.185 C 
ATOM      2  C   UNK d   0      27.973 -14.821  -5.258  0.00  0.00     0.076 C 
ATOM      3  C   UNK d   0      28.582 -13.852  -6.249  0.00  0.00    -0.018 A 
ATOM      4  C   UNK d   0      28.000 -12.634  -6.562  0.00  0.00     0.045 A 
ATOM      5  N   UNK d   0      28.792 -11.990  -7.467  0.00  0.00    -0.356 N 
ATOM      6  C   UNK d   0      29.886 -12.765  -7.758  0.00  0.00     0.043 A 
ATOM      7  C   UNK d   0      30.960 -12.504  -8.614  0.00  0.00     0.030 A 
ATOM      8  C   UNK d   0      31.932 -13.500  -8.730  0.00  0.00     0.002 A 
ATOM      9  C   UNK d   0      31.830 -14.696  -8.020  0.00  0.00     0.001 A 
ATOM     10  C   UNK d   0      30.753 -14.934  -7.164  0.00  0.00     0.014 A 
ATOM     11  C   UNK d   0      29.766 -13.948  -7.023  0.00  0.00    -0.001 A 
ATOM     12  C   UNK d   0      26.719 -12.096  -6.055  0.00  0.00     0.173 C 
ATOM     13  C   UNK d   0      26.799 -10.754  -5.398  0.00  0.00    -0.014 A 
ATOM     14  C   UNK d   0      27.207  -9.526  -5.870  0.00  0.00     0.011 A 
ATOM     15  C   UNK d   0      27.185  -8.437  -4.988  0.00  0.00     0.001 A 
ATOM     16  C   UNK d   0      26.753  -8.572  -3.657  0.00  0.00     0.001 A 
ATOM     17  C   UNK d   0      26.322  -9.800  -3.187  0.00  0.00     0.017 A 
ATOM     18  C   UNK d   0      26.348 -10.844  -4.090  0.00  0.00     0.041 A 
ATOM     19  C   UNK d   0      25.979 -12.209  -3.845  0.00  0.00     0.256 C 
ATOM     20  O   UNK d   0      25.485 -12.504  -2.770  0.00  0.00    -0.267 OA
ATOM     21  N   UNK d   0      26.324 -12.946  -4.959  0.00  0.00    -0.320 N 
ATOM     22  H   UNK d   0      28.616 -11.077  -7.858  0.00  0.00     0.166 HD
ENDROOT
BRANCH   1  23
ATOM     23  C   UNK d   0      25.631 -14.900  -3.888  0.00  0.00     0.241 C 
ATOM     24  N   LEU d   1      26.201 -15.552  -2.800  0.00  0.00    -0.346 N 
ATOM     25  H   LEU d   1      27.179 -15.774  -2.831  0.00  0.00     0.163 HD
ATOM     26  O   UNK d   0      24.480 -14.450  -3.953  0.00  0.00    -0.271 OA
BRANCH  24  27
ATOM     27  CA  LEU d   1      25.509 -15.761  -1.488  0.00  0.00     0.177 C 
BRANCH  27  28
ATOM     28  C   LEU d   1      26.308 -15.013  -0.406  0.00  0.00     0.241 C 
ATOM     29  O   LEU d   1      26.694 -15.596   0.595  0.00  0.00    -0.271 OA
ATOM     30  N   THR d   2      26.662 -13.708  -0.557  0.00  0.00    -0.343 N 
ATOM     31  H   THR d   2      26.577 -13.240  -1.444  0.00  0.00     0.163 HD
BRANCH  30  32
ATOM     32  CA  THR d   2      27.446 -13.094   0.574  0.00  0.00     0.214 C 
BRANCH  32  33
ATOM     33  C   THR d   2      28.269 -11.750   0.219  0.00  0.00     0.199 C 
ATOM     34  O   THR d   2      28.187 -11.367  -0.985  0.00  0.00    -0.646 OA
ATOM     35  OXT THR d   2      28.898 -11.148   1.133  0.00  0.00    -0.646 OA
ENDBRANCH  32  33
BRANCH  32  36
ATOM     36  CB  THR d   2      26.491 -12.815   1.755  0.00  0.00     0.147 C 
ATOM     37  CG2 THR d   2      27.036 -13.328   3.086  0.00  0.00     0.042 C 
BRANCH  36  38
ATOM     38  OG1 THR d   2      26.251 -11.426   2.013  0.00  0.00    -0.393 OA
ATOM     39  HG1 THR d   2      27.096 -11.033   2.284  0.00  0.00     0.210 HD
ENDBRANCH  36  38
ENDBRANCH  32  36
ENDBRANCH  30  32
ENDBRANCH  27  28
BRANCH  27  40
ATOM     40  CB  LEU d   1      25.174 -17.223  -1.100  0.00  0.00     0.038 C 
BRANCH  40  41
ATOM     41  CG  LEU d   1      23.880 -17.427  -0.267  0.00  0.00    -0.020 C 
ATOM     42  CD1 LEU d   1      22.780 -16.402  -0.522  0.00  0.00     0.009 C 
ATOM     43  CD2 LEU d   1      23.275 -18.807  -0.554  0.00  0.00     0.009 C 
ENDBRANCH  40  41
ENDBRANCH  27  40
ENDBRANCH  24  27
ENDBRANCH   1  23
TORSDOF 9
ENDMDL
MODEL 8
REMARK VINA RESULT:    -6.825      2.528      3.174
REMARK INTER + INTRA:         -13.249
REMARK INTER:                  -9.510
REMARK INTRA:                  -3.739
REMARK CONF_INDEPENDENT:        2.685
REMARK UNBOUND:                -3.739
REMARK  9 active torsions:
REMARK  status: ('A' for Active; 'I' for Inactive)
REMARK    1  A    between atoms: CG_2  and  CB_4 
REMARK    2  A    between atoms: CA_5  and  CB_4 
REMARK    3  A    between atoms: CA_5  and  C_30 
REMARK    4  A    between atoms: CA_5  and  N_6 
REMARK       I    between atoms: N_6  and  C_7 
REMARK    5  A    between atoms: C_9  and  C_7 
REMARK       I    between atoms: C_30  and  N_32 
REMARK    6  A    between atoms: N_32  and  CA_33 
REMARK    7  A    between atoms: CA_33  and  C_34 
REMARK    8  A    between atoms: CA_33  and  CB_37 
REMARK    9  A    between atoms: CB_37  and  OG1_39 
ROOT
ATOM      1  C   UNK d   0      28.406 -13.871   2.352  0.00  0.00     0.185 C 
ATOM      2  C   UNK d   0      28.030 -14.173   3.809  0.00  0.00     0.076 C 
ATOM      3  C   UNK d   0      28.565 -13.059   4.684  0.00  0.00    -0.018 A 
ATOM      4  C   UNK d   0      28.975 -11.838   4.176  0.00  0.00     0.045 A 
ATOM      5  N   UNK d   0      29.387 -11.050   5.210  0.00  0.00    -0.356 N 
ATOM      6  C   UNK d   0      29.258 -11.733   6.393  0.00  0.00     0.043 A 
ATOM      7  C   UNK d   0      29.544 -11.319   7.696  0.00  0.00     0.030 A 
ATOM      8  C   UNK d   0      29.332 -12.250   8.716  0.00  0.00     0.002 A 
ATOM      9  C   UNK d   0      28.856 -13.530   8.438  0.00  0.00     0.001 A 
ATOM     10  C   UNK d   0      28.569 -13.921   7.128  0.00  0.00     0.014 A 
ATOM     11  C   UNK d   0      28.766 -13.005   6.086  0.00  0.00    -0.001 A 
ATOM     12  C   UNK d   0      29.012 -11.424   2.756  0.00  0.00     0.173 C 
ATOM     13  C   UNK d   0      28.255 -10.175   2.429  0.00  0.00    -0.014 A 
ATOM     14  C   UNK d   0      28.384  -8.881   2.880  0.00  0.00     0.011 A 
ATOM     15  C   UNK d   0      27.493  -7.916   2.391  0.00  0.00     0.001 A 
ATOM     16  C   UNK d   0      26.494  -8.239   1.456  0.00  0.00     0.001 A 
ATOM     17  C   UNK d   0      26.376  -9.535   0.984  0.00  0.00     0.017 A 
ATOM     18  C   UNK d   0      27.280 -10.452   1.483  0.00  0.00     0.041 A 
ATOM     19  C   UNK d   0      27.352 -11.851   1.173  0.00  0.00     0.256 C 
ATOM     20  O   UNK d   0      26.625 -12.303   0.304  0.00  0.00    -0.267 OA
ATOM     21  N   UNK d   0      28.279 -12.424   2.019  0.00  0.00    -0.320 N 
ATOM     22  H   UNK d   0      29.724 -10.102   5.130  0.00  0.00     0.166 HD
ENDROOT
BRANCH   1  23
ATOM     23  C   UNK d   0      27.804 -14.526   1.127  0.00  0.00     0.241 C 
ATOM     24  N   LEU d   1      28.618 -15.240   0.253  0.00  0.00    -0.346 N 
ATOM     25  H   LEU d   1      29.609 -15.232   0.406  0.00  0.00     0.163 HD
ATOM     26  O   UNK d   0      26.567 -14.536   1.150  0.00  0.00    -0.271 OA
BRANCH  24  27
ATOM     27  CA  LEU d   1      28.107 -16.198  -0.779  0.00  0.00     0.177 C 
BRANCH  27  28
ATOM     28  C   LEU d   1      27.631 -15.379  -1.992  0.00  0.00     0.241 C 
ATOM     29  O   LEU d   1      27.890 -15.744  -3.128  0.00  0.00    -0.271 OA
ATOM     30  N   THR d   2      26.857 -14.269  -1.843  0.00  0.00    -0.343 N 
ATOM     31  H   THR d   2      26.421 -14.048  -0.963  0.00  0.00     0.163 HD
BRANCH  30  32
ATOM     32  CA  THR d   2      26.455 -13.561  -3.110  0.00  0.00     0.214 C 
BRANCH  32  33
ATOM     33  C   THR d   2      25.267 -14.250  -3.961  0.00  0.00     0.199 C 
ATOM     34  O   THR d   2      24.125 -13.721  -3.822  0.00  0.00    -0.646 OA
ATOM     35  OXT THR d   2      25.531 -15.219  -4.725  0.00  0.00    -0.646 OA
ENDBRANCH  32  33
BRANCH  32  36
ATOM     36  CB  THR d   2      26.068 -12.106  -2.772  0.00  0.00     0.147 C 
ATOM     37  CG2 THR d   2      27.264 -11.267  -2.326  0.00  0.00     0.042 C 
BRANCH  36  38
ATOM     38  OG1 THR d   2      25.536 -11.358  -3.873  0.00  0.00    -0.393 OA
ATOM     39  HG1 THR d   2      24.653 -11.712  -4.062  0.00  0.00     0.210 HD
ENDBRANCH  36  38
ENDBRANCH  32  36
ENDBRANCH  30  32
ENDBRANCH  27  28
BRANCH  27  40
ATOM     40  CB  LEU d   1      27.072 -17.249  -0.306  0.00  0.00     0.038 C 
BRANCH  40  41
ATOM     41  CG  LEU d   1      25.581 -16.899  -0.560  0.00  0.00    -0.020 C 
ATOM     42  CD1 LEU d   1      25.124 -17.035  -2.008  0.00  0.00     0.009 C 
ATOM     43  CD2 LEU d   1      24.673 -17.807   0.279  0.00  0.00     0.009 C 
ENDBRANCH  40  41
ENDBRANCH  27  40
ENDBRANCH  24  27
ENDBRANCH   1  23
TORSDOF 9
ENDMDL
MODEL 9
REMARK VINA RESULT:    -6.707      4.019      7.780
REMARK INTER + INTRA:         -13.583
REMARK INTER:                  -9.391
REMARK INTRA:                  -4.192
REMARK CONF_INDEPENDENT:        2.685
REMARK UNBOUND:                -4.192
REMARK  9 active torsions:
REMARK  status: ('A' for Active; 'I' for Inactive)
REMARK    1  A    between atoms: CG_2  and  CB_4 
REMARK    2  A    between atoms: CA_5  and  CB_4 
REMARK    3  A    between atoms: CA_5  and  C_30 
REMARK    4  A    between atoms: CA_5  and  N_6 
REMARK       I    between atoms: N_6  and  C_7 
REMARK    5  A    between atoms: C_9  and  C_7 
REMARK       I    between atoms: C_30  and  N_32 
REMARK    6  A    between atoms: N_32  and  CA_33 
REMARK    7  A    between atoms: CA_33  and  C_34 
REMARK    8  A    between atoms: CA_33  and  CB_37 
REMARK    9  A    between atoms: CB_37  and  OG1_39 
ROOT
ATOM      1  C   UNK d   0      27.960 -12.188  -0.149  0.00  0.00     0.185 C 
ATOM      2  C   UNK d   0      26.746 -13.006  -0.610  0.00  0.00     0.076 C 
ATOM      3  C   UNK d   0      26.851 -14.396  -0.019  0.00  0.00    -0.018 A 
ATOM      4  C   UNK d   0      27.696 -14.701   1.035  0.00  0.00     0.045 A 
ATOM      5  N   UNK d   0      27.550 -16.021   1.346  0.00  0.00    -0.356 N 
ATOM      6  C   UNK d   0      26.624 -16.593   0.512  0.00  0.00     0.043 A 
ATOM      7  C   UNK d   0      26.151 -17.907   0.473  0.00  0.00     0.030 A 
ATOM      8  C   UNK d   0      25.211 -18.213  -0.513  0.00  0.00     0.002 A 
ATOM      9  C   UNK d   0      24.768 -17.245  -1.414  0.00  0.00     0.001 A 
ATOM     10  C   UNK d   0      25.248 -15.935  -1.354  0.00  0.00     0.014 A 
ATOM     11  C   UNK d   0      26.187 -15.599  -0.369  0.00  0.00    -0.001 A 
ATOM     12  C   UNK d   0      28.642 -13.790   1.718  0.00  0.00     0.173 C 
ATOM     13  C   UNK d   0      28.470 -13.676   3.200  0.00  0.00    -0.014 A 
ATOM     14  C   UNK d   0      28.539 -14.613   4.206  0.00  0.00     0.011 A 
ATOM     15  C   UNK d   0      28.306 -14.192   5.522  0.00  0.00     0.001 A 
ATOM     16  C   UNK d   0      28.017 -12.851   5.829  0.00  0.00     0.001 A 
ATOM     17  C   UNK d   0      27.968 -11.902   4.822  0.00  0.00     0.017 A 
ATOM     18  C   UNK d   0      28.215 -12.356   3.542  0.00  0.00     0.041 A 
ATOM     19  C   UNK d   0      28.199 -11.584   2.332  0.00  0.00     0.256 C 
ATOM     20  O   UNK d   0      28.061 -10.374   2.405  0.00  0.00    -0.267 OA
ATOM     21  N   UNK d   0      28.321 -12.458   1.272  0.00  0.00    -0.320 N 
ATOM     22  H   UNK d   0      28.035 -16.508   2.085  0.00  0.00     0.166 HD
ENDROOT
BRANCH   1  23
ATOM     23  C   UNK d   0      28.094 -10.682  -0.225  0.00  0.00     0.241 C 
ATOM     24  N   LEU d   1      29.253 -10.116  -0.745  0.00  0.00    -0.346 N 
ATOM     25  H   LEU d   1      30.019 -10.719  -0.980  0.00  0.00     0.163 HD
ATOM     26  O   UNK d   0      27.026 -10.096  -0.003  0.00  0.00    -0.271 OA
BRANCH  24  27
ATOM     27  CA  LEU d   1      29.368  -8.687  -1.182  0.00  0.00     0.177 C 
BRANCH  27  28
ATOM     28  C   LEU d   1      28.539  -7.826  -0.212  0.00  0.00     0.241 C 
ATOM     29  O   LEU d   1      28.011  -6.794  -0.594  0.00  0.00    -0.271 OA
ATOM     30  N   THR d   2      28.316  -8.215   1.073  0.00  0.00    -0.343 N 
ATOM     31  H   THR d   2      28.525  -9.150   1.382  0.00  0.00     0.163 HD
BRANCH  30  32
ATOM     32  CA  THR d   2      27.486  -7.284   1.917  0.00  0.00     0.214 C 
BRANCH  32  33
ATOM     33  C   THR d   2      25.890  -7.333   1.670  0.00  0.00     0.199 C 
ATOM     34  O   THR d   2      25.360  -8.478   1.783  0.00  0.00    -0.646 OA
ATOM     35  OXT THR d   2      25.266  -6.264   1.424  0.00  0.00    -0.646 OA
ENDBRANCH  32  33
BRANCH  32  36
ATOM     36  CB  THR d   2      27.783  -7.556   3.407  0.00  0.00     0.147 C 
ATOM     37  CG2 THR d   2      27.435  -6.370   4.303  0.00  0.00     0.042 C 
BRANCH  36  38
ATOM     38  OG1 THR d   2      27.028  -8.631   3.980  0.00  0.00    -0.393 OA
ATOM     39  HG1 THR d   2      26.557  -9.071   3.255  0.00  0.00     0.210 HD
ENDBRANCH  36  38
ENDBRANCH  32  36
ENDBRANCH  30  32
ENDBRANCH  27  28
BRANCH  27  40
ATOM     40  CB  LEU d   1      29.072  -8.386  -2.672  0.00  0.00     0.038 C 
BRANCH  40  41
ATOM     41  CG  LEU d   1      27.841  -9.108  -3.282  0.00  0.00    -0.020 C 
ATOM     42  CD1 LEU d   1      27.947 -10.628  -3.339  0.00  0.00     0.009 C 
ATOM     43  CD2 LEU d   1      26.579  -8.781  -2.474  0.00  0.00     0.009 C 
ENDBRANCH  40  41
ENDBRANCH  27  40
ENDBRANCH  24  27
ENDBRANCH   1  23
TORSDOF 9
ENDMDL
