MODEL 1
REMARK VINA RESULT:    -9.106      0.000      0.000
REMARK INTER + INTRA:         -10.780
REMARK INTER:                 -10.001
REMARK INTRA:                  -0.779
REMARK CONF_INDEPENDENT:        0.895
REMARK UNBOUND:                -0.779
REMARK  3 active torsions:
REMARK  status: ('A' for Active; 'I' for Inactive)
REMARK    1  A    between atoms: C_5  and  N_6 
REMARK       I    between atoms: N_6  and  C_7 
REMARK    2  A    between atoms: C_7  and  C_9 
REMARK    3  A    between atoms: C_14  and  O_15 
ROOT
ATOM      1  N   UNL d   1      22.514 -18.670   0.259  0.00  0.00    -0.323 N 
ATOM      2  C   UNL d   1      21.214 -18.583  -0.231  0.00  0.00     0.259 C 
ATOM      3  O   UNL d   1      20.825 -17.912  -1.188  0.00  0.00    -0.267 OA
ATOM      4  H   UNL d   1      22.666 -19.271   1.063  0.00  0.00     0.169 HD
ENDROOT
BRANCH   1   5
ATOM      5  C   UNL d   1      23.632 -17.969  -0.264  0.00  0.00     0.035 A 
ATOM      6  C   UNL d   1      23.487 -17.018  -1.271  0.00  0.00     0.030 A 
ATOM      7  C   UNL d   1      24.576 -16.353  -1.818  0.00  0.00     0.009 A 
ATOM      8  C   UNL d   1      25.866 -16.609  -1.363  0.00  0.00    -0.056 A 
ATOM      9  C   UNL d   1      27.005 -15.876  -2.014  0.00  0.00     0.049 C 
ATOM     10  C   UNL d   1      26.050 -17.537  -0.318  0.00  0.00    -0.054 A 
ATOM     11  C   UNL d   1      24.927 -18.215   0.222  0.00  0.00     0.037 A 
ATOM     12  C   UNL d   1      27.432 -17.797   0.221  0.00  0.00     0.049 C 
ENDBRANCH   1   5
BRANCH   2  13
ATOM     13  C   UNL d   1      20.164 -19.395   0.419  0.00  0.00     0.065 A 
ATOM     14  C   UNL d   1      20.283 -19.606   1.806  0.00  0.00     0.020 A 
ATOM     15  C   UNL d   1      19.398 -20.450   2.473  0.00  0.00     0.001 A 
ATOM     16  C   UNL d   1      18.408 -21.113   1.751  0.00  0.00     0.003 A 
ATOM     17  C   UNL d   1      18.297 -20.925   0.367  0.00  0.00     0.037 A 
ATOM     18  C   UNL d   1      19.167 -20.056  -0.296  0.00  0.00     0.081 A 
BRANCH  18  19
ATOM     19  O   UNL d   1      19.059 -19.863  -1.645  0.00  0.00    -0.360 OA
ATOM     20  H   UNL d   1      18.937 -18.917  -1.829  0.00  0.00     0.217 HD
ENDBRANCH  18  19
ENDBRANCH   2  13
TORSDOF 3
ENDMDL
MODEL 2
REMARK VINA RESULT:    -8.600      1.054      2.290
REMARK INTER + INTRA:         -10.351
REMARK INTER:                  -9.495
REMARK INTRA:                  -0.857
REMARK CONF_INDEPENDENT:        0.895
REMARK UNBOUND:                -0.857
REMARK  3 active torsions:
REMARK  status: ('A' for Active; 'I' for Inactive)
REMARK    1  A    between atoms: C_5  and  N_6 
REMARK       I    between atoms: N_6  and  C_7 
REMARK    2  A    between atoms: C_7  and  C_9 
REMARK    3  A    between atoms: C_14  and  O_15 
ROOT
ATOM      1  N   UNL d   1      22.440 -18.789   0.178  0.00  0.00    -0.323 N 
ATOM      2  C   UNL d   1      21.145 -18.724  -0.327  0.00  0.00     0.259 C 
ATOM      3  O   UNL d   1      20.750 -18.034  -1.270  0.00  0.00    -0.267 OA
ATOM      4  H   UNL d   1      22.598 -19.409   0.966  0.00  0.00     0.169 HD
ENDROOT
BRANCH   1   5
ATOM      5  C   UNL d   1      23.545 -18.040  -0.307  0.00  0.00     0.035 A 
ATOM      6  C   UNL d   1      24.856 -18.420  -0.030  0.00  0.00     0.030 A 
ATOM      7  C   UNL d   1      25.945 -17.676  -0.466  0.00  0.00     0.009 A 
ATOM      8  C   UNL d   1      25.759 -16.517  -1.214  0.00  0.00    -0.056 A 
ATOM      9  C   UNL d   1      26.977 -15.742  -1.633  0.00  0.00     0.049 C 
ATOM     10  C   UNL d   1      24.448 -16.122  -1.548  0.00  0.00    -0.054 A 
ATOM     11  C   UNL d   1      23.347 -16.888  -1.085  0.00  0.00     0.037 A 
ATOM     12  C   UNL d   1      24.225 -14.897  -2.395  0.00  0.00     0.049 C 
ENDBRANCH   1   5
BRANCH   2  13
ATOM     13  C   UNL d   1      20.110 -19.584   0.282  0.00  0.00     0.065 A 
ATOM     14  C   UNL d   1      19.101 -20.075  -0.567  0.00  0.00     0.020 A 
ATOM     15  C   UNL d   1      18.030 -20.800  -0.051  0.00  0.00     0.001 A 
ATOM     16  C   UNL d   1      17.945 -21.011   1.323  0.00  0.00     0.003 A 
ATOM     17  C   UNL d   1      18.934 -20.507   2.179  0.00  0.00     0.037 A 
ATOM     18  C   UNL d   1      20.023 -19.805   1.656  0.00  0.00     0.081 A 
BRANCH  18  19
ATOM     19  O   UNL d   1      20.994 -19.317   2.484  0.00  0.00    -0.360 OA
ATOM     20  H   UNL d   1      21.396 -20.049   2.982  0.00  0.00     0.217 HD
ENDBRANCH  18  19
ENDBRANCH   2  13
TORSDOF 3
ENDMDL
MODEL 3
REMARK VINA RESULT:    -7.156      1.908      6.995
REMARK INTER + INTRA:          -8.915
REMARK INTER:                  -8.050
REMARK INTRA:                  -0.865
REMARK CONF_INDEPENDENT:        0.895
REMARK UNBOUND:                -0.865
REMARK  3 active torsions:
REMARK  status: ('A' for Active; 'I' for Inactive)
REMARK    1  A    between atoms: C_5  and  N_6 
REMARK       I    between atoms: N_6  and  C_7 
REMARK    2  A    between atoms: C_7  and  C_9 
REMARK    3  A    between atoms: C_14  and  O_15 
ROOT
ATOM      1  N   UNL d   1      22.665 -17.863  -0.839  0.00  0.00    -0.323 N 
ATOM      2  C   UNL d   1      23.862 -17.718  -0.144  0.00  0.00     0.259 C 
ATOM      3  O   UNL d   1      24.154 -18.219   0.944  0.00  0.00    -0.267 OA
ATOM      4  H   UNL d   1      22.585 -17.379  -1.728  0.00  0.00     0.169 HD
ENDROOT
BRANCH   1   5
ATOM      5  C   UNL d   1      21.546 -18.614  -0.392  0.00  0.00     0.035 A 
ATOM      6  C   UNL d   1      20.550 -19.028  -1.273  0.00  0.00     0.030 A 
ATOM      7  C   UNL d   1      19.432 -19.729  -0.842  0.00  0.00     0.009 A 
ATOM      8  C   UNL d   1      19.273 -20.058   0.501  0.00  0.00    -0.056 A 
ATOM      9  C   UNL d   1      18.029 -20.795   0.908  0.00  0.00     0.049 C 
ATOM     10  C   UNL d   1      20.279 -19.690   1.417  0.00  0.00    -0.054 A 
ATOM     11  C   UNL d   1      21.411 -18.965   0.962  0.00  0.00     0.037 A 
ATOM     12  C   UNL d   1      20.151 -20.075   2.868  0.00  0.00     0.049 C 
ENDBRANCH   1   5
BRANCH   2  13
ATOM     13  C   UNL d   1      24.937 -16.914  -0.760  0.00  0.00     0.065 A 
ATOM     14  C   UNL d   1      24.548 -15.906  -1.662  0.00  0.00     0.020 A 
ATOM     15  C   UNL d   1      25.504 -15.178  -2.368  0.00  0.00     0.001 A 
ATOM     16  C   UNL d   1      26.853 -15.477  -2.200  0.00  0.00     0.003 A 
ATOM     17  C   UNL d   1      27.249 -16.494  -1.321  0.00  0.00     0.037 A 
ATOM     18  C   UNL d   1      26.291 -17.203  -0.591  0.00  0.00     0.081 A 
BRANCH  18  19
ATOM     19  O   UNL d   1      26.670 -18.192   0.273  0.00  0.00    -0.360 OA
ATOM     20  H   UNL d   1      26.052 -18.222   1.023  0.00  0.00     0.217 HD
ENDBRANCH  18  19
ENDBRANCH   2  13
TORSDOF 3
ENDMDL
MODEL 4
REMARK VINA RESULT:    -6.446     10.372     13.235
REMARK INTER + INTRA:          -8.217
REMARK INTER:                  -7.341
REMARK INTRA:                  -0.876
REMARK CONF_INDEPENDENT:        0.895
REMARK UNBOUND:                -0.876
REMARK  3 active torsions:
REMARK  status: ('A' for Active; 'I' for Inactive)
REMARK    1  A    between atoms: C_5  and  N_6 
REMARK       I    between atoms: N_6  and  C_7 
REMARK    2  A    between atoms: C_7  and  C_9 
REMARK    3  A    between atoms: C_14  and  O_15 
ROOT
ATOM      1  N   UNL d   1      33.116 -22.014   5.624  0.00  0.00    -0.323 N 
ATOM      2  C   UNL d   1      31.787 -21.603   5.653  0.00  0.00     0.259 C 
ATOM      3  O   UNL d   1      31.156 -21.199   6.632  0.00  0.00    -0.267 OA
ATOM      4  H   UNL d   1      33.485 -22.323   4.730  0.00  0.00     0.169 HD
ENDROOT
BRANCH   1   5
ATOM      5  C   UNL d   1      33.983 -22.056   6.748  0.00  0.00     0.035 A 
ATOM      6  C   UNL d   1      34.436 -23.266   7.271  0.00  0.00     0.030 A 
ATOM      7  C   UNL d   1      35.252 -23.322   8.392  0.00  0.00     0.009 A 
ATOM      8  C   UNL d   1      35.662 -22.156   9.032  0.00  0.00    -0.056 A 
ATOM      9  C   UNL d   1      36.524 -22.285  10.256  0.00  0.00     0.049 C 
ATOM     10  C   UNL d   1      35.256 -20.912   8.509  0.00  0.00    -0.054 A 
ATOM     11  C   UNL d   1      34.412 -20.872   7.369  0.00  0.00     0.037 A 
ATOM     12  C   UNL d   1      35.724 -19.635   9.159  0.00  0.00     0.049 C 
ENDBRANCH   1   5
BRANCH   2  13
ATOM     13  C   UNL d   1      31.025 -21.603   4.387  0.00  0.00     0.065 A 
ATOM     14  C   UNL d   1      29.662 -21.950   4.458  0.00  0.00     0.020 A 
ATOM     15  C   UNL d   1      28.903 -22.081   3.298  0.00  0.00     0.001 A 
ATOM     16  C   UNL d   1      29.510 -21.898   2.058  0.00  0.00     0.003 A 
ATOM     17  C   UNL d   1      30.871 -21.575   1.977  0.00  0.00     0.037 A 
ATOM     18  C   UNL d   1      31.625 -21.415   3.143  0.00  0.00     0.081 A 
BRANCH  18  19
ATOM     19  O   UNL d   1      32.951 -21.093   3.072  0.00  0.00    -0.360 OA
ATOM     20  H   UNL d   1      33.487 -21.882   3.254  0.00  0.00     0.217 HD
ENDBRANCH  18  19
ENDBRANCH   2  13
TORSDOF 3
ENDMDL
MODEL 5
REMARK VINA RESULT:    -6.201      4.335      8.858
REMARK INTER + INTRA:          -7.967
REMARK INTER:                  -7.096
REMARK INTRA:                  -0.871
REMARK CONF_INDEPENDENT:        0.895
REMARK UNBOUND:                -0.871
REMARK  3 active torsions:
REMARK  status: ('A' for Active; 'I' for Inactive)
REMARK    1  A    between atoms: C_5  and  N_6 
REMARK       I    between atoms: N_6  and  C_7 
REMARK    2  A    between atoms: C_7  and  C_9 
REMARK    3  A    between atoms: C_14  and  O_15 
ROOT
ATOM      1  N   UNL d   1      26.576 -15.030  -3.278  0.00  0.00    -0.323 N 
ATOM      2  C   UNL d   1      25.978 -14.375  -4.350  0.00  0.00     0.259 C 
ATOM      3  O   UNL d   1      24.781 -14.378  -4.647  0.00  0.00    -0.267 OA
ATOM      4  H   UNL d   1      27.581 -14.927  -3.176  0.00  0.00     0.169 HD
ENDROOT
BRANCH   1   5
ATOM      5  C   UNL d   1      25.895 -15.845  -2.336  0.00  0.00     0.035 A 
ATOM      6  C   UNL d   1      24.508 -15.810  -2.214  0.00  0.00     0.030 A 
ATOM      7  C   UNL d   1      23.833 -16.573  -1.270  0.00  0.00     0.009 A 
ATOM      8  C   UNL d   1      24.529 -17.419  -0.412  0.00  0.00    -0.056 A 
ATOM      9  C   UNL d   1      23.744 -18.199   0.605  0.00  0.00     0.049 C 
ATOM     10  C   UNL d   1      25.930 -17.512  -0.531  0.00  0.00    -0.054 A 
ATOM     11  C   UNL d   1      26.605 -16.717  -1.494  0.00  0.00     0.037 A 
ATOM     12  C   UNL d   1      26.700 -18.455   0.357  0.00  0.00     0.049 C 
ENDBRANCH   1   5
BRANCH   2  13
ATOM     13  C   UNL d   1      26.829 -13.549  -5.231  0.00  0.00     0.065 A 
ATOM     14  C   UNL d   1      27.968 -14.164  -5.784  0.00  0.00     0.020 A 
ATOM     15  C   UNL d   1      28.879 -13.425  -6.534  0.00  0.00     0.001 A 
ATOM     16  C   UNL d   1      28.675 -12.059  -6.707  0.00  0.00     0.003 A 
ATOM     17  C   UNL d   1      27.556 -11.433  -6.141  0.00  0.00     0.037 A 
ATOM     18  C   UNL d   1      26.626 -12.182  -5.415  0.00  0.00     0.081 A 
BRANCH  18  19
ATOM     19  O   UNL d   1      25.529 -11.580  -4.866  0.00  0.00    -0.360 OA
ATOM     20  H   UNL d   1      24.790 -12.211  -4.840  0.00  0.00     0.217 HD
ENDBRANCH  18  19
ENDBRANCH   2  13
TORSDOF 3
ENDMDL
MODEL 6
REMARK VINA RESULT:    -6.150      4.192      8.880
REMARK INTER + INTRA:          -7.923
REMARK INTER:                  -7.044
REMARK INTRA:                  -0.878
REMARK CONF_INDEPENDENT:        0.895
REMARK UNBOUND:                -0.878
REMARK  3 active torsions:
REMARK  status: ('A' for Active; 'I' for Inactive)
REMARK    1  A    between atoms: C_5  and  N_6 
REMARK       I    between atoms: N_6  and  C_7 
REMARK    2  A    between atoms: C_7  and  C_9 
REMARK    3  A    between atoms: C_14  and  O_15 
ROOT
ATOM      1  N   UNL d   1      26.483 -15.194  -3.138  0.00  0.00    -0.323 N 
ATOM      2  C   UNL d   1      25.894 -14.480  -4.178  0.00  0.00     0.259 C 
ATOM      3  O   UNL d   1      24.693 -14.409  -4.442  0.00  0.00    -0.267 OA
ATOM      4  H   UNL d   1      27.494 -15.149  -3.060  0.00  0.00     0.169 HD
ENDROOT
BRANCH   1   5
ATOM      5  C   UNL d   1      25.781 -15.993  -2.196  0.00  0.00     0.035 A 
ATOM      6  C   UNL d   1      26.438 -16.950  -1.425  0.00  0.00     0.030 A 
ATOM      7  C   UNL d   1      25.758 -17.765  -0.529  0.00  0.00     0.009 A 
ATOM      8  C   UNL d   1      24.382 -17.642  -0.361  0.00  0.00    -0.056 A 
ATOM      9  C   UNL d   1      23.701 -18.570   0.605  0.00  0.00     0.049 C 
ATOM     10  C   UNL d   1      23.689 -16.658  -1.095  0.00  0.00    -0.054 A 
ATOM     11  C   UNL d   1      24.397 -15.841  -2.014  0.00  0.00     0.037 A 
ATOM     12  C   UNL d   1      22.207 -16.476  -0.895  0.00  0.00     0.049 C 
ENDBRANCH   1   5
BRANCH   2  13
ATOM     13  C   UNL d   1      26.768 -13.681  -5.062  0.00  0.00     0.065 A 
ATOM     14  C   UNL d   1      27.885 -14.332  -5.619  0.00  0.00     0.020 A 
ATOM     15  C   UNL d   1      28.816 -13.622  -6.373  0.00  0.00     0.001 A 
ATOM     16  C   UNL d   1      28.655 -12.250  -6.545  0.00  0.00     0.003 A 
ATOM     17  C   UNL d   1      27.558 -11.589  -5.974  0.00  0.00     0.037 A 
ATOM     18  C   UNL d   1      26.608 -12.308  -5.244  0.00  0.00     0.081 A 
BRANCH  18  19
ATOM     19  O   UNL d   1      25.533 -11.672  -4.691  0.00  0.00    -0.360 OA
ATOM     20  H   UNL d   1      24.745 -12.235  -4.772  0.00  0.00     0.217 HD
ENDBRANCH  18  19
ENDBRANCH   2  13
TORSDOF 3
ENDMDL
