MODEL 1
REMARK VINA RESULT:    -9.934      0.000      0.000
REMARK INTER + INTRA:         -15.247
REMARK INTER:                 -12.917
REMARK INTRA:                  -2.330
REMARK CONF_INDEPENDENT:        2.983
REMARK UNBOUND:                -2.330
REMARK  10 active torsions:
REMARK  status: ('A' for Active; 'I' for Inactive)
REMARK    1  A    between atoms: O_2  and  C_3 
REMARK    2  A    between atoms: C_8  and  N_9 
REMARK       I    between atoms: N_9  and  C_10 
REMARK    3  A    between atoms: C_10  and  C_12 
REMARK    4  A    between atoms: C_12  and  O_13 
REMARK    5  A    between atoms: O_13  and  C_14 
REMARK    6  A    between atoms: C_16  and  C_14 
REMARK    7  A    between atoms: C_16  and  N_27 
REMARK    8  A    between atoms: C_16  and  C_17 
REMARK    9  A    between atoms: C_17  and  C_18 
REMARK       I    between atoms: N_27  and  C_28 
REMARK   10  A    between atoms: C_28  and  C_30 
ROOT
ATOM      1  C   UNL d   1      27.206 -16.417   0.175  0.00  0.00     0.188 C 
ENDROOT
BRANCH   1   2
ATOM      2  N   UNL d   1      27.782 -15.532   1.326  0.00  0.00    -0.342 N 
ATOM      3  C   UNL d   1      27.314 -14.247   1.644  0.00  0.00     0.259 C 
ATOM      4  O   UNL d   1      26.526 -13.699   0.857  0.00  0.00    -0.267 OA
ATOM      5  H   UNL d   1      28.201 -16.013   2.117  0.00  0.00     0.163 HD
BRANCH   3   6
ATOM      6  C   UNL d   1      27.636 -13.697   2.979  0.00  0.00     0.072 A 
ATOM      7  C   UNL d   1      27.890 -14.353   4.174  0.00  0.00     0.025 A 
ATOM      8  C   UNL d   1      28.216 -13.473   5.257  0.00  0.00     0.009 A 
ATOM      9  C   UNL d   1      28.105 -12.148   4.906  0.00  0.00     0.050 A 
ATOM     10  S   UNL d   1      27.768 -11.982   3.233  0.00  0.00    -0.097 SA
ENDBRANCH   3   6
ENDBRANCH   1   2
BRANCH   1  11
ATOM     11  C   UNL d   1      28.417 -16.701  -0.851  0.00  0.00     0.072 C 
BRANCH  11  12
ATOM     12  C   UNL d   1      28.217 -16.097  -2.258  0.00  0.00    -0.048 C 
ATOM     13  C   UNL d   1      27.158 -15.361  -2.638  0.00  0.00    -0.006 C 
ATOM     14  C   UNL d   1      26.029 -14.864  -1.960  0.00  0.00     0.014 C 
ATOM     15  C   UNL d   1      27.274 -15.073  -4.062  0.00  0.00     0.038 C 
ATOM     16  C   UNL d   1      24.932 -14.448  -2.565  0.00  0.00     0.001 C 
ATOM     17  C   UNL d   1      24.962 -14.234  -3.965  0.00  0.00     0.002 C 
ATOM     18  C   UNL d   1      26.070 -14.453  -4.706  0.00  0.00     0.030 C 
ATOM     19  N   UNL d   1      28.416 -15.440  -4.503  0.00  0.00    -0.385 N 
ATOM     20  C   UNL d   1      29.189 -16.173  -3.425  0.00  0.00     0.155 C 
ATOM     21  H   UNL d   1      28.713 -15.218  -5.452  0.00  0.00     0.160 HD
ENDBRANCH  11  12
ENDBRANCH   1  11
BRANCH   1  22
ATOM     22  C   UNL d   1      26.556 -17.923   0.379  0.00  0.00     0.282 C 
ATOM     23  O   UNL d   1      27.247 -18.932   0.540  0.00  0.00    -0.263 OA
BRANCH  22  24
ATOM     24  O   UNL d   1      25.204 -17.962   0.535  0.00  0.00    -0.310 OA
BRANCH  24  25
ATOM     25  C   UNL d   1      24.420 -17.176  -0.422  0.00  0.00     0.281 C 
BRANCH  25  26
ATOM     26  C   UNL d   1      22.896 -17.273  -0.150  0.00  0.00     0.246 C 
ATOM     27  N   UNL d   1      22.458 -18.432   0.497  0.00  0.00    -0.323 N 
ATOM     28  H   UNL d   1      23.001 -18.776   1.278  0.00  0.00     0.169 HD
ATOM     29  O   UNL d   1      22.145 -16.391  -0.564  0.00  0.00    -0.271 OA
BRANCH  27  30
ATOM     30  C   UNL d   1      21.165 -19.022   0.313  0.00  0.00     0.068 A 
ATOM     31  C   UNL d   1      20.635 -19.073  -0.996  0.00  0.00     0.032 A 
ATOM     32  C   UNL d   1      19.404 -19.699  -1.271  0.00  0.00     0.002 A 
ATOM     33  C   UNL d   1      18.679 -20.285  -0.241  0.00  0.00     0.003 A 
ATOM     34  C   UNL d   1      19.144 -20.163   1.065  0.00  0.00     0.039 A 
ATOM     35  C   UNL d   1      20.365 -19.523   1.358  0.00  0.00     0.095 A 
BRANCH  35  36
ATOM     36  O   UNL d   1      20.654 -19.531   2.693  0.00  0.00    -0.354 OA
ATOM     37  C   UNL d   1      19.972 -20.450   3.535  0.00  0.00     0.210 C 
ENDBRANCH  35  36
ENDBRANCH  27  30
ENDBRANCH  25  26
ENDBRANCH  24  25
ENDBRANCH  22  24
ENDBRANCH   1  22
TORSDOF 10
ENDMDL
MODEL 2
REMARK VINA RESULT:    -9.676      3.044      8.274
REMARK INTER + INTRA:         -15.979
REMARK INTER:                 -12.659
REMARK INTRA:                  -3.320
REMARK CONF_INDEPENDENT:        2.983
REMARK UNBOUND:                -3.320
REMARK  10 active torsions:
REMARK  status: ('A' for Active; 'I' for Inactive)
REMARK    1  A    between atoms: O_2  and  C_3 
REMARK    2  A    between atoms: C_8  and  N_9 
REMARK       I    between atoms: N_9  and  C_10 
REMARK    3  A    between atoms: C_10  and  C_12 
REMARK    4  A    between atoms: C_12  and  O_13 
REMARK    5  A    between atoms: O_13  and  C_14 
REMARK    6  A    between atoms: C_16  and  C_14 
REMARK    7  A    between atoms: C_16  and  N_27 
REMARK    8  A    between atoms: C_16  and  C_17 
REMARK    9  A    between atoms: C_17  and  C_18 
REMARK       I    between atoms: N_27  and  C_28 
REMARK   10  A    between atoms: C_28  and  C_30 
ROOT
ATOM      1  C   UNL d   1      23.814 -16.750  -0.306  0.00  0.00     0.188 C 
ENDROOT
BRANCH   1   2
ATOM      2  N   UNL d   1      22.383 -17.327  -0.058  0.00  0.00    -0.342 N 
ATOM      3  C   UNL d   1      21.873 -18.472  -0.690  0.00  0.00     0.259 C 
ATOM      4  O   UNL d   1      22.515 -18.954  -1.637  0.00  0.00    -0.267 OA
ATOM      5  H   UNL d   1      21.960 -17.147   0.848  0.00  0.00     0.163 HD
BRANCH   3   6
ATOM      6  C   UNL d   1      20.705 -19.145  -0.079  0.00  0.00     0.072 A 
ATOM      7  C   UNL d   1      19.599 -19.726  -0.679  0.00  0.00     0.025 A 
ATOM      8  C   UNL d   1      18.690 -20.329   0.251  0.00  0.00     0.009 A 
ATOM      9  C   UNL d   1      19.057 -20.112   1.558  0.00  0.00     0.050 A 
ATOM     10  S   UNL d   1      20.577 -19.324   1.646  0.00  0.00    -0.097 SA
ENDBRANCH   3   6
ENDBRANCH   1   2
BRANCH   1  11
ATOM     11  C   UNL d   1      24.864 -17.829   0.271  0.00  0.00     0.072 C 
BRANCH  11  12
ATOM     12  C   UNL d   1      26.345 -17.426   0.115  0.00  0.00    -0.048 C 
ATOM     13  C   UNL d   1      26.800 -16.161   0.076  0.00  0.00    -0.006 C 
ATOM     14  C   UNL d   1      26.186 -14.904   0.229  0.00  0.00     0.014 C 
ATOM     15  C   UNL d   1      28.231 -16.186  -0.198  0.00  0.00     0.038 C 
ATOM     16  C   UNL d   1      26.726 -13.768  -0.170  0.00  0.00     0.001 C 
ATOM     17  C   UNL d   1      28.095 -13.751  -0.534  0.00  0.00     0.002 C 
ATOM     18  C   UNL d   1      28.866 -14.861  -0.498  0.00  0.00     0.030 C 
ATOM     19  N   UNL d   1      28.677 -17.382  -0.148  0.00  0.00    -0.385 N 
ATOM     20  C   UNL d   1      27.539 -18.365   0.036  0.00  0.00     0.155 C 
ATOM     21  H   UNL d   1      29.676 -17.578  -0.207  0.00  0.00     0.160 HD
ENDBRANCH  11  12
ENDBRANCH   1  11
BRANCH   1  22
ATOM     22  C   UNL d   1      24.445 -16.403  -1.793  0.00  0.00     0.282 C 
ATOM     23  O   UNL d   1      25.181 -17.183  -2.404  0.00  0.00    -0.263 OA
BRANCH  22  24
ATOM     24  O   UNL d   1      23.964 -15.276  -2.386  0.00  0.00    -0.310 OA
BRANCH  24  25
ATOM     25  C   UNL d   1      24.962 -14.382  -2.980  0.00  0.00     0.281 C 
BRANCH  25  26
ATOM     26  C   UNL d   1      25.878 -15.116  -3.994  0.00  0.00     0.246 C 
ATOM     27  N   UNL d   1      27.101 -15.578  -3.498  0.00  0.00    -0.323 N 
ATOM     28  H   UNL d   1      27.109 -16.027  -2.592  0.00  0.00     0.169 HD
ATOM     29  O   UNL d   1      25.538 -15.199  -5.174  0.00  0.00    -0.271 OA
BRANCH  27  30
ATOM     30  C   UNL d   1      28.295 -15.703  -4.280  0.00  0.00     0.068 A 
ATOM     31  C   UNL d   1      29.277 -16.628  -3.855  0.00  0.00     0.032 A 
ATOM     32  C   UNL d   1      30.445 -16.862  -4.605  0.00  0.00     0.002 A 
ATOM     33  C   UNL d   1      30.655 -16.176  -5.794  0.00  0.00     0.003 A 
ATOM     34  C   UNL d   1      29.741 -15.198  -6.179  0.00  0.00     0.039 A 
ATOM     35  C   UNL d   1      28.577 -14.939  -5.429  0.00  0.00     0.095 A 
BRANCH  35  36
ATOM     36  O   UNL d   1      27.800 -13.963  -5.986  0.00  0.00    -0.354 OA
ATOM     37  C   UNL d   1      28.393 -13.062  -6.910  0.00  0.00     0.210 C 
ENDBRANCH  35  36
ENDBRANCH  27  30
ENDBRANCH  25  26
ENDBRANCH  24  25
ENDBRANCH  22  24
ENDBRANCH   1  22
TORSDOF 10
ENDMDL
MODEL 3
REMARK VINA RESULT:    -8.964      2.681      7.207
REMARK INTER + INTRA:         -15.318
REMARK INTER:                 -11.947
REMARK INTRA:                  -3.371
REMARK CONF_INDEPENDENT:        2.983
REMARK UNBOUND:                -3.371
REMARK  10 active torsions:
REMARK  status: ('A' for Active; 'I' for Inactive)
REMARK    1  A    between atoms: O_2  and  C_3 
REMARK    2  A    between atoms: C_8  and  N_9 
REMARK       I    between atoms: N_9  and  C_10 
REMARK    3  A    between atoms: C_10  and  C_12 
REMARK    4  A    between atoms: C_12  and  O_13 
REMARK    5  A    between atoms: O_13  and  C_14 
REMARK    6  A    between atoms: C_16  and  C_14 
REMARK    7  A    between atoms: C_16  and  N_27 
REMARK    8  A    between atoms: C_16  and  C_17 
REMARK    9  A    between atoms: C_17  and  C_18 
REMARK       I    between atoms: N_27  and  C_28 
REMARK   10  A    between atoms: C_28  and  C_30 
ROOT
ATOM      1  C   UNL d   1      25.026 -17.084  -1.147  0.00  0.00     0.188 C 
ENDROOT
BRANCH   1   2
ATOM      2  N   UNL d   1      23.577 -17.438  -0.683  0.00  0.00    -0.342 N 
ATOM      3  C   UNL d   1      22.788 -18.447  -1.257  0.00  0.00     0.259 C 
ATOM      4  O   UNL d   1      23.181 -18.969  -2.313  0.00  0.00    -0.267 OA
ATOM      5  H   UNL d   1      23.340 -17.246   0.286  0.00  0.00     0.163 HD
BRANCH   3   6
ATOM      6  C   UNL d   1      21.637 -18.960  -0.482  0.00  0.00     0.072 A 
ATOM      7  C   UNL d   1      21.409 -18.948   0.886  0.00  0.00     0.025 A 
ATOM      8  C   UNL d   1      20.142 -19.501   1.264  0.00  0.00     0.009 A 
ATOM      9  C   UNL d   1      19.459 -20.025   0.192  0.00  0.00     0.050 A 
ATOM     10  S   UNL d   1      20.280 -19.700  -1.278  0.00  0.00    -0.097 SA
ENDBRANCH   3   6
ENDBRANCH   1   2
BRANCH   1  11
ATOM     11  C   UNL d   1      25.142 -15.476  -1.143  0.00  0.00     0.072 C 
BRANCH  11  12
ATOM     12  C   UNL d   1      25.212 -14.837  -2.546  0.00  0.00    -0.048 C 
ATOM     13  C   UNL d   1      26.268 -14.908  -3.374  0.00  0.00    -0.006 C 
ATOM     14  C   UNL d   1      27.506 -15.577  -3.313  0.00  0.00     0.014 C 
ATOM     15  C   UNL d   1      26.001 -14.088  -4.549  0.00  0.00     0.038 C 
ATOM     16  C   UNL d   1      28.548 -15.266  -4.060  0.00  0.00     0.001 C 
ATOM     17  C   UNL d   1      28.364 -14.400  -5.166  0.00  0.00     0.002 C 
ATOM     18  C   UNL d   1      27.160 -13.870  -5.476  0.00  0.00     0.030 C 
ATOM     19  N   UNL d   1      24.790 -13.681  -4.546  0.00  0.00    -0.385 N 
ATOM     20  C   UNL d   1      24.102 -14.075  -3.254  0.00  0.00     0.155 C 
ATOM     21  H   UNL d   1      24.396 -13.185  -5.345  0.00  0.00     0.160 HD
ENDBRANCH  11  12
ENDBRANCH   1  11
BRANCH   1  22
ATOM     22  C   UNL d   1      26.406 -17.539  -0.360  0.00  0.00     0.282 C 
ATOM     23  O   UNL d   1      26.411 -17.913   0.816  0.00  0.00    -0.263 OA
BRANCH  22  24
ATOM     24  O   UNL d   1      27.518 -17.647  -1.138  0.00  0.00    -0.310 OA
BRANCH  24  25
ATOM     25  C   UNL d   1      28.804 -17.535  -0.446  0.00  0.00     0.281 C 
BRANCH  25  26
ATOM     26  C   UNL d   1      29.008 -16.135   0.191  0.00  0.00     0.246 C 
ATOM     27  N   UNL d   1      28.066 -15.753   1.150  0.00  0.00    -0.323 N 
ATOM     28  H   UNL d   1      27.778 -16.439   1.836  0.00  0.00     0.169 HD
ATOM     29  O   UNL d   1      29.916 -15.409  -0.210  0.00  0.00    -0.271 OA
BRANCH  27  30
ATOM     30  C   UNL d   1      27.675 -14.397   1.404  0.00  0.00     0.068 A 
ATOM     31  C   UNL d   1      27.487 -13.539   0.297  0.00  0.00     0.032 A 
ATOM     32  C   UNL d   1      27.035 -12.215   0.458  0.00  0.00     0.002 A 
ATOM     33  C   UNL d   1      26.762 -11.724   1.728  0.00  0.00     0.003 A 
ATOM     34  C   UNL d   1      27.028 -12.528   2.833  0.00  0.00     0.039 A 
ATOM     35  C   UNL d   1      27.499 -13.849   2.689  0.00  0.00     0.095 A 
BRANCH  35  36
ATOM     36  O   UNL d   1      27.673 -14.477   3.890  0.00  0.00    -0.354 OA
ATOM     37  C   UNL d   1      27.744 -13.689   5.070  0.00  0.00     0.210 C 
ENDBRANCH  35  36
ENDBRANCH  27  30
ENDBRANCH  25  26
ENDBRANCH  24  25
ENDBRANCH  22  24
ENDBRANCH   1  22
TORSDOF 10
ENDMDL
MODEL 4
REMARK VINA RESULT:    -8.963      3.112      8.205
REMARK INTER + INTRA:         -15.868
REMARK INTER:                 -11.946
REMARK INTRA:                  -3.922
REMARK CONF_INDEPENDENT:        2.983
REMARK UNBOUND:                -3.922
REMARK  10 active torsions:
REMARK  status: ('A' for Active; 'I' for Inactive)
REMARK    1  A    between atoms: O_2  and  C_3 
REMARK    2  A    between atoms: C_8  and  N_9 
REMARK       I    between atoms: N_9  and  C_10 
REMARK    3  A    between atoms: C_10  and  C_12 
REMARK    4  A    between atoms: C_12  and  O_13 
REMARK    5  A    between atoms: O_13  and  C_14 
REMARK    6  A    between atoms: C_16  and  C_14 
REMARK    7  A    between atoms: C_16  and  N_27 
REMARK    8  A    between atoms: C_16  and  C_17 
REMARK    9  A    between atoms: C_17  and  C_18 
REMARK       I    between atoms: N_27  and  C_28 
REMARK   10  A    between atoms: C_28  and  C_30 
ROOT
ATOM      1  C   UNL d   1      24.426 -17.959  -0.522  0.00  0.00     0.188 C 
ENDROOT
BRANCH   1   2
ATOM      2  N   UNL d   1      23.160 -18.565   0.165  0.00  0.00    -0.342 N 
ATOM      3  C   UNL d   1      21.841 -18.208  -0.156  0.00  0.00     0.259 C 
ATOM      4  O   UNL d   1      21.662 -17.225  -0.893  0.00  0.00    -0.267 OA
ATOM      5  H   UNL d   1      23.242 -19.505   0.542  0.00  0.00     0.163 HD
BRANCH   3   6
ATOM      6  C   UNL d   1      20.752 -19.127   0.246  0.00  0.00     0.072 A 
ATOM      7  C   UNL d   1      20.448 -19.654   1.491  0.00  0.00     0.025 A 
ATOM      8  C   UNL d   1      19.275 -20.478   1.497  0.00  0.00     0.009 A 
ATOM      9  C   UNL d   1      18.755 -20.658   0.236  0.00  0.00     0.050 A 
ATOM     10  S   UNL d   1      19.592 -19.701  -0.914  0.00  0.00    -0.097 SA
ENDBRANCH   3   6
ENDBRANCH   1   2
BRANCH   1  11
ATOM     11  C   UNL d   1      24.239 -16.357  -0.526  0.00  0.00     0.072 C 
BRANCH  11  12
ATOM     12  C   UNL d   1      25.131 -15.612  -1.541  0.00  0.00    -0.048 C 
ATOM     13  C   UNL d   1      26.063 -14.698  -1.223  0.00  0.00    -0.006 C 
ATOM     14  C   UNL d   1      26.565 -14.208  -0.003  0.00  0.00     0.014 C 
ATOM     15  C   UNL d   1      26.610 -14.138  -2.453  0.00  0.00     0.038 C 
ATOM     16  C   UNL d   1      27.237 -13.078   0.116  0.00  0.00     0.001 C 
ATOM     17  C   UNL d   1      27.718 -12.442  -1.054  0.00  0.00     0.002 C 
ATOM     18  C   UNL d   1      27.502 -12.943  -2.290  0.00  0.00     0.030 C 
ATOM     19  N   UNL d   1      26.187 -14.787  -3.469  0.00  0.00    -0.385 N 
ATOM     20  C   UNL d   1      25.157 -15.816  -3.049  0.00  0.00     0.155 C 
ATOM     21  H   UNL d   1      26.551 -14.603  -4.403  0.00  0.00     0.160 HD
ENDBRANCH  11  12
ENDBRANCH   1  11
BRANCH   1  22
ATOM     22  C   UNL d   1      25.973 -18.132   0.032  0.00  0.00     0.282 C 
ATOM     23  O   UNL d   1      26.241 -18.691   1.099  0.00  0.00    -0.263 OA
BRANCH  22  24
ATOM     24  O   UNL d   1      26.954 -17.778  -0.843  0.00  0.00    -0.310 OA
BRANCH  24  25
ATOM     25  C   UNL d   1      28.171 -17.213  -0.255  0.00  0.00     0.281 C 
BRANCH  25  26
ATOM     26  C   UNL d   1      29.094 -16.569  -1.323  0.00  0.00     0.246 C 
ATOM     27  N   UNL d   1      28.682 -16.701  -2.652  0.00  0.00    -0.323 N 
ATOM     28  H   UNL d   1      27.704 -16.555  -2.865  0.00  0.00     0.169 HD
ATOM     29  O   UNL d   1      30.154 -16.048  -0.979  0.00  0.00    -0.271 OA
BRANCH  27  30
ATOM     30  C   UNL d   1      29.574 -16.763  -3.773  0.00  0.00     0.068 A 
ATOM     31  C   UNL d   1      30.838 -17.367  -3.586  0.00  0.00     0.032 A 
ATOM     32  C   UNL d   1      31.743 -17.532  -4.652  0.00  0.00     0.002 A 
ATOM     33  C   UNL d   1      31.401 -17.095  -5.925  0.00  0.00     0.003 A 
ATOM     34  C   UNL d   1      30.197 -16.418  -6.106  0.00  0.00     0.039 A 
ATOM     35  C   UNL d   1      29.290 -16.230  -5.044  0.00  0.00     0.095 A 
BRANCH  35  36
ATOM     36  O   UNL d   1      28.160 -15.566  -5.432  0.00  0.00    -0.354 OA
ATOM     37  C   UNL d   1      28.257 -14.190  -5.770  0.00  0.00     0.210 C 
ENDBRANCH  35  36
ENDBRANCH  27  30
ENDBRANCH  25  26
ENDBRANCH  24  25
ENDBRANCH  22  24
ENDBRANCH   1  22
TORSDOF 10
ENDMDL
MODEL 5
REMARK VINA RESULT:    -8.662      4.208      9.199
REMARK INTER + INTRA:         -14.969
REMARK INTER:                 -11.645
REMARK INTRA:                  -3.323
REMARK CONF_INDEPENDENT:        2.983
REMARK UNBOUND:                -3.323
REMARK  10 active torsions:
REMARK  status: ('A' for Active; 'I' for Inactive)
REMARK    1  A    between atoms: O_2  and  C_3 
REMARK    2  A    between atoms: C_8  and  N_9 
REMARK       I    between atoms: N_9  and  C_10 
REMARK    3  A    between atoms: C_10  and  C_12 
REMARK    4  A    between atoms: C_12  and  O_13 
REMARK    5  A    between atoms: O_13  and  C_14 
REMARK    6  A    between atoms: C_16  and  C_14 
REMARK    7  A    between atoms: C_16  and  N_27 
REMARK    8  A    between atoms: C_16  and  C_17 
REMARK    9  A    between atoms: C_17  and  C_18 
REMARK       I    between atoms: N_27  and  C_28 
REMARK   10  A    between atoms: C_28  and  C_30 
ROOT
ATOM      1  C   UNL d   1      26.497 -15.359  -3.306  0.00  0.00     0.188 C 
ENDROOT
BRANCH   1   2
ATOM      2  N   UNL d   1      27.866 -15.372  -4.059  0.00  0.00    -0.342 N 
ATOM      3  C   UNL d   1      28.007 -15.189  -5.443  0.00  0.00     0.259 C 
ATOM      4  O   UNL d   1      26.983 -15.201  -6.144  0.00  0.00    -0.267 OA
ATOM      5  H   UNL d   1      28.689 -15.096  -3.531  0.00  0.00     0.163 HD
BRANCH   3   6
ATOM      6  C   UNL d   1      29.339 -14.808  -5.964  0.00  0.00     0.072 A 
ATOM      7  C   UNL d   1      29.676 -14.018  -7.052  0.00  0.00     0.025 A 
ATOM      8  C   UNL d   1      31.088 -13.835  -7.217  0.00  0.00     0.009 A 
ATOM      9  C   UNL d   1      31.820 -14.572  -6.315  0.00  0.00     0.050 A 
ATOM     10  S   UNL d   1      30.794 -15.348  -5.181  0.00  0.00    -0.097 SA
ENDBRANCH   3   6
ENDBRANCH   1   2
BRANCH   1  11
ATOM     11  C   UNL d   1      26.827 -15.298  -1.729  0.00  0.00     0.072 C 
BRANCH  11  12
ATOM     12  C   UNL d   1      26.384 -16.544  -0.934  0.00  0.00    -0.048 C 
ATOM     13  C   UNL d   1      25.116 -16.976  -0.820  0.00  0.00    -0.006 C 
ATOM     14  C   UNL d   1      23.894 -16.555  -1.378  0.00  0.00     0.014 C 
ATOM     15  C   UNL d   1      25.087 -18.107   0.099  0.00  0.00     0.038 C 
ATOM     16  C   UNL d   1      22.712 -16.886  -0.895  0.00  0.00     0.001 C 
ATOM     17  C   UNL d   1      22.632 -17.922   0.069  0.00  0.00     0.002 C 
ATOM     18  C   UNL d   1      23.725 -18.575   0.520  0.00  0.00     0.030 C 
ATOM     19  N   UNL d   1      26.273 -18.477   0.394  0.00  0.00    -0.385 N 
ATOM     20  C   UNL d   1      27.289 -17.522  -0.201  0.00  0.00     0.155 C 
ATOM     21  H   UNL d   1      26.444 -19.322   0.939  0.00  0.00     0.160 HD
ENDBRANCH  11  12
ENDBRANCH   1  11
BRANCH   1  22
ATOM     22  C   UNL d   1      25.342 -14.189  -3.471  0.00  0.00     0.282 C 
ATOM     23  O   UNL d   1      24.539 -14.171  -4.408  0.00  0.00    -0.263 OA
BRANCH  22  24
ATOM     24  O   UNL d   1      25.212 -13.339  -2.416  0.00  0.00    -0.310 OA
BRANCH  24  25
ATOM     25  C   UNL d   1      26.303 -12.381  -2.219  0.00  0.00     0.281 C 
BRANCH  25  26
ATOM     26  C   UNL d   1      26.207 -11.175  -3.191  0.00  0.00     0.246 C 
ATOM     27  N   UNL d   1      25.657 -11.440  -4.448  0.00  0.00    -0.323 N 
ATOM     28  H   UNL d   1      24.834 -12.027  -4.495  0.00  0.00     0.169 HD
ATOM     29  O   UNL d   1      26.668 -10.085  -2.857  0.00  0.00    -0.271 OA
BRANCH  27  30
ATOM     30  C   UNL d   1      26.006 -10.738  -5.648  0.00  0.00     0.068 A 
ATOM     31  C   UNL d   1      26.780 -11.415  -6.617  0.00  0.00     0.032 A 
ATOM     32  C   UNL d   1      27.104 -10.821  -7.852  0.00  0.00     0.002 A 
ATOM     33  C   UNL d   1      26.661  -9.537  -8.140  0.00  0.00     0.003 A 
ATOM     34  C   UNL d   1      25.975  -8.823  -7.161  0.00  0.00     0.039 A 
ATOM     35  C   UNL d   1      25.659  -9.399  -5.913  0.00  0.00     0.095 A 
BRANCH  35  36
ATOM     36  O   UNL d   1      24.963  -8.546  -5.104  0.00  0.00    -0.354 OA
ATOM     37  C   UNL d   1      23.694  -8.077  -5.536  0.00  0.00     0.210 C 
ENDBRANCH  35  36
ENDBRANCH  27  30
ENDBRANCH  25  26
ENDBRANCH  24  25
ENDBRANCH  22  24
ENDBRANCH   1  22
TORSDOF 10
ENDMDL
MODEL 6
REMARK VINA RESULT:    -8.475      4.836      9.077
REMARK INTER + INTRA:         -14.740
REMARK INTER:                 -11.458
REMARK INTRA:                  -3.283
REMARK CONF_INDEPENDENT:        2.983
REMARK UNBOUND:                -3.283
REMARK  10 active torsions:
REMARK  status: ('A' for Active; 'I' for Inactive)
REMARK    1  A    between atoms: O_2  and  C_3 
REMARK    2  A    between atoms: C_8  and  N_9 
REMARK       I    between atoms: N_9  and  C_10 
REMARK    3  A    between atoms: C_10  and  C_12 
REMARK    4  A    between atoms: C_12  and  O_13 
REMARK    5  A    between atoms: O_13  and  C_14 
REMARK    6  A    between atoms: C_16  and  C_14 
REMARK    7  A    between atoms: C_16  and  N_27 
REMARK    8  A    between atoms: C_16  and  C_17 
REMARK    9  A    between atoms: C_17  and  C_18 
REMARK       I    between atoms: N_27  and  C_28 
REMARK   10  A    between atoms: C_28  and  C_30 
ROOT
ATOM      1  C   UNL d   1      26.365 -13.527  -4.106  0.00  0.00     0.188 C 
ENDROOT
BRANCH   1   2
ATOM      2  N   UNL d   1      25.611 -12.162  -4.211  0.00  0.00    -0.342 N 
ATOM      3  C   UNL d   1      26.188 -10.917  -3.919  0.00  0.00     0.259 C 
ATOM      4  O   UNL d   1      27.301 -10.901  -3.368  0.00  0.00    -0.267 OA
ATOM      5  H   UNL d   1      24.847 -12.104  -4.879  0.00  0.00     0.163 HD
BRANCH   3   6
ATOM      6  C   UNL d   1      25.530  -9.701  -4.447  0.00  0.00     0.072 A 
ATOM      7  C   UNL d   1      25.156  -8.537  -3.794  0.00  0.00     0.025 A 
ATOM      8  C   UNL d   1      24.581  -7.550  -4.660  0.00  0.00     0.009 A 
ATOM      9  C   UNL d   1      24.425  -8.009  -5.946  0.00  0.00     0.050 A 
ATOM     10  S   UNL d   1      25.122  -9.565  -6.132  0.00  0.00    -0.097 SA
ENDBRANCH   3   6
ENDBRANCH   1   2
BRANCH   1  11
ATOM     11  C   UNL d   1      25.351 -14.573  -3.415  0.00  0.00     0.072 C 
BRANCH  11  12
ATOM     12  C   UNL d   1      26.026 -15.578  -2.457  0.00  0.00    -0.048 C 
ATOM     13  C   UNL d   1      25.377 -16.503  -1.728  0.00  0.00    -0.006 C 
ATOM     14  C   UNL d   1      24.030 -16.903  -1.645  0.00  0.00     0.014 C 
ATOM     15  C   UNL d   1      26.338 -17.178  -0.866  0.00  0.00     0.038 C 
ATOM     16  C   UNL d   1      23.529 -17.594  -0.639  0.00  0.00     0.001 C 
ATOM     17  C   UNL d   1      24.416 -18.201   0.284  0.00  0.00     0.002 C 
ATOM     18  C   UNL d   1      25.759 -18.086   0.178  0.00  0.00     0.030 C 
ATOM     19  N   UNL d   1      27.531 -16.833  -1.165  0.00  0.00    -0.385 N 
ATOM     20  C   UNL d   1      27.518 -15.738  -2.212  0.00  0.00     0.155 C 
ATOM     21  H   UNL d   1      28.337 -17.287  -0.737  0.00  0.00     0.160 HD
ENDBRANCH  11  12
ENDBRANCH   1  11
BRANCH   1  22
ATOM     22  C   UNL d   1      26.938 -14.389  -5.395  0.00  0.00     0.282 C 
ATOM     23  O   UNL d   1      26.654 -15.575  -5.584  0.00  0.00    -0.263 OA
BRANCH  22  24
ATOM     24  O   UNL d   1      27.603 -13.665  -6.336  0.00  0.00    -0.310 OA
BRANCH  24  25
ATOM     25  C   UNL d   1      28.980 -13.286  -6.006  0.00  0.00     0.281 C 
BRANCH  25  26
ATOM     26  C   UNL d   1      29.962 -14.480  -6.130  0.00  0.00     0.246 C 
ATOM     27  N   UNL d   1      29.391 -15.755  -6.077  0.00  0.00    -0.323 N 
ATOM     28  H   UNL d   1      28.537 -15.917  -6.594  0.00  0.00     0.169 HD
ATOM     29  O   UNL d   1      31.173 -14.270  -6.194  0.00  0.00    -0.271 OA
BRANCH  27  30
ATOM     30  C   UNL d   1      30.056 -16.918  -5.567  0.00  0.00     0.068 A 
ATOM     31  C   UNL d   1      30.124 -17.087  -4.165  0.00  0.00     0.032 A 
ATOM     32  C   UNL d   1      30.696 -18.236  -3.586  0.00  0.00     0.002 A 
ATOM     33  C   UNL d   1      31.212 -19.238  -4.398  0.00  0.00     0.003 A 
ATOM     34  C   UNL d   1      31.233 -19.045  -5.777  0.00  0.00     0.039 A 
ATOM     35  C   UNL d   1      30.681 -17.891  -6.369  0.00  0.00     0.095 A 
BRANCH  35  36
ATOM     36  O   UNL d   1      30.779 -17.905  -7.732  0.00  0.00    -0.354 OA
ATOM     37  C   UNL d   1      31.162 -19.110  -8.379  0.00  0.00     0.210 C 
ENDBRANCH  35  36
ENDBRANCH  27  30
ENDBRANCH  25  26
ENDBRANCH  24  25
ENDBRANCH  22  24
ENDBRANCH   1  22
TORSDOF 10
ENDMDL
MODEL 7
REMARK VINA RESULT:    -8.369      4.713      8.601
REMARK INTER + INTRA:         -15.024
REMARK INTER:                 -11.352
REMARK INTRA:                  -3.672
REMARK CONF_INDEPENDENT:        2.983
REMARK UNBOUND:                -3.672
REMARK  10 active torsions:
REMARK  status: ('A' for Active; 'I' for Inactive)
REMARK    1  A    between atoms: O_2  and  C_3 
REMARK    2  A    between atoms: C_8  and  N_9 
REMARK       I    between atoms: N_9  and  C_10 
REMARK    3  A    between atoms: C_10  and  C_12 
REMARK    4  A    between atoms: C_12  and  O_13 
REMARK    5  A    between atoms: O_13  and  C_14 
REMARK    6  A    between atoms: C_16  and  C_14 
REMARK    7  A    between atoms: C_16  and  N_27 
REMARK    8  A    between atoms: C_16  and  C_17 
REMARK    9  A    between atoms: C_17  and  C_18 
REMARK       I    between atoms: N_27  and  C_28 
REMARK   10  A    between atoms: C_28  and  C_30 
ROOT
ATOM      1  C   UNL d   1      26.361 -13.535  -4.055  0.00  0.00     0.188 C 
ENDROOT
BRANCH   1   2
ATOM      2  N   UNL d   1      25.612 -12.171  -4.194  0.00  0.00    -0.342 N 
ATOM      3  C   UNL d   1      26.190 -10.921  -3.924  0.00  0.00     0.259 C 
ATOM      4  O   UNL d   1      27.299 -10.897  -3.366  0.00  0.00    -0.267 OA
ATOM      5  H   UNL d   1      24.852 -12.125  -4.868  0.00  0.00     0.163 HD
BRANCH   3   6
ATOM      6  C   UNL d   1      25.539  -9.715  -4.482  0.00  0.00     0.072 A 
ATOM      7  C   UNL d   1      25.155  -8.540  -3.854  0.00  0.00     0.025 A 
ATOM      8  C   UNL d   1      24.591  -7.569  -4.745  0.00  0.00     0.009 A 
ATOM      9  C   UNL d   1      24.453  -8.050  -6.025  0.00  0.00     0.050 A 
ATOM     10  S   UNL d   1      25.154  -9.608  -6.174  0.00  0.00    -0.097 SA
ENDBRANCH   3   6
ENDBRANCH   1   2
BRANCH   1  11
ATOM     11  C   UNL d   1      25.351 -14.555  -3.321  0.00  0.00     0.072 C 
BRANCH  11  12
ATOM     12  C   UNL d   1      26.043 -15.609  -2.431  0.00  0.00    -0.048 C 
ATOM     13  C   UNL d   1      25.404 -16.520  -1.676  0.00  0.00    -0.006 C 
ATOM     14  C   UNL d   1      24.049 -16.862  -1.508  0.00  0.00     0.014 C 
ATOM     15  C   UNL d   1      26.390 -17.255  -0.894  0.00  0.00     0.038 C 
ATOM     16  C   UNL d   1      23.587 -17.552  -0.482  0.00  0.00     0.001 C 
ATOM     17  C   UNL d   1      24.506 -18.217   0.366  0.00  0.00     0.002 C 
ATOM     18  C   UNL d   1      25.842 -18.160   0.170  0.00  0.00     0.030 C 
ATOM     19  N   UNL d   1      27.574 -16.956  -1.268  0.00  0.00    -0.385 N 
ATOM     20  C   UNL d   1      27.540 -15.839  -2.292  0.00  0.00     0.155 C 
ATOM     21  H   UNL d   1      28.386 -17.455  -0.906  0.00  0.00     0.160 HD
ENDBRANCH  11  12
ENDBRANCH   1  11
BRANCH   1  22
ATOM     22  C   UNL d   1      26.916 -14.439  -5.323  0.00  0.00     0.282 C 
ATOM     23  O   UNL d   1      26.500 -15.575  -5.565  0.00  0.00    -0.263 OA
BRANCH  22  24
ATOM     24  O   UNL d   1      27.737 -13.788  -6.193  0.00  0.00    -0.310 OA
BRANCH  24  25
ATOM     25  C   UNL d   1      29.175 -13.989  -5.998  0.00  0.00     0.281 C 
BRANCH  25  26
ATOM     26  C   UNL d   1      29.587 -15.476  -6.164  0.00  0.00     0.246 C 
ATOM     27  N   UNL d   1      29.271 -16.325  -5.100  0.00  0.00    -0.323 N 
ATOM     28  H   UNL d   1      28.358 -16.234  -4.672  0.00  0.00     0.169 HD
ATOM     29  O   UNL d   1      30.219 -15.825  -7.160  0.00  0.00    -0.271 OA
BRANCH  27  30
ATOM     30  C   UNL d   1      30.029 -17.487  -4.739  0.00  0.00     0.068 A 
ATOM     31  C   UNL d   1      30.416 -18.376  -5.768  0.00  0.00     0.032 A 
ATOM     32  C   UNL d   1      31.222 -19.501  -5.506  0.00  0.00     0.002 A 
ATOM     33  C   UNL d   1      31.654 -19.759  -4.212  0.00  0.00     0.003 A 
ATOM     34  C   UNL d   1      31.206 -18.944  -3.176  0.00  0.00     0.039 A 
ATOM     35  C   UNL d   1      30.384 -17.825  -3.420  0.00  0.00     0.095 A 
BRANCH  35  36
ATOM     36  O   UNL d   1      30.076 -17.142  -2.277  0.00  0.00    -0.354 OA
ATOM     37  C   UNL d   1      30.930 -17.276  -1.150  0.00  0.00     0.210 C 
ENDBRANCH  35  36
ENDBRANCH  27  30
ENDBRANCH  25  26
ENDBRANCH  24  25
ENDBRANCH  22  24
ENDBRANCH   1  22
TORSDOF 10
ENDMDL
MODEL 8
REMARK VINA RESULT:    -7.380      3.514      5.930
REMARK INTER + INTRA:         -15.184
REMARK INTER:                 -10.363
REMARK INTRA:                  -4.821
REMARK CONF_INDEPENDENT:        2.983
REMARK UNBOUND:                -4.821
REMARK  10 active torsions:
REMARK  status: ('A' for Active; 'I' for Inactive)
REMARK    1  A    between atoms: O_2  and  C_3 
REMARK    2  A    between atoms: C_8  and  N_9 
REMARK       I    between atoms: N_9  and  C_10 
REMARK    3  A    between atoms: C_10  and  C_12 
REMARK    4  A    between atoms: C_12  and  O_13 
REMARK    5  A    between atoms: O_13  and  C_14 
REMARK    6  A    between atoms: C_16  and  C_14 
REMARK    7  A    between atoms: C_16  and  N_27 
REMARK    8  A    between atoms: C_16  and  C_17 
REMARK    9  A    between atoms: C_17  and  C_18 
REMARK       I    between atoms: N_27  and  C_28 
REMARK   10  A    between atoms: C_28  and  C_30 
ROOT
ATOM      1  C   UNL d   1      29.100 -14.902  -4.040  0.00  0.00     0.188 C 
ENDROOT
BRANCH   1   2
ATOM      2  N   UNL d   1      29.194 -14.771  -2.486  0.00  0.00    -0.342 N 
ATOM      3  C   UNL d   1      28.641 -13.713  -1.748  0.00  0.00     0.259 C 
ATOM      4  O   UNL d   1      28.212 -12.726  -2.368  0.00  0.00    -0.267 OA
ATOM      5  H   UNL d   1      29.280 -15.631  -1.952  0.00  0.00     0.163 HD
BRANCH   3   6
ATOM      6  C   UNL d   1      28.430 -13.909  -0.296  0.00  0.00     0.072 A 
ATOM      7  C   UNL d   1      29.328 -14.287   0.690  0.00  0.00     0.025 A 
ATOM      8  C   UNL d   1      28.758 -14.324   2.004  0.00  0.00     0.009 A 
ATOM      9  C   UNL d   1      27.406 -14.076   1.996  0.00  0.00     0.050 A 
ATOM     10  S   UNL d   1      26.871 -13.642   0.426  0.00  0.00    -0.097 SA
ENDBRANCH   3   6
ENDBRANCH   1   2
BRANCH   1  11
ATOM     11  C   UNL d   1      29.377 -16.449  -4.400  0.00  0.00     0.072 C 
BRANCH  11  12
ATOM     12  C   UNL d   1      30.149 -16.670  -5.718  0.00  0.00    -0.048 C 
ATOM     13  C   UNL d   1      30.564 -17.863  -6.178  0.00  0.00    -0.006 C 
ATOM     14  C   UNL d   1      30.395 -19.187  -5.731  0.00  0.00     0.014 C 
ATOM     15  C   UNL d   1      31.353 -17.651  -7.385  0.00  0.00     0.038 C 
ATOM     16  C   UNL d   1      31.149 -20.197  -6.122  0.00  0.00     0.001 C 
ATOM     17  C   UNL d   1      32.004 -20.021  -7.239  0.00  0.00     0.002 C 
ATOM     18  C   UNL d   1      32.084 -18.851  -7.910  0.00  0.00     0.030 C 
ATOM     19  N   UNL d   1      31.283 -16.432  -7.759  0.00  0.00    -0.385 N 
ATOM     20  C   UNL d   1      30.523 -15.608  -6.740  0.00  0.00     0.155 C 
ATOM     21  H   UNL d   1      31.685 -16.126  -8.645  0.00  0.00     0.160 HD
ENDBRANCH  11  12
ENDBRANCH   1  11
BRANCH   1  22
ATOM     22  C   UNL d   1      27.751 -14.568  -4.934  0.00  0.00     0.282 C 
ATOM     23  O   UNL d   1      27.259 -15.375  -5.728  0.00  0.00    -0.263 OA
BRANCH  22  24
ATOM     24  O   UNL d   1      27.108 -13.411  -4.616  0.00  0.00    -0.310 OA
BRANCH  24  25
ATOM     25  C   UNL d   1      25.651 -13.417  -4.774  0.00  0.00     0.281 C 
BRANCH  25  26
ATOM     26  C   UNL d   1      24.933 -14.058  -3.557  0.00  0.00     0.246 C 
ATOM     27  N   UNL d   1      25.757 -14.661  -2.603  0.00  0.00    -0.323 N 
ATOM     28  H   UNL d   1      26.601 -14.176  -2.327  0.00  0.00     0.169 HD
ATOM     29  O   UNL d   1      23.703 -14.076  -3.515  0.00  0.00    -0.271 OA
BRANCH  27  30
ATOM     30  C   UNL d   1      25.373 -15.778  -1.792  0.00  0.00     0.068 A 
ATOM     31  C   UNL d   1      24.001 -15.950  -1.500  0.00  0.00     0.032 A 
ATOM     32  C   UNL d   1      23.534 -17.060  -0.770  0.00  0.00     0.002 A 
ATOM     33  C   UNL d   1      24.431 -18.019  -0.318  0.00  0.00     0.003 A 
ATOM     34  C   UNL d   1      25.793 -17.817  -0.519  0.00  0.00     0.039 A 
ATOM     35  C   UNL d   1      26.277 -16.701  -1.232  0.00  0.00     0.095 A 
BRANCH  35  36
ATOM     36  O   UNL d   1      27.639 -16.700  -1.342  0.00  0.00    -0.354 OA
ATOM     37  C   UNL d   1      28.400 -17.465  -0.419  0.00  0.00     0.210 C 
ENDBRANCH  35  36
ENDBRANCH  27  30
ENDBRANCH  25  26
ENDBRANCH  24  25
ENDBRANCH  22  24
ENDBRANCH   1  22
TORSDOF 10
ENDMDL
MODEL 9
REMARK VINA RESULT:    -7.375      4.252      9.528
REMARK INTER + INTRA:         -14.737
REMARK INTER:                 -10.358
REMARK INTRA:                  -4.379
REMARK CONF_INDEPENDENT:        2.983
REMARK UNBOUND:                -4.379
REMARK  10 active torsions:
REMARK  status: ('A' for Active; 'I' for Inactive)
REMARK    1  A    between atoms: O_2  and  C_3 
REMARK    2  A    between atoms: C_8  and  N_9 
REMARK       I    between atoms: N_9  and  C_10 
REMARK    3  A    between atoms: C_10  and  C_12 
REMARK    4  A    between atoms: C_12  and  O_13 
REMARK    5  A    between atoms: O_13  and  C_14 
REMARK    6  A    between atoms: C_16  and  C_14 
REMARK    7  A    between atoms: C_16  and  N_27 
REMARK    8  A    between atoms: C_16  and  C_17 
REMARK    9  A    between atoms: C_17  and  C_18 
REMARK       I    between atoms: N_27  and  C_28 
REMARK   10  A    between atoms: C_28  and  C_30 
ROOT
ATOM      1  C   UNL d   1      26.627 -15.273  -3.337  0.00  0.00     0.188 C 
ENDROOT
BRANCH   1   2
ATOM      2  N   UNL d   1      28.023 -15.455  -4.015  0.00  0.00    -0.342 N 
ATOM      3  C   UNL d   1      28.259 -15.303  -5.390  0.00  0.00     0.259 C 
ATOM      4  O   UNL d   1      27.279 -15.200  -6.145  0.00  0.00    -0.267 OA
ATOM      5  H   UNL d   1      28.844 -15.273  -3.444  0.00  0.00     0.163 HD
BRANCH   3   6
ATOM      6  C   UNL d   1      29.652 -15.088  -5.839  0.00  0.00     0.072 A 
ATOM      7  C   UNL d   1      30.346 -15.663  -6.893  0.00  0.00     0.025 A 
ATOM      8  C   UNL d   1      31.680 -15.161  -7.046  0.00  0.00     0.009 A 
ATOM      9  C   UNL d   1      32.028 -14.285  -6.046  0.00  0.00     0.050 A 
ATOM     10  S   UNL d   1      30.690 -13.954  -5.026  0.00  0.00    -0.097 SA
ENDBRANCH   3   6
ENDBRANCH   1   2
BRANCH   1  11
ATOM     11  C   UNL d   1      26.886 -15.158  -1.749  0.00  0.00     0.072 C 
BRANCH  11  12
ATOM     12  C   UNL d   1      26.508 -16.421  -0.947  0.00  0.00    -0.048 C 
ATOM     13  C   UNL d   1      25.264 -16.915  -0.827  0.00  0.00    -0.006 C 
ATOM     14  C   UNL d   1      24.021 -16.560  -1.384  0.00  0.00     0.014 C 
ATOM     15  C   UNL d   1      25.294 -18.041   0.097  0.00  0.00     0.038 C 
ATOM     16  C   UNL d   1      22.858 -16.947  -0.895  0.00  0.00     0.001 C 
ATOM     17  C   UNL d   1      22.833 -17.980   0.074  0.00  0.00     0.002 C 
ATOM     18  C   UNL d   1      23.959 -18.575   0.526  0.00  0.00     0.030 C 
ATOM     19  N   UNL d   1      26.499 -18.350   0.391  0.00  0.00    -0.385 N 
ATOM     20  C   UNL d   1      27.463 -17.349  -0.212  0.00  0.00     0.155 C 
ATOM     21  H   UNL d   1      26.713 -19.182   0.939  0.00  0.00     0.160 HD
ENDBRANCH  11  12
ENDBRANCH   1  11
BRANCH   1  22
ATOM     22  C   UNL d   1      25.600 -14.010  -3.620  0.00  0.00     0.282 C 
ATOM     23  O   UNL d   1      24.463 -14.163  -4.076  0.00  0.00    -0.263 OA
BRANCH  22  24
ATOM     24  O   UNL d   1      26.015 -12.799  -3.156  0.00  0.00    -0.310 OA
BRANCH  24  25
ATOM     25  C   UNL d   1      25.530 -11.626  -3.887  0.00  0.00     0.281 C 
BRANCH  25  26
ATOM     26  C   UNL d   1      26.073 -11.574  -5.339  0.00  0.00     0.246 C 
ATOM     27  N   UNL d   1      27.220 -12.330  -5.595  0.00  0.00    -0.323 N 
ATOM     28  H   UNL d   1      27.272 -13.264  -5.208  0.00  0.00     0.169 HD
ATOM     29  O   UNL d   1      25.535 -10.838  -6.165  0.00  0.00    -0.271 OA
BRANCH  27  30
ATOM     30  C   UNL d   1      28.209 -11.993  -6.576  0.00  0.00     0.068 A 
ATOM     31  C   UNL d   1      28.155 -12.645  -7.829  0.00  0.00     0.032 A 
ATOM     32  C   UNL d   1      29.045 -12.320  -8.870  0.00  0.00     0.002 A 
ATOM     33  C   UNL d   1      30.007 -11.337  -8.678  0.00  0.00     0.003 A 
ATOM     34  C   UNL d   1      30.131 -10.750  -7.422  0.00  0.00     0.039 A 
ATOM     35  C   UNL d   1      29.259 -11.079  -6.364  0.00  0.00     0.095 A 
BRANCH  35  36
ATOM     36  O   UNL d   1      29.530 -10.377  -5.224  0.00  0.00    -0.354 OA
ATOM     37  C   UNL d   1      29.394 -11.030  -3.970  0.00  0.00     0.210 C 
ENDBRANCH  35  36
ENDBRANCH  27  30
ENDBRANCH  25  26
ENDBRANCH  24  25
ENDBRANCH  22  24
ENDBRANCH   1  22
TORSDOF 10
ENDMDL
