MODEL 1
REMARK VINA RESULT:    -7.835      0.000      0.000
REMARK INTER + INTRA:         -11.134
REMARK INTER:                  -9.625
REMARK INTRA:                  -1.509
REMARK CONF_INDEPENDENT:        1.790
REMARK UNBOUND:                -1.509
REMARK  6 active torsions:
REMARK  status: ('A' for Active; 'I' for Inactive)
REMARK    1  A    between atoms: C_2  and  C_19 
REMARK    2  A    between atoms: C_2  and  N_3 
REMARK    3  A    between atoms: N_3  and  C_4 
REMARK    4  A    between atoms: C_7  and  O_8 
REMARK    5  A    between atoms: O_8  and  C_9 
REMARK    6  A    between atoms: C_9  and  C_10 
REMARK       I    between atoms: C_19  and  N_21 
REMARK       I    between atoms: N_21  and  C_22 
REMARK       I    between atoms: C_22  and  N_23 
ROOT
ATOM      1  C   UNL d   1      23.300 -17.997  -0.006  0.00  0.00     0.028 C 
ATOM      2  C   UNL d   1      23.300 -16.799  -0.715  0.00  0.00     0.032 C 
ATOM      3  C   UNL d   1      24.404 -16.371  -1.439  0.00  0.00     0.039 C 
ATOM      4  C   UNL d   1      25.636 -16.953  -1.200  0.00  0.00     0.069 C 
ATOM      5  C   UNL d   1      25.716 -18.049  -0.350  0.00  0.00     0.039 C 
ATOM      6  C   UNL d   1      24.551 -18.575   0.230  0.00  0.00     0.032 C 
ENDROOT
BRANCH   1   7
ATOM      7  N   UNL d   1      22.153 -18.575   0.506  0.00  0.00    -0.377 N 
ATOM      8  H   UNL d   1      22.305 -19.273   1.240  0.00  0.00     0.160 HD
BRANCH   7   9
ATOM      9  C   UNL d   1      20.872 -18.771  -0.220  0.00  0.00     0.170 C 
ATOM     10  C   UNL d   1      21.007 -19.325  -1.643  0.00  0.00     0.042 C 
BRANCH   9  11
ATOM     11  C   UNL d   1      19.991 -19.780   0.579  0.00  0.00     0.247 C 
ATOM     12  O   UNL d   1      20.306 -20.150   1.713  0.00  0.00    -0.271 OA
ATOM     13  N   UNL d   1      18.844 -20.233  -0.070  0.00  0.00    -0.278 N 
ATOM     14  C   UNL d   1      17.943 -21.158   0.383  0.00  0.00     0.320 C 
ATOM     15  H   UNL d   1      18.616 -19.897  -0.995  0.00  0.00     0.173 HD
ATOM     16  N   UNL d   1      18.172 -21.685   1.600  0.00  0.00    -0.352 N 
ATOM     17  O   UNL d   1      16.970 -21.492  -0.296  0.00  0.00    -0.247 OA
ATOM     18  H   UNL d   1      18.988 -21.395   2.133  0.00  0.00     0.160 HD
ATOM     19  H   UNL d   1      17.539 -22.366   1.994  0.00  0.00     0.160 HD
ENDBRANCH   9  11
ENDBRANCH   7   9
ENDBRANCH   1   7
BRANCH   4  20
ATOM     20  O   UNL d   1      26.679 -16.306  -1.777  0.00  0.00    -0.347 OA
BRANCH  20  21
ATOM     21  C   UNL d   1      26.446 -14.988  -2.267  0.00  0.00     0.216 C 
BRANCH  21  22
ATOM     22  C   UNL d   1      27.117 -14.897  -3.612  0.00  0.00    -0.012 A 
ATOM     23  C   UNL d   1      28.274 -15.655  -3.870  0.00  0.00     0.011 A 
ATOM     24  C   UNL d   1      29.015 -15.434  -5.031  0.00  0.00     0.001 A 
ATOM     25  C   UNL d   1      28.568 -14.520  -5.983  0.00  0.00     0.002 A 
ATOM     26  C   UNL d   1      27.382 -13.820  -5.771  0.00  0.00     0.024 A 
ATOM     27  C   UNL d   1      26.650 -14.017  -4.602  0.00  0.00     0.042 A 
ATOM     28 CL   UNL d   1      25.159 -13.151  -4.448  0.00  0.00    -0.084 Cl
ENDBRANCH  21  22
ENDBRANCH  20  21
ENDBRANCH   4  20
TORSDOF 6
ENDMDL
MODEL 2
REMARK VINA RESULT:    -7.678      1.153      1.959
REMARK INTER + INTRA:         -10.962
REMARK INTER:                  -9.468
REMARK INTRA:                  -1.494
REMARK CONF_INDEPENDENT:        1.790
REMARK UNBOUND:                -1.494
REMARK  6 active torsions:
REMARK  status: ('A' for Active; 'I' for Inactive)
REMARK    1  A    between atoms: C_2  and  C_19 
REMARK    2  A    between atoms: C_2  and  N_3 
REMARK    3  A    between atoms: N_3  and  C_4 
REMARK    4  A    between atoms: C_7  and  O_8 
REMARK    5  A    between atoms: O_8  and  C_9 
REMARK    6  A    between atoms: C_9  and  C_10 
REMARK       I    between atoms: C_19  and  N_21 
REMARK       I    between atoms: N_21  and  C_22 
REMARK       I    between atoms: C_22  and  N_23 
ROOT
ATOM      1  C   UNL d   1      23.238 -17.835  -0.083  0.00  0.00     0.028 C 
ATOM      2  C   UNL d   1      24.538 -18.308   0.078  0.00  0.00     0.032 C 
ATOM      3  C   UNL d   1      25.648 -17.537  -0.243  0.00  0.00     0.039 C 
ATOM      4  C   UNL d   1      25.486 -16.418  -1.040  0.00  0.00     0.069 C 
ATOM      5  C   UNL d   1      24.203 -16.007  -1.382  0.00  0.00     0.039 C 
ATOM      6  C   UNL d   1      23.089 -16.704  -0.892  0.00  0.00     0.032 C 
ENDROOT
BRANCH   1   7
ATOM      7  N   UNL d   1      22.132 -18.462   0.459  0.00  0.00    -0.377 N 
ATOM      8  H   UNL d   1      22.332 -19.136   1.203  0.00  0.00     0.160 HD
BRANCH   7   9
ATOM      9  C   UNL d   1      20.853 -18.740  -0.244  0.00  0.00     0.170 C 
ATOM     10  C   UNL d   1      20.996 -19.325  -1.653  0.00  0.00     0.042 C 
BRANCH   9  11
ATOM     11  C   UNL d   1      20.034 -19.770   0.594  0.00  0.00     0.247 C 
ATOM     12  O   UNL d   1      20.408 -20.130   1.714  0.00  0.00    -0.271 OA
ATOM     13  N   UNL d   1      18.872 -20.253  -0.003  0.00  0.00    -0.278 N 
ATOM     14  C   UNL d   1      18.015 -21.200   0.490  0.00  0.00     0.320 C 
ATOM     15  H   UNL d   1      18.594 -19.925  -0.917  0.00  0.00     0.173 HD
ATOM     16  N   UNL d   1      18.311 -21.719   1.696  0.00  0.00    -0.352 N 
ATOM     17  O   UNL d   1      17.022 -21.560  -0.144  0.00  0.00    -0.247 OA
ATOM     18  H   UNL d   1      19.142 -21.407   2.193  0.00  0.00     0.160 HD
ATOM     19  H   UNL d   1      17.713 -22.414   2.119  0.00  0.00     0.160 HD
ENDBRANCH   9  11
ENDBRANCH   7   9
ENDBRANCH   1   7
BRANCH   4  20
ATOM     20  O   UNL d   1      26.648 -15.881  -1.488  0.00  0.00    -0.347 OA
BRANCH  20  21
ATOM     21  C   UNL d   1      26.909 -15.950  -2.888  0.00  0.00     0.216 C 
BRANCH  21  22
ATOM     22  C   UNL d   1      26.688 -14.567  -3.441  0.00  0.00    -0.012 A 
ATOM     23  C   UNL d   1      25.906 -13.643  -2.725  0.00  0.00     0.011 A 
ATOM     24  C   UNL d   1      25.530 -12.435  -3.313  0.00  0.00     0.001 A 
ATOM     25  C   UNL d   1      25.996 -12.100  -4.582  0.00  0.00     0.002 A 
ATOM     26  C   UNL d   1      26.834 -12.976  -5.269  0.00  0.00     0.024 A 
ATOM     27  C   UNL d   1      27.192 -14.196  -4.699  0.00  0.00     0.042 A 
ATOM     28 CL   UNL d   1      28.284 -15.196  -5.595  0.00  0.00    -0.084 Cl
ENDBRANCH  21  22
ENDBRANCH  20  21
ENDBRANCH   4  20
TORSDOF 6
ENDMDL
MODEL 3
REMARK VINA RESULT:    -7.441      2.913      4.474
REMARK INTER + INTRA:         -10.509
REMARK INTER:                  -9.230
REMARK INTRA:                  -1.279
REMARK CONF_INDEPENDENT:        1.790
REMARK UNBOUND:                -1.279
REMARK  6 active torsions:
REMARK  status: ('A' for Active; 'I' for Inactive)
REMARK    1  A    between atoms: C_2  and  C_19 
REMARK    2  A    between atoms: C_2  and  N_3 
REMARK    3  A    between atoms: N_3  and  C_4 
REMARK    4  A    between atoms: C_7  and  O_8 
REMARK    5  A    between atoms: O_8  and  C_9 
REMARK    6  A    between atoms: C_9  and  C_10 
REMARK       I    between atoms: C_19  and  N_21 
REMARK       I    between atoms: N_21  and  C_22 
REMARK       I    between atoms: C_22  and  N_23 
ROOT
ATOM      1  C   UNL d   1      24.949 -15.585  -2.338  0.00  0.00     0.028 C 
ATOM      2  C   UNL d   1      24.377 -14.453  -2.913  0.00  0.00     0.032 C 
ATOM      3  C   UNL d   1      24.883 -13.880  -4.072  0.00  0.00     0.039 C 
ATOM      4  C   UNL d   1      26.157 -14.216  -4.492  0.00  0.00     0.069 C 
ATOM      5  C   UNL d   1      26.847 -15.224  -3.830  0.00  0.00     0.039 C 
ATOM      6  C   UNL d   1      26.238 -15.912  -2.771  0.00  0.00     0.032 C 
ENDROOT
BRANCH   1   7
ATOM      7  N   UNL d   1      24.331 -16.326  -1.347  0.00  0.00    -0.377 N 
ATOM      8  H   UNL d   1      24.002 -15.788  -0.540  0.00  0.00     0.160 HD
BRANCH   7   9
ATOM      9  C   UNL d   1      24.603 -17.749  -1.021  0.00  0.00     0.170 C 
ATOM     10  C   UNL d   1      25.788 -17.987  -0.078  0.00  0.00     0.042 C 
BRANCH   9  11
ATOM     11  C   UNL d   1      23.343 -18.355  -0.331  0.00  0.00     0.247 C 
ATOM     12  O   UNL d   1      23.289 -18.502   0.894  0.00  0.00    -0.271 OA
ATOM     13  N   UNL d   1      22.301 -18.723  -1.180  0.00  0.00    -0.278 N 
ATOM     14  C   UNL d   1      21.122 -19.328  -0.836  0.00  0.00     0.320 C 
ATOM     15  H   UNL d   1      22.380 -18.577  -2.176  0.00  0.00     0.173 HD
ATOM     16  N   UNL d   1      20.929 -19.587   0.470  0.00  0.00    -0.352 N 
ATOM     17  O   UNL d   1      20.280 -19.621  -1.686  0.00  0.00    -0.247 OA
ATOM     18  H   UNL d   1      21.646 -19.339   1.148  0.00  0.00     0.160 HD
ATOM     19  H   UNL d   1      20.076 -20.023   0.789  0.00  0.00     0.160 HD
ENDBRANCH   9  11
ENDBRANCH   7   9
ENDBRANCH   1   7
BRANCH   4  20
ATOM     20  O   UNL d   1      26.642 -13.429  -5.486  0.00  0.00    -0.347 OA
BRANCH  20  21
ATOM     21  C   UNL d   1      27.474 -12.334  -5.112  0.00  0.00     0.216 C 
BRANCH  21  22
ATOM     22  C   UNL d   1      26.559 -11.188  -4.774  0.00  0.00    -0.012 A 
ATOM     23  C   UNL d   1      25.898 -10.491  -5.802  0.00  0.00     0.011 A 
ATOM     24  C   UNL d   1      25.210  -9.310  -5.523  0.00  0.00     0.001 A 
ATOM     25  C   UNL d   1      25.101  -8.859  -4.210  0.00  0.00     0.002 A 
ATOM     26  C   UNL d   1      25.687  -9.582  -3.174  0.00  0.00     0.024 A 
ATOM     27  C   UNL d   1      26.398 -10.748  -3.449  0.00  0.00     0.042 A 
ATOM     28 CL   UNL d   1      27.043 -11.617  -2.097  0.00  0.00    -0.084 Cl
ENDBRANCH  21  22
ENDBRANCH  20  21
ENDBRANCH   4  20
TORSDOF 6
ENDMDL
MODEL 4
REMARK VINA RESULT:    -7.305      1.706      2.577
REMARK INTER + INTRA:         -10.543
REMARK INTER:                  -9.095
REMARK INTRA:                  -1.448
REMARK CONF_INDEPENDENT:        1.790
REMARK UNBOUND:                -1.448
REMARK  6 active torsions:
REMARK  status: ('A' for Active; 'I' for Inactive)
REMARK    1  A    between atoms: C_2  and  C_19 
REMARK    2  A    between atoms: C_2  and  N_3 
REMARK    3  A    between atoms: N_3  and  C_4 
REMARK    4  A    between atoms: C_7  and  O_8 
REMARK    5  A    between atoms: O_8  and  C_9 
REMARK    6  A    between atoms: C_9  and  C_10 
REMARK       I    between atoms: C_19  and  N_21 
REMARK       I    between atoms: N_21  and  C_22 
REMARK       I    between atoms: C_22  and  N_23 
ROOT
ATOM      1  C   UNL d   1      24.977 -17.875  -0.895  0.00  0.00     0.028 C 
ATOM      2  C   UNL d   1      26.114 -18.137  -0.135  0.00  0.00     0.032 C 
ATOM      3  C   UNL d   1      27.241 -17.329  -0.192  0.00  0.00     0.039 C 
ATOM      4  C   UNL d   1      27.387 -16.446  -1.247  0.00  0.00     0.069 C 
ATOM      5  C   UNL d   1      26.340 -16.282  -2.145  0.00  0.00     0.039 C 
ATOM      6  C   UNL d   1      25.138 -16.982  -1.959  0.00  0.00     0.032 C 
ENDROOT
BRANCH   1   7
ATOM      7  N   UNL d   1      23.760 -18.495  -0.678  0.00  0.00    -0.377 N 
ATOM      8  H   UNL d   1      23.536 -19.257  -1.325  0.00  0.00     0.160 HD
BRANCH   7   9
ATOM      9  C   UNL d   1      22.552 -17.868  -0.083  0.00  0.00     0.170 C 
ATOM     10  C   UNL d   1      22.285 -16.423  -0.519  0.00  0.00     0.042 C 
BRANCH   9  11
ATOM     11  C   UNL d   1      21.300 -18.705  -0.491  0.00  0.00     0.247 C 
ATOM     12  O   UNL d   1      21.147 -19.110  -1.647  0.00  0.00    -0.271 OA
ATOM     13  N   UNL d   1      20.377 -18.951   0.523  0.00  0.00    -0.278 N 
ATOM     14  C   UNL d   1      19.177 -19.601   0.415  0.00  0.00     0.320 C 
ATOM     15  H   UNL d   1      20.544 -18.610   1.459  0.00  0.00     0.173 HD
ATOM     16  N   UNL d   1      18.849 -20.075  -0.801  0.00  0.00    -0.352 N 
ATOM     17  O   UNL d   1      18.434 -19.742   1.388  0.00  0.00    -0.247 OA
ATOM     18  H   UNL d   1      19.480 -19.937  -1.587  0.00  0.00     0.160 HD
ATOM     19  H   UNL d   1      17.982 -20.572  -0.944  0.00  0.00     0.160 HD
ENDBRANCH   9  11
ENDBRANCH   7   9
ENDBRANCH   1   7
BRANCH   4  20
ATOM     20  O   UNL d   1      28.619 -15.885  -1.337  0.00  0.00    -0.347 OA
BRANCH  20  21
ATOM     21  C   UNL d   1      28.822 -14.906  -2.352  0.00  0.00     0.216 C 
BRANCH  21  22
ATOM     22  C   UNL d   1      29.286 -15.642  -3.581  0.00  0.00    -0.012 A 
ATOM     23  C   UNL d   1      30.346 -16.561  -3.489  0.00  0.00     0.011 A 
ATOM     24  C   UNL d   1      30.914 -17.099  -4.644  0.00  0.00     0.001 A 
ATOM     25  C   UNL d   1      30.380 -16.793  -5.894  0.00  0.00     0.002 A 
ATOM     26  C   UNL d   1      29.281 -15.943  -5.991  0.00  0.00     0.024 A 
ATOM     27  C   UNL d   1      28.725 -15.382  -4.843  0.00  0.00     0.042 A 
ATOM     28 CL   UNL d   1      27.325 -14.385  -5.050  0.00  0.00    -0.084 Cl
ENDBRANCH  21  22
ENDBRANCH  20  21
ENDBRANCH   4  20
TORSDOF 6
ENDMDL
MODEL 5
REMARK VINA RESULT:    -7.219      2.816      4.173
REMARK INTER + INTRA:         -10.737
REMARK INTER:                  -9.009
REMARK INTRA:                  -1.728
REMARK CONF_INDEPENDENT:        1.790
REMARK UNBOUND:                -1.728
REMARK  6 active torsions:
REMARK  status: ('A' for Active; 'I' for Inactive)
REMARK    1  A    between atoms: C_2  and  C_19 
REMARK    2  A    between atoms: C_2  and  N_3 
REMARK    3  A    between atoms: N_3  and  C_4 
REMARK    4  A    between atoms: C_7  and  O_8 
REMARK    5  A    between atoms: O_8  and  C_9 
REMARK    6  A    between atoms: C_9  and  C_10 
REMARK       I    between atoms: C_19  and  N_21 
REMARK       I    between atoms: N_21  and  C_22 
REMARK       I    between atoms: C_22  and  N_23 
ROOT
ATOM      1  C   UNL d   1      25.192 -18.051  -0.598  0.00  0.00     0.028 C 
ATOM      2  C   UNL d   1      26.205 -18.421   0.283  0.00  0.00     0.032 C 
ATOM      3  C   UNL d   1      27.383 -17.697   0.396  0.00  0.00     0.039 C 
ATOM      4  C   UNL d   1      27.719 -16.792  -0.595  0.00  0.00     0.069 C 
ATOM      5  C   UNL d   1      26.806 -16.522  -1.606  0.00  0.00     0.039 C 
ATOM      6  C   UNL d   1      25.545 -17.138  -1.596  0.00  0.00     0.032 C 
ENDROOT
BRANCH   1   7
ATOM      7  N   UNL d   1      23.918 -18.587  -0.556  0.00  0.00    -0.377 N 
ATOM      8  H   UNL d   1      23.704 -19.264  -1.294  0.00  0.00     0.160 HD
BRANCH   7   9
ATOM      9  C   UNL d   1      22.706 -17.921  -0.014  0.00  0.00     0.170 C 
ATOM     10  C   UNL d   1      22.505 -16.468  -0.459  0.00  0.00     0.042 C 
BRANCH   9  11
ATOM     11  C   UNL d   1      21.447 -18.717  -0.477  0.00  0.00     0.247 C 
ATOM     12  O   UNL d   1      21.322 -19.101  -1.643  0.00  0.00    -0.271 OA
ATOM     13  N   UNL d   1      20.482 -18.952   0.501  0.00  0.00    -0.278 N 
ATOM     14  C   UNL d   1      19.270 -19.567   0.342  0.00  0.00     0.320 C 
ATOM     15  H   UNL d   1      20.626 -18.630   1.447  0.00  0.00     0.173 HD
ATOM     16  N   UNL d   1      18.971 -20.014  -0.892  0.00  0.00    -0.352 N 
ATOM     17  O   UNL d   1      18.490 -19.702   1.286  0.00  0.00    -0.247 OA
ATOM     18  H   UNL d   1      19.633 -19.882  -1.653  0.00  0.00     0.160 HD
ATOM     19  H   UNL d   1      18.097 -20.485  -1.072  0.00  0.00     0.160 HD
ENDBRANCH   9  11
ENDBRANCH   7   9
ENDBRANCH   1   7
BRANCH   4  20
ATOM     20  O   UNL d   1      28.989 -16.321  -0.512  0.00  0.00    -0.347 OA
BRANCH  20  21
ATOM     21  C   UNL d   1      29.179 -14.915  -0.652  0.00  0.00     0.216 C 
BRANCH  21  22
ATOM     22  C   UNL d   1      28.485 -14.263   0.514  0.00  0.00    -0.012 A 
ATOM     23  C   UNL d   1      28.979 -14.452   1.818  0.00  0.00     0.011 A 
ATOM     24  C   UNL d   1      28.239 -14.022   2.920  0.00  0.00     0.001 A 
ATOM     25  C   UNL d   1      27.046 -13.329   2.733  0.00  0.00     0.002 A 
ATOM     26  C   UNL d   1      26.586 -13.070   1.444  0.00  0.00     0.024 A 
ATOM     27  C   UNL d   1      27.307 -13.518   0.339  0.00  0.00     0.042 A 
ATOM     28 CL   UNL d   1      26.695 -13.101  -1.226  0.00  0.00    -0.084 Cl
ENDBRANCH  21  22
ENDBRANCH  20  21
ENDBRANCH   4  20
TORSDOF 6
ENDMDL
MODEL 6
REMARK VINA RESULT:    -7.173      6.943      9.566
REMARK INTER + INTRA:         -10.659
REMARK INTER:                  -8.963
REMARK INTRA:                  -1.696
REMARK CONF_INDEPENDENT:        1.790
REMARK UNBOUND:                -1.696
REMARK  6 active torsions:
REMARK  status: ('A' for Active; 'I' for Inactive)
REMARK    1  A    between atoms: C_2  and  C_19 
REMARK    2  A    between atoms: C_2  and  N_3 
REMARK    3  A    between atoms: N_3  and  C_4 
REMARK    4  A    between atoms: C_7  and  O_8 
REMARK    5  A    between atoms: O_8  and  C_9 
REMARK    6  A    between atoms: C_9  and  C_10 
REMARK       I    between atoms: C_19  and  N_21 
REMARK       I    between atoms: N_21  and  C_22 
REMARK       I    between atoms: C_22  and  N_23 
ROOT
ATOM      1  C   UNL d   1      27.467 -13.564   3.321  0.00  0.00     0.028 C 
ATOM      2  C   UNL d   1      26.994 -12.704   2.333  0.00  0.00     0.032 C 
ATOM      3  C   UNL d   1      26.674 -13.152   1.058  0.00  0.00     0.039 C 
ATOM      4  C   UNL d   1      27.135 -14.387   0.640  0.00  0.00     0.069 C 
ATOM      5  C   UNL d   1      27.781 -15.215   1.550  0.00  0.00     0.039 C 
ATOM      6  C   UNL d   1      27.931 -14.809   2.885  0.00  0.00     0.032 C 
ENDROOT
BRANCH   1   7
ATOM      7  N   UNL d   1      27.549 -13.213   4.656  0.00  0.00    -0.377 N 
ATOM      8  H   UNL d   1      27.418 -12.217   4.854  0.00  0.00     0.160 HD
BRANCH   7   9
ATOM      9  C   UNL d   1      28.349 -13.908   5.696  0.00  0.00     0.170 C 
ATOM     10  C   UNL d   1      29.824 -14.130   5.346  0.00  0.00     0.042 C 
BRANCH   9  11
ATOM     11  C   UNL d   1      28.315 -13.062   7.005  0.00  0.00     0.247 C 
ATOM     12  O   UNL d   1      27.977 -11.874   6.994  0.00  0.00    -0.271 OA
ATOM     13  N   UNL d   1      28.695 -13.726   8.170  0.00  0.00    -0.278 N 
ATOM     14  C   UNL d   1      28.809 -13.199   9.428  0.00  0.00     0.320 C 
ATOM     15  H   UNL d   1      28.954 -14.701   8.138  0.00  0.00     0.173 HD
ATOM     16  N   UNL d   1      28.506 -11.895   9.572  0.00  0.00    -0.352 N 
ATOM     17  O   UNL d   1      29.173 -13.888  10.382  0.00  0.00    -0.247 OA
ATOM     18  H   UNL d   1      28.215 -11.350   8.764  0.00  0.00     0.160 HD
ATOM     19  H   UNL d   1      28.561 -11.450  10.476  0.00  0.00     0.160 HD
ENDBRANCH   9  11
ENDBRANCH   7   9
ENDBRANCH   1   7
BRANCH   4  20
ATOM     20  O   UNL d   1      26.974 -14.622  -0.687  0.00  0.00    -0.347 OA
BRANCH  20  21
ATOM     21  C   UNL d   1      27.089 -15.970  -1.135  0.00  0.00     0.216 C 
BRANCH  21  22
ATOM     22  C   UNL d   1      25.743 -16.612  -0.933  0.00  0.00    -0.012 A 
ATOM     23  C   UNL d   1      24.603 -16.057  -1.541  0.00  0.00     0.011 A 
ATOM     24  C   UNL d   1      23.330 -16.518  -1.206  0.00  0.00     0.001 A 
ATOM     25  C   UNL d   1      23.184 -17.590  -0.328  0.00  0.00     0.002 A 
ATOM     26  C   UNL d   1      24.311 -18.197   0.221  0.00  0.00     0.024 A 
ATOM     27  C   UNL d   1      25.584 -17.724  -0.089  0.00  0.00     0.042 A 
ATOM     28 CL   UNL d   1      26.930 -18.575   0.590  0.00  0.00    -0.084 Cl
ENDBRANCH  21  22
ENDBRANCH  20  21
ENDBRANCH   4  20
TORSDOF 6
ENDMDL
MODEL 7
REMARK VINA RESULT:    -7.119      6.596      9.298
REMARK INTER + INTRA:         -10.588
REMARK INTER:                  -8.909
REMARK INTRA:                  -1.680
REMARK CONF_INDEPENDENT:        1.790
REMARK UNBOUND:                -1.680
REMARK  6 active torsions:
REMARK  status: ('A' for Active; 'I' for Inactive)
REMARK    1  A    between atoms: C_2  and  C_19 
REMARK    2  A    between atoms: C_2  and  N_3 
REMARK    3  A    between atoms: N_3  and  C_4 
REMARK    4  A    between atoms: C_7  and  O_8 
REMARK    5  A    between atoms: O_8  and  C_9 
REMARK    6  A    between atoms: C_9  and  C_10 
REMARK       I    between atoms: C_19  and  N_21 
REMARK       I    between atoms: N_21  and  C_22 
REMARK       I    between atoms: C_22  and  N_23 
ROOT
ATOM      1  C   UNL d   1      27.423 -13.685   3.025  0.00  0.00     0.028 C 
ATOM      2  C   UNL d   1      28.054 -14.825   2.533  0.00  0.00     0.032 C 
ATOM      3  C   UNL d   1      28.209 -15.053   1.173  0.00  0.00     0.039 C 
ATOM      4  C   UNL d   1      27.449 -14.326   0.274  0.00  0.00     0.069 C 
ATOM      5  C   UNL d   1      26.656 -13.285   0.742  0.00  0.00     0.039 C 
ATOM      6  C   UNL d   1      26.657 -12.960   2.106  0.00  0.00     0.032 C 
ENDROOT
BRANCH   1   7
ATOM      7  N   UNL d   1      27.477 -13.301   4.352  0.00  0.00    -0.377 N 
ATOM      8  H   UNL d   1      27.408 -12.293   4.518  0.00  0.00     0.160 HD
BRANCH   7   9
ATOM      9  C   UNL d   1      28.185 -14.019   5.442  0.00  0.00     0.170 C 
ATOM     10  C   UNL d   1      29.648 -14.373   5.149  0.00  0.00     0.042 C 
BRANCH   9  11
ATOM     11  C   UNL d   1      28.182 -13.123   6.719  0.00  0.00     0.247 C 
ATOM     12  O   UNL d   1      27.815 -11.945   6.676  0.00  0.00    -0.271 OA
ATOM     13  N   UNL d   1      28.623 -13.732   7.891  0.00  0.00    -0.278 N 
ATOM     14  C   UNL d   1      28.773 -13.154   9.123  0.00  0.00     0.320 C 
ATOM     15  H   UNL d   1      28.905 -14.702   7.887  0.00  0.00     0.173 HD
ATOM     16  N   UNL d   1      28.445 -11.854   9.229  0.00  0.00    -0.352 N 
ATOM     17  O   UNL d   1      29.191 -13.798  10.087  0.00  0.00    -0.247 OA
ATOM     18  H   UNL d   1      28.109 -11.347   8.414  0.00  0.00     0.160 HD
ATOM     19  H   UNL d   1      28.524 -11.373  10.113  0.00  0.00     0.160 HD
ENDBRANCH   9  11
ENDBRANCH   7   9
ENDBRANCH   1   7
BRANCH   4  20
ATOM     20  O   UNL d   1      27.499 -14.788  -1.000  0.00  0.00    -0.347 OA
BRANCH  20  21
ATOM     21  C   UNL d   1      27.476 -16.200  -1.189  0.00  0.00     0.216 C 
BRANCH  21  22
ATOM     22  C   UNL d   1      26.094 -16.667  -0.814  0.00  0.00    -0.012 A 
ATOM     23  C   UNL d   1      25.929 -17.613   0.214  0.00  0.00     0.011 A 
ATOM     24  C   UNL d   1      24.683 -18.200   0.437  0.00  0.00     0.001 A 
ATOM     25  C   UNL d   1      23.576 -17.791  -0.301  0.00  0.00     0.002 A 
ATOM     26  C   UNL d   1      23.713 -16.799  -1.270  0.00  0.00     0.024 A 
ATOM     27  C   UNL d   1      24.960 -16.228  -1.516  0.00  0.00     0.042 A 
ATOM     28 CL   UNL d   1      25.029 -14.961  -2.694  0.00  0.00    -0.084 Cl
ENDBRANCH  21  22
ENDBRANCH  20  21
ENDBRANCH   4  20
TORSDOF 6
ENDMDL
MODEL 8
REMARK VINA RESULT:    -6.721      1.971      2.954
REMARK INTER + INTRA:         -10.376
REMARK INTER:                  -8.510
REMARK INTRA:                  -1.866
REMARK CONF_INDEPENDENT:        1.790
REMARK UNBOUND:                -1.866
REMARK  6 active torsions:
REMARK  status: ('A' for Active; 'I' for Inactive)
REMARK    1  A    between atoms: C_2  and  C_19 
REMARK    2  A    between atoms: C_2  and  N_3 
REMARK    3  A    between atoms: N_3  and  C_4 
REMARK    4  A    between atoms: C_7  and  O_8 
REMARK    5  A    between atoms: O_8  and  C_9 
REMARK    6  A    between atoms: C_9  and  C_10 
REMARK       I    between atoms: C_19  and  N_21 
REMARK       I    between atoms: N_21  and  C_22 
REMARK       I    between atoms: C_22  and  N_23 
ROOT
ATOM      1  C   UNL d   1      24.761 -17.158  -1.743  0.00  0.00     0.028 C 
ATOM      2  C   UNL d   1      26.028 -17.266  -1.175  0.00  0.00     0.032 C 
ATOM      3  C   UNL d   1      26.811 -16.152  -0.902  0.00  0.00     0.039 C 
ATOM      4  C   UNL d   1      26.494 -14.942  -1.493  0.00  0.00     0.069 C 
ATOM      5  C   UNL d   1      25.321 -14.832  -2.229  0.00  0.00     0.039 C 
ATOM      6  C   UNL d   1      24.454 -15.930  -2.338  0.00  0.00     0.032 C 
ENDROOT
BRANCH   1   7
ATOM      7  N   UNL d   1      23.860 -18.205  -1.790  0.00  0.00    -0.377 N 
ATOM      8  H   UNL d   1      23.218 -18.194  -2.588  0.00  0.00     0.160 HD
BRANCH   7   9
ATOM      9  C   UNL d   1      23.317 -18.946  -0.623  0.00  0.00     0.170 C 
ATOM     10  C   UNL d   1      23.403 -18.206   0.717  0.00  0.00     0.042 C 
BRANCH   9  11
ATOM     11  C   UNL d   1      21.808 -19.249  -0.879  0.00  0.00     0.247 C 
ATOM     12  O   UNL d   1      21.353 -19.325  -2.024  0.00  0.00    -0.271 OA
ATOM     13  N   UNL d   1      21.020 -19.416   0.258  0.00  0.00    -0.278 N 
ATOM     14  C   UNL d   1      19.668 -19.629   0.308  0.00  0.00     0.320 C 
ATOM     15  H   UNL d   1      21.432 -19.357   1.177  0.00  0.00     0.173 HD
ATOM     16  N   UNL d   1      19.019 -19.702  -0.868  0.00  0.00    -0.352 N 
ATOM     17  O   UNL d   1      19.077 -19.745   1.383  0.00  0.00    -0.247 OA
ATOM     18  H   UNL d   1      19.534 -19.595  -1.739  0.00  0.00     0.160 HD
ATOM     19  H   UNL d   1      18.024 -19.866  -0.898  0.00  0.00     0.160 HD
ENDBRANCH   9  11
ENDBRANCH   7   9
ENDBRANCH   1   7
BRANCH   4  20
ATOM     20  O   UNL d   1      27.449 -13.988  -1.355  0.00  0.00    -0.347 OA
BRANCH  20  21
ATOM     21  C   UNL d   1      28.728 -14.251  -1.926  0.00  0.00     0.216 C 
BRANCH  21  22
ATOM     22  C   UNL d   1      28.535 -14.312  -3.418  0.00  0.00    -0.012 A 
ATOM     23  C   UNL d   1      27.773 -13.325  -4.067  0.00  0.00     0.011 A 
ATOM     24  C   UNL d   1      27.421 -13.475  -5.409  0.00  0.00     0.001 A 
ATOM     25  C   UNL d   1      27.893 -14.565  -6.137  0.00  0.00     0.002 A 
ATOM     26  C   UNL d   1      28.712 -15.510  -5.523  0.00  0.00     0.024 A 
ATOM     27  C   UNL d   1      29.046 -15.379  -4.176  0.00  0.00     0.042 A 
ATOM     28 CL   UNL d   1      30.117 -16.564  -3.510  0.00  0.00    -0.084 Cl
ENDBRANCH  21  22
ENDBRANCH  20  21
ENDBRANCH   4  20
TORSDOF 6
ENDMDL
MODEL 9
REMARK VINA RESULT:    -6.714      3.529      4.857
REMARK INTER + INTRA:         -10.264
REMARK INTER:                  -8.504
REMARK INTRA:                  -1.761
REMARK CONF_INDEPENDENT:        1.790
REMARK UNBOUND:                -1.761
REMARK  6 active torsions:
REMARK  status: ('A' for Active; 'I' for Inactive)
REMARK    1  A    between atoms: C_2  and  C_19 
REMARK    2  A    between atoms: C_2  and  N_3 
REMARK    3  A    between atoms: N_3  and  C_4 
REMARK    4  A    between atoms: C_7  and  O_8 
REMARK    5  A    between atoms: O_8  and  C_9 
REMARK    6  A    between atoms: C_9  and  C_10 
REMARK       I    between atoms: C_19  and  N_21 
REMARK       I    between atoms: N_21  and  C_22 
REMARK       I    between atoms: C_22  and  N_23 
ROOT
ATOM      1  C   UNL d   1      25.248 -16.874  -1.469  0.00  0.00     0.028 C 
ATOM      2  C   UNL d   1      26.283 -17.420  -0.714  0.00  0.00     0.032 C 
ATOM      3  C   UNL d   1      27.418 -16.692  -0.383  0.00  0.00     0.039 C 
ATOM      4  C   UNL d   1      27.697 -15.526  -1.072  0.00  0.00     0.069 C 
ATOM      5  C   UNL d   1      26.767 -15.032  -1.978  0.00  0.00     0.039 C 
ATOM      6  C   UNL d   1      25.545 -15.696  -2.161  0.00  0.00     0.032 C 
ENDROOT
BRANCH   1   7
ATOM      7  N   UNL d   1      24.008 -17.471  -1.599  0.00  0.00    -0.377 N 
ATOM      8  H   UNL d   1      23.303 -16.913  -2.089  0.00  0.00     0.160 HD
BRANCH   7   9
ATOM      9  C   UNL d   1      23.413 -18.464  -0.668  0.00  0.00     0.170 C 
ATOM     10  C   UNL d   1      23.694 -18.216   0.818  0.00  0.00     0.042 C 
BRANCH   9  11
ATOM     11  C   UNL d   1      21.864 -18.453  -0.846  0.00  0.00     0.247 C 
ATOM     12  O   UNL d   1      21.272 -17.456  -1.269  0.00  0.00    -0.271 OA
ATOM     13  N   UNL d   1      21.202 -19.627  -0.492  0.00  0.00    -0.278 N 
ATOM     14  C   UNL d   1      19.852 -19.855  -0.496  0.00  0.00     0.320 C 
ATOM     15  H   UNL d   1      21.724 -20.426  -0.160  0.00  0.00     0.173 HD
ATOM     16  N   UNL d   1      19.065 -18.841  -0.901  0.00  0.00    -0.352 N 
ATOM     17  O   UNL d   1      19.383 -20.938  -0.141  0.00  0.00    -0.247 OA
ATOM     18  H   UNL d   1      19.482 -17.957  -1.181  0.00  0.00     0.160 HD
ATOM     19  H   UNL d   1      18.062 -18.950  -0.936  0.00  0.00     0.160 HD
ENDBRANCH   9  11
ENDBRANCH   7   9
ENDBRANCH   1   7
BRANCH   4  20
ATOM     20  O   UNL d   1      28.937 -15.025  -0.840  0.00  0.00    -0.347 OA
BRANCH  20  21
ATOM     21  C   UNL d   1      29.025 -13.708  -0.304  0.00  0.00     0.216 C 
BRANCH  21  22
ATOM     22  C   UNL d   1      29.040 -13.848   1.195  0.00  0.00    -0.012 A 
ATOM     23  C   UNL d   1      30.249 -14.118   1.862  0.00  0.00     0.011 A 
ATOM     24  C   UNL d   1      30.248 -14.445   3.218  0.00  0.00     0.001 A 
ATOM     25  C   UNL d   1      29.057 -14.425   3.940  0.00  0.00     0.002 A 
ATOM     26  C   UNL d   1      27.864 -14.084   3.307  0.00  0.00     0.024 A 
ATOM     27  C   UNL d   1      27.855 -13.781   1.947  0.00  0.00     0.042 A 
ATOM     28 CL   UNL d   1      26.340 -13.310   1.253  0.00  0.00    -0.084 Cl
ENDBRANCH  21  22
ENDBRANCH  20  21
ENDBRANCH   4  20
TORSDOF 6
ENDMDL
