MODEL 1
REMARK VINA RESULT:    -5.545      0.000      0.000
REMARK INTER + INTRA:         -10.409
REMARK INTER:                  -7.335
REMARK INTRA:                  -3.074
REMARK CONF_INDEPENDENT:        1.790
REMARK UNBOUND:                -3.074
REMARK  6 active torsions:
REMARK  status: ('A' for Active; 'I' for Inactive)
REMARK    1  A    between atoms: C_2  and  C_3 
REMARK       I    between atoms: C_2  and  N_11 
REMARK    2  A    between atoms: C_3  and  O_4 
REMARK    3  A    between atoms: O_4  and  C_5 
REMARK    4  A    between atoms: N_11  and  N_12 
REMARK       I    between atoms: N_12  and  C_13 
REMARK    5  A    between atoms: C_13  and  C_15 
REMARK    6  A    between atoms: C_20  and  O_21 
ROOT
ATOM      1  O   UNL d   1      30.796 -16.839  -0.803  0.00  0.00    -0.269 OA
ATOM      2  C   UNL d   1      29.612 -16.606  -1.058  0.00  0.00     0.260 C 
ATOM      3  N   UNL d   1      28.627 -17.343  -0.430  0.00  0.00    -0.265 N 
ATOM      4  H   UNL d   1      28.925 -18.063   0.229  0.00  0.00     0.190 HD
ENDROOT
BRANCH   3   5
ATOM      5  N   UNL d   1      27.242 -17.134  -0.543  0.00  0.00    -0.263 N 
ATOM      6  C   UNL d   1      26.376 -17.984   0.131  0.00  0.00     0.272 C 
ATOM      7  O   UNL d   1      26.752 -18.839   0.937  0.00  0.00    -0.266 OA
ATOM      8  H   UNL d   1      26.873 -16.558  -1.295  0.00  0.00     0.190 HD
BRANCH   6   9
ATOM      9  C   UNL d   1      24.921 -17.818  -0.155  0.00  0.00     0.066 A 
ATOM     10  C   UNL d   1      24.089 -18.950  -0.145  0.00  0.00     0.020 A 
ATOM     11  C   UNL d   1      22.747 -18.848  -0.532  0.00  0.00     0.001 A 
ATOM     12  C   UNL d   1      22.217 -17.610  -0.890  0.00  0.00     0.003 A 
ATOM     13  C   UNL d   1      23.030 -16.474  -0.886  0.00  0.00     0.037 A 
ATOM     14  C   UNL d   1      24.375 -16.579  -0.511  0.00  0.00     0.081 A 
BRANCH  14  15
ATOM     15  O   UNL d   1      25.161 -15.458  -0.493  0.00  0.00    -0.360 OA
ATOM     16  H   UNL d   1      25.966 -15.627  -1.014  0.00  0.00     0.217 HD
ENDBRANCH  14  15
ENDBRANCH   6   9
ENDBRANCH   3   5
BRANCH   2  17
ATOM     17  C   UNL d   1      29.176 -15.513  -2.042  0.00  0.00     0.280 C 
BRANCH  17  18
ATOM     18  O   UNL d   1      27.937 -14.905  -1.664  0.00  0.00    -0.342 OA
BRANCH  18  19
ATOM     19  C   UNL d   1      27.067 -14.630  -2.688  0.00  0.00     0.069 A 
ATOM     20  C   UNL d   1      26.208 -13.540  -2.514  0.00  0.00     0.037 A 
ATOM     21  C   UNL d   1      25.237 -13.243  -3.478  0.00  0.00     0.003 A 
ATOM     22  C   UNL d   1      25.153 -14.005  -4.641  0.00  0.00     0.000 A 
ATOM     23  C   UNL d   1      25.996 -15.099  -4.811  0.00  0.00     0.003 A 
ATOM     24  C   UNL d   1      26.935 -15.423  -3.828  0.00  0.00     0.037 A 
ENDBRANCH  18  19
ENDBRANCH  17  18
ENDBRANCH   2  17
TORSDOF 6
ENDMDL
MODEL 2
REMARK VINA RESULT:    -5.379      2.921      6.492
REMARK INTER + INTRA:          -9.940
REMARK INTER:                  -7.169
REMARK INTRA:                  -2.771
REMARK CONF_INDEPENDENT:        1.790
REMARK UNBOUND:                -2.771
REMARK  6 active torsions:
REMARK  status: ('A' for Active; 'I' for Inactive)
REMARK    1  A    between atoms: C_2  and  C_3 
REMARK       I    between atoms: C_2  and  N_11 
REMARK    2  A    between atoms: C_3  and  O_4 
REMARK    3  A    between atoms: O_4  and  C_5 
REMARK    4  A    between atoms: N_11  and  N_12 
REMARK       I    between atoms: N_12  and  C_13 
REMARK    5  A    between atoms: C_13  and  C_15 
REMARK    6  A    between atoms: C_20  and  O_21 
ROOT
ATOM      1  O   UNL d   1      24.141 -13.698  -4.272  0.00  0.00    -0.269 OA
ATOM      2  C   UNL d   1      25.162 -14.224  -3.825  0.00  0.00     0.260 C 
ATOM      3  N   UNL d   1      26.089 -14.757  -4.700  0.00  0.00    -0.265 N 
ATOM      4  H   UNL d   1      25.885 -14.693  -5.698  0.00  0.00     0.190 HD
ENDROOT
BRANCH   3   5
ATOM      5  N   UNL d   1      27.337 -15.300  -4.351  0.00  0.00    -0.263 N 
ATOM      6  C   UNL d   1      28.264 -15.553  -5.352  0.00  0.00     0.272 C 
ATOM      7  O   UNL d   1      28.110 -15.205  -6.526  0.00  0.00    -0.266 OA
ATOM      8  H   UNL d   1      27.465 -15.741  -3.444  0.00  0.00     0.190 HD
BRANCH   6   9
ATOM      9  C   UNL d   1      29.503 -16.278  -4.946  0.00  0.00     0.066 A 
ATOM     10  C   UNL d   1      30.326 -16.835  -5.940  0.00  0.00     0.020 A 
ATOM     11  C   UNL d   1      31.425 -17.628  -5.589  0.00  0.00     0.001 A 
ATOM     12  C   UNL d   1      31.734 -17.837  -4.246  0.00  0.00     0.003 A 
ATOM     13  C   UNL d   1      30.934 -17.273  -3.250  0.00  0.00     0.037 A 
ATOM     14  C   UNL d   1      29.827 -16.491  -3.601  0.00  0.00     0.081 A 
BRANCH  14  15
ATOM     15  O   UNL d   1      29.058 -15.928  -2.618  0.00  0.00    -0.360 OA
ATOM     16  H   UNL d   1      28.212 -16.406  -2.565  0.00  0.00     0.217 HD
ENDBRANCH  14  15
ENDBRANCH   6   9
ENDBRANCH   3   5
BRANCH   2  17
ATOM     17  C   UNL d   1      25.464 -14.304  -2.323  0.00  0.00     0.280 C 
BRANCH  17  18
ATOM     18  O   UNL d   1      26.235 -15.460  -1.984  0.00  0.00    -0.342 OA
BRANCH  18  19
ATOM     19  C   UNL d   1      25.569 -16.449  -1.308  0.00  0.00     0.069 A 
ATOM     20  C   UNL d   1      26.317 -17.220  -0.412  0.00  0.00     0.037 A 
ATOM     21  C   UNL d   1      25.728 -18.299   0.258  0.00  0.00     0.003 A 
ATOM     22  C   UNL d   1      24.377 -18.583   0.070  0.00  0.00     0.000 A 
ATOM     23  C   UNL d   1      23.633 -17.827  -0.831  0.00  0.00     0.003 A 
ATOM     24  C   UNL d   1      24.232 -16.778  -1.533  0.00  0.00     0.037 A 
ENDBRANCH  18  19
ENDBRANCH  17  18
ENDBRANCH   2  17
TORSDOF 6
ENDMDL
MODEL 3
REMARK VINA RESULT:    -5.102      3.998      5.902
REMARK INTER + INTRA:          -9.713
REMARK INTER:                  -6.892
REMARK INTRA:                  -2.821
REMARK CONF_INDEPENDENT:        1.790
REMARK UNBOUND:                -2.821
REMARK  6 active torsions:
REMARK  status: ('A' for Active; 'I' for Inactive)
REMARK    1  A    between atoms: C_2  and  C_3 
REMARK       I    between atoms: C_2  and  N_11 
REMARK    2  A    between atoms: C_3  and  O_4 
REMARK    3  A    between atoms: O_4  and  C_5 
REMARK    4  A    between atoms: N_11  and  N_12 
REMARK       I    between atoms: N_12  and  C_13 
REMARK    5  A    between atoms: C_13  and  C_15 
REMARK    6  A    between atoms: C_20  and  O_21 
ROOT
ATOM      1  O   UNL d   1      31.086 -16.167  -1.974  0.00  0.00    -0.269 OA
ATOM      2  C   UNL d   1      30.439 -16.189  -0.925  0.00  0.00     0.260 C 
ATOM      3  N   UNL d   1      30.775 -15.323   0.097  0.00  0.00    -0.265 N 
ATOM      4  H   UNL d   1      31.560 -14.690  -0.061  0.00  0.00     0.190 HD
ENDROOT
BRANCH   3   5
ATOM      5  N   UNL d   1      30.078 -15.164   1.306  0.00  0.00    -0.263 N 
ATOM      6  C   UNL d   1      30.363 -14.067   2.107  0.00  0.00     0.272 C 
ATOM      7  O   UNL d   1      31.104 -13.143   1.759  0.00  0.00    -0.266 OA
ATOM      8  H   UNL d   1      29.579 -15.949   1.715  0.00  0.00     0.190 HD
BRANCH   6   9
ATOM      9  C   UNL d   1      29.715 -14.035   3.451  0.00  0.00     0.066 A 
ATOM     10  C   UNL d   1      30.399 -13.443   4.526  0.00  0.00     0.020 A 
ATOM     11  C   UNL d   1      29.874 -13.508   5.823  0.00  0.00     0.001 A 
ATOM     12  C   UNL d   1      28.646 -14.128   6.048  0.00  0.00     0.003 A 
ATOM     13  C   UNL d   1      27.949 -14.703   4.984  0.00  0.00     0.037 A 
ATOM     14  C   UNL d   1      28.480 -14.649   3.689  0.00  0.00     0.081 A 
BRANCH  14  15
ATOM     15  O   UNL d   1      27.781 -15.201   2.649  0.00  0.00    -0.360 OA
ATOM     16  H   UNL d   1      28.299 -15.935   2.274  0.00  0.00     0.217 HD
ENDBRANCH  14  15
ENDBRANCH   6   9
ENDBRANCH   3   5
BRANCH   2  17
ATOM     17  C   UNL d   1      29.253 -17.137  -0.703  0.00  0.00     0.280 C 
BRANCH  17  18
ATOM     18  O   UNL d   1      28.274 -16.584   0.182  0.00  0.00    -0.342 OA
BRANCH  18  19
ATOM     19  C   UNL d   1      26.970 -16.914  -0.084  0.00  0.00     0.069 A 
ATOM     20  C   UNL d   1      26.279 -16.094  -0.982  0.00  0.00     0.037 A 
ATOM     21  C   UNL d   1      24.922 -16.317  -1.245  0.00  0.00     0.003 A 
ATOM     22  C   UNL d   1      24.263 -17.390  -0.649  0.00  0.00     0.000 A 
ATOM     23  C   UNL d   1      24.944 -18.200   0.256  0.00  0.00     0.003 A 
ATOM     24  C   UNL d   1      26.286 -17.950   0.553  0.00  0.00     0.037 A 
ENDBRANCH  18  19
ENDBRANCH  17  18
ENDBRANCH   2  17
TORSDOF 6
ENDMDL
MODEL 4
REMARK VINA RESULT:    -5.046      1.869      5.313
REMARK INTER + INTRA:          -9.667
REMARK INTER:                  -6.836
REMARK INTRA:                  -2.831
REMARK CONF_INDEPENDENT:        1.790
REMARK UNBOUND:                -2.831
REMARK  6 active torsions:
REMARK  status: ('A' for Active; 'I' for Inactive)
REMARK    1  A    between atoms: C_2  and  C_3 
REMARK       I    between atoms: C_2  and  N_11 
REMARK    2  A    between atoms: C_3  and  O_4 
REMARK    3  A    between atoms: O_4  and  C_5 
REMARK    4  A    between atoms: N_11  and  N_12 
REMARK       I    between atoms: N_12  and  C_13 
REMARK    5  A    between atoms: C_13  and  C_15 
REMARK    6  A    between atoms: C_20  and  O_21 
ROOT
ATOM      1  O   UNL d   1      29.566 -18.204  -0.876  0.00  0.00    -0.269 OA
ATOM      2  C   UNL d   1      28.764 -17.314  -1.169  0.00  0.00     0.260 C 
ATOM      3  N   UNL d   1      28.839 -16.716  -2.412  0.00  0.00    -0.265 N 
ATOM      4  H   UNL d   1      29.569 -17.042  -3.048  0.00  0.00     0.190 HD
ENDROOT
BRANCH   3   5
ATOM      5  N   UNL d   1      27.944 -15.762  -2.924  0.00  0.00    -0.263 N 
ATOM      6  C   UNL d   1      28.075 -15.360  -4.246  0.00  0.00     0.272 C 
ATOM      7  O   UNL d   1      28.851 -15.889  -5.046  0.00  0.00    -0.266 OA
ATOM      8  H   UNL d   1      27.394 -15.188  -2.291  0.00  0.00     0.190 HD
BRANCH   6   9
ATOM      9  C   UNL d   1      27.206 -14.229  -4.688  0.00  0.00     0.066 A 
ATOM     10  C   UNL d   1      27.733 -13.264  -5.563  0.00  0.00     0.020 A 
ATOM     11  C   UNL d   1      26.988 -12.127  -5.896  0.00  0.00     0.001 A 
ATOM     12  C   UNL d   1      25.699 -11.965  -5.392  0.00  0.00     0.003 A 
ATOM     13  C   UNL d   1      25.158 -12.927  -4.536  0.00  0.00     0.037 A 
ATOM     14  C   UNL d   1      25.908 -14.058  -4.193  0.00  0.00     0.081 A 
BRANCH  14  15
ATOM     15  O   UNL d   1      25.364 -15.005  -3.367  0.00  0.00    -0.360 OA
ATOM     16  H   UNL d   1      25.864 -15.022  -2.532  0.00  0.00     0.217 HD
ENDBRANCH  14  15
ENDBRANCH   6   9
ENDBRANCH   3   5
BRANCH   2  17
ATOM     17  C   UNL d   1      27.664 -16.841  -0.209  0.00  0.00     0.280 C 
BRANCH  17  18
ATOM     18  O   UNL d   1      26.539 -16.291  -0.902  0.00  0.00    -0.342 OA
BRANCH  18  19
ATOM     19  C   UNL d   1      25.362 -16.982  -0.777  0.00  0.00     0.069 A 
ATOM     20  C   UNL d   1      24.184 -16.286  -1.072  0.00  0.00     0.037 A 
ATOM     21  C   UNL d   1      22.937 -16.897  -0.893  0.00  0.00     0.003 A 
ATOM     22  C   UNL d   1      22.864 -18.220  -0.464  0.00  0.00     0.000 A 
ATOM     23  C   UNL d   1      24.032 -18.911  -0.155  0.00  0.00     0.003 A 
ATOM     24  C   UNL d   1      25.275 -18.286  -0.291  0.00  0.00     0.037 A 
ENDBRANCH  18  19
ENDBRANCH  17  18
ENDBRANCH   2  17
TORSDOF 6
ENDMDL
MODEL 5
REMARK VINA RESULT:    -5.034      3.728      5.217
REMARK INTER + INTRA:          -9.747
REMARK INTER:                  -6.824
REMARK INTRA:                  -2.923
REMARK CONF_INDEPENDENT:        1.790
REMARK UNBOUND:                -2.923
REMARK  6 active torsions:
REMARK  status: ('A' for Active; 'I' for Inactive)
REMARK    1  A    between atoms: C_2  and  C_3 
REMARK       I    between atoms: C_2  and  N_11 
REMARK    2  A    between atoms: C_3  and  O_4 
REMARK    3  A    between atoms: O_4  and  C_5 
REMARK    4  A    between atoms: N_11  and  N_12 
REMARK       I    between atoms: N_12  and  C_13 
REMARK    5  A    between atoms: C_13  and  C_15 
REMARK    6  A    between atoms: C_20  and  O_21 
ROOT
ATOM      1  O   UNL d   1      28.290 -13.642  -7.185  0.00  0.00    -0.269 OA
ATOM      2  C   UNL d   1      28.333 -14.306  -6.147  0.00  0.00     0.260 C 
ATOM      3  N   UNL d   1      27.155 -14.736  -5.569  0.00  0.00    -0.265 N 
ATOM      4  H   UNL d   1      26.282 -14.481  -6.032  0.00  0.00     0.190 HD
ENDROOT
BRANCH   3   5
ATOM      5  N   UNL d   1      27.045 -15.576  -4.447  0.00  0.00    -0.263 N 
ATOM      6  C   UNL d   1      25.914 -15.484  -3.648  0.00  0.00     0.272 C 
ATOM      7  O   UNL d   1      24.929 -14.799  -3.937  0.00  0.00    -0.266 OA
ATOM      8  H   UNL d   1      27.869 -16.041  -4.076  0.00  0.00     0.190 HD
BRANCH   6   9
ATOM      9  C   UNL d   1      25.924 -16.278  -2.384  0.00  0.00     0.066 A 
ATOM     10  C   UNL d   1      24.716 -16.805  -1.898  0.00  0.00     0.020 A 
ATOM     11  C   UNL d   1      24.670 -17.446  -0.654  0.00  0.00     0.001 A 
ATOM     12  C   UNL d   1      25.836 -17.600   0.094  0.00  0.00     0.003 A 
ATOM     13  C   UNL d   1      27.046 -17.096  -0.388  0.00  0.00     0.037 A 
ATOM     14  C   UNL d   1      27.089 -16.444  -1.626  0.00  0.00     0.081 A 
BRANCH  14  15
ATOM     15  O   UNL d   1      28.283 -15.969  -2.099  0.00  0.00    -0.360 OA
ATOM     16  H   UNL d   1      28.548 -16.494  -2.874  0.00  0.00     0.217 HD
ENDBRANCH  14  15
ENDBRANCH   6   9
ENDBRANCH   3   5
BRANCH   2  17
ATOM     17  C   UNL d   1      29.652 -14.695  -5.466  0.00  0.00     0.280 C 
BRANCH  17  18
ATOM     18  O   UNL d   1      29.546 -15.921  -4.738  0.00  0.00    -0.342 OA
BRANCH  18  19
ATOM     19  C   UNL d   1      30.016 -17.040  -5.375  0.00  0.00     0.069 A 
ATOM     20  C   UNL d   1      30.188 -18.189  -4.597  0.00  0.00     0.037 A 
ATOM     21  C   UNL d   1      30.738 -19.349  -5.157  0.00  0.00     0.003 A 
ATOM     22  C   UNL d   1      31.074 -19.379  -6.508  0.00  0.00     0.000 A 
ATOM     23  C   UNL d   1      30.919 -18.233  -7.283  0.00  0.00     0.003 A 
ATOM     24  C   UNL d   1      30.412 -17.062  -6.713  0.00  0.00     0.037 A 
ENDBRANCH  18  19
ENDBRANCH  17  18
ENDBRANCH   2  17
TORSDOF 6
ENDMDL
MODEL 6
REMARK VINA RESULT:    -4.758      3.117      5.990
REMARK INTER + INTRA:          -9.380
REMARK INTER:                  -6.548
REMARK INTRA:                  -2.832
REMARK CONF_INDEPENDENT:        1.790
REMARK UNBOUND:                -2.832
REMARK  6 active torsions:
REMARK  status: ('A' for Active; 'I' for Inactive)
REMARK    1  A    between atoms: C_2  and  C_3 
REMARK       I    between atoms: C_2  and  N_11 
REMARK    2  A    between atoms: C_3  and  O_4 
REMARK    3  A    between atoms: O_4  and  C_5 
REMARK    4  A    between atoms: N_11  and  N_12 
REMARK       I    between atoms: N_12  and  C_13 
REMARK    5  A    between atoms: C_13  and  C_15 
REMARK    6  A    between atoms: C_20  and  O_21 
ROOT
ATOM      1  O   UNL d   1      24.868 -14.382  -4.547  0.00  0.00    -0.269 OA
ATOM      2  C   UNL d   1      25.347 -14.608  -3.434  0.00  0.00     0.260 C 
ATOM      3  N   UNL d   1      25.596 -13.554  -2.577  0.00  0.00    -0.265 N 
ATOM      4  H   UNL d   1      25.369 -12.615  -2.906  0.00  0.00     0.190 HD
ENDROOT
BRANCH   3   5
ATOM      5  N   UNL d   1      26.047 -13.658  -1.250  0.00  0.00    -0.263 N 
ATOM      6  C   UNL d   1      26.938 -12.710  -0.767  0.00  0.00     0.272 C 
ATOM      7  O   UNL d   1      27.260 -11.696  -1.393  0.00  0.00    -0.266 OA
ATOM      8  H   UNL d   1      25.944 -14.533  -0.744  0.00  0.00     0.190 HD
BRANCH   6   9
ATOM      9  C   UNL d   1      27.510 -12.960   0.589  0.00  0.00     0.066 A 
ATOM     10  C   UNL d   1      28.237 -11.940   1.223  0.00  0.00     0.020 A 
ATOM     11  C   UNL d   1      28.891 -12.184   2.437  0.00  0.00     0.001 A 
ATOM     12  C   UNL d   1      28.790 -13.434   3.045  0.00  0.00     0.003 A 
ATOM     13  C   UNL d   1      28.054 -14.451   2.431  0.00  0.00     0.037 A 
ATOM     14  C   UNL d   1      27.411 -14.210   1.212  0.00  0.00     0.081 A 
BRANCH  14  15
ATOM     15  O   UNL d   1      26.678 -15.207   0.626  0.00  0.00    -0.360 OA
ATOM     16  H   UNL d   1      27.150 -15.526  -0.163  0.00  0.00     0.217 HD
ENDBRANCH  14  15
ENDBRANCH   6   9
ENDBRANCH   3   5
BRANCH   2  17
ATOM     17  C   UNL d   1      25.674 -16.025  -2.944  0.00  0.00     0.280 C 
BRANCH  17  18
ATOM     18  O   UNL d   1      25.584 -16.142  -1.521  0.00  0.00    -0.342 OA
BRANCH  18  19
ATOM     19  C   UNL d   1      24.506 -16.841  -1.043  0.00  0.00     0.069 A 
ATOM     20  C   UNL d   1      24.723 -18.177  -0.689  0.00  0.00     0.037 A 
ATOM     21  C   UNL d   1      23.656 -18.981  -0.269  0.00  0.00     0.003 A 
ATOM     22  C   UNL d   1      22.378 -18.439  -0.155  0.00  0.00     0.000 A 
ATOM     23  C   UNL d   1      22.155 -17.115  -0.520  0.00  0.00     0.003 A 
ATOM     24  C   UNL d   1      23.211 -16.325  -0.983  0.00  0.00     0.037 A 
ENDBRANCH  18  19
ENDBRANCH  17  18
ENDBRANCH   2  17
TORSDOF 6
ENDMDL
MODEL 7
REMARK VINA RESULT:    -4.686      2.213      2.854
REMARK INTER + INTRA:          -9.412
REMARK INTER:                  -6.476
REMARK INTRA:                  -2.936
REMARK CONF_INDEPENDENT:        1.790
REMARK UNBOUND:                -2.936
REMARK  6 active torsions:
REMARK  status: ('A' for Active; 'I' for Inactive)
REMARK    1  A    between atoms: C_2  and  C_3 
REMARK       I    between atoms: C_2  and  N_11 
REMARK    2  A    between atoms: C_3  and  O_4 
REMARK    3  A    between atoms: O_4  and  C_5 
REMARK    4  A    between atoms: N_11  and  N_12 
REMARK       I    between atoms: N_12  and  C_13 
REMARK    5  A    between atoms: C_13  and  C_15 
REMARK    6  A    between atoms: C_20  and  O_21 
ROOT
ATOM      1  O   UNL d   1      30.631 -14.666  -4.356  0.00  0.00    -0.269 OA
ATOM      2  C   UNL d   1      29.525 -15.189  -4.209  0.00  0.00     0.260 C 
ATOM      3  N   UNL d   1      29.053 -15.429  -2.933  0.00  0.00    -0.265 N 
ATOM      4  H   UNL d   1      29.651 -15.159  -2.151  0.00  0.00     0.190 HD
ENDROOT
BRANCH   3   5
ATOM      5  N   UNL d   1      27.781 -15.927  -2.604  0.00  0.00    -0.263 N 
ATOM      6  C   UNL d   1      27.420 -16.019  -1.267  0.00  0.00     0.272 C 
ATOM      7  O   UNL d   1      28.102 -15.564  -0.345  0.00  0.00    -0.266 OA
ATOM      8  H   UNL d   1      27.245 -16.450  -3.291  0.00  0.00     0.190 HD
BRANCH   6   9
ATOM      9  C   UNL d   1      26.128 -16.705  -0.970  0.00  0.00     0.066 A 
ATOM     10  C   UNL d   1      26.001 -17.436   0.223  0.00  0.00     0.020 A 
ATOM     11  C   UNL d   1      24.849 -18.193   0.473  0.00  0.00     0.001 A 
ATOM     12  C   UNL d   1      23.802 -18.193  -0.447  0.00  0.00     0.003 A 
ATOM     13  C   UNL d   1      23.911 -17.456  -1.629  0.00  0.00     0.037 A 
ATOM     14  C   UNL d   1      25.068 -16.710  -1.883  0.00  0.00     0.081 A 
BRANCH  14  15
ATOM     15  O   UNL d   1      25.158 -15.976  -3.036  0.00  0.00    -0.360 OA
ATOM     16  H   UNL d   1      25.837 -16.372  -3.611  0.00  0.00     0.217 HD
ENDBRANCH  14  15
ENDBRANCH   6   9
ENDBRANCH   3   5
BRANCH   2  17
ATOM     17  C   UNL d   1      28.629 -15.580  -5.392  0.00  0.00     0.280 C 
BRANCH  17  18
ATOM     18  O   UNL d   1      27.241 -15.379  -5.112  0.00  0.00    -0.342 OA
BRANCH  18  19
ATOM     19  C   UNL d   1      26.836 -14.075  -4.991  0.00  0.00     0.069 A 
ATOM     20  C   UNL d   1      27.406 -13.149  -5.871  0.00  0.00     0.037 A 
ATOM     21  C   UNL d   1      27.106 -11.787  -5.759  0.00  0.00     0.003 A 
ATOM     22  C   UNL d   1      26.198 -11.349  -4.798  0.00  0.00     0.000 A 
ATOM     23  C   UNL d   1      25.640 -12.265  -3.910  0.00  0.00     0.003 A 
ATOM     24  C   UNL d   1      25.974 -13.619  -3.993  0.00  0.00     0.037 A 
ENDBRANCH  18  19
ENDBRANCH  17  18
ENDBRANCH   2  17
TORSDOF 6
ENDMDL
MODEL 8
REMARK VINA RESULT:    -4.655      2.800      5.180
REMARK INTER + INTRA:          -9.593
REMARK INTER:                  -6.445
REMARK INTRA:                  -3.148
REMARK CONF_INDEPENDENT:        1.790
REMARK UNBOUND:                -3.148
REMARK  6 active torsions:
REMARK  status: ('A' for Active; 'I' for Inactive)
REMARK    1  A    between atoms: C_2  and  C_3 
REMARK       I    between atoms: C_2  and  N_11 
REMARK    2  A    between atoms: C_3  and  O_4 
REMARK    3  A    between atoms: O_4  and  C_5 
REMARK    4  A    between atoms: N_11  and  N_12 
REMARK       I    between atoms: N_12  and  C_13 
REMARK    5  A    between atoms: C_13  and  C_15 
REMARK    6  A    between atoms: C_20  and  O_21 
ROOT
ATOM      1  O   UNL d   1      26.819 -15.576  -5.034  0.00  0.00    -0.269 OA
ATOM      2  C   UNL d   1      26.671 -15.139  -3.891  0.00  0.00     0.260 C 
ATOM      3  N   UNL d   1      27.785 -14.876  -3.117  0.00  0.00    -0.265 N 
ATOM      4  H   UNL d   1      28.700 -15.058  -3.531  0.00  0.00     0.190 HD
ENDROOT
BRANCH   3   5
ATOM      5  N   UNL d   1      27.783 -14.290  -1.840  0.00  0.00    -0.263 N 
ATOM      6  C   UNL d   1      28.573 -14.846  -0.844  0.00  0.00     0.272 C 
ATOM      7  O   UNL d   1      29.387 -15.751  -1.046  0.00  0.00    -0.266 OA
ATOM      8  H   UNL d   1      27.037 -13.653  -1.573  0.00  0.00     0.190 HD
BRANCH   6   9
ATOM      9  C   UNL d   1      28.407 -14.287   0.530  0.00  0.00     0.066 A 
ATOM     10  C   UNL d   1      29.405 -14.525   1.490  0.00  0.00     0.020 A 
ATOM     11  C   UNL d   1      29.221 -14.123   2.819  0.00  0.00     0.001 A 
ATOM     12  C   UNL d   1      28.061 -13.446   3.189  0.00  0.00     0.003 A 
ATOM     13  C   UNL d   1      27.070 -13.187   2.238  0.00  0.00     0.037 A 
ATOM     14  C   UNL d   1      27.248 -13.601   0.913  0.00  0.00     0.081 A 
BRANCH  14  15
ATOM     15  O   UNL d   1      26.280 -13.328  -0.016  0.00  0.00    -0.360 OA
ATOM     16  H   UNL d   1      26.011 -14.159  -0.446  0.00  0.00     0.217 HD
ENDBRANCH  14  15
ENDBRANCH   6   9
ENDBRANCH   3   5
BRANCH   2  17
ATOM     17  C   UNL d   1      25.291 -14.857  -3.283  0.00  0.00     0.280 C 
BRANCH  17  18
ATOM     18  O   UNL d   1      25.303 -14.923  -1.854  0.00  0.00    -0.342 OA
BRANCH  18  19
ATOM     19  C   UNL d   1      25.000 -16.143  -1.307  0.00  0.00     0.069 A 
ATOM     20  C   UNL d   1      23.650 -16.504  -1.270  0.00  0.00     0.037 A 
ATOM     21  C   UNL d   1      23.252 -17.698  -0.656  0.00  0.00     0.003 A 
ATOM     22  C   UNL d   1      24.207 -18.558  -0.119  0.00  0.00     0.000 A 
ATOM     23  C   UNL d   1      25.551 -18.196  -0.142  0.00  0.00     0.003 A 
ATOM     24  C   UNL d   1      25.943 -16.983  -0.714  0.00  0.00     0.037 A 
ENDBRANCH  18  19
ENDBRANCH  17  18
ENDBRANCH   2  17
TORSDOF 6
ENDMDL
MODEL 9
REMARK VINA RESULT:    -4.483      2.372      3.991
REMARK INTER + INTRA:          -9.415
REMARK INTER:                  -6.273
REMARK INTRA:                  -3.142
REMARK CONF_INDEPENDENT:        1.790
REMARK UNBOUND:                -3.142
REMARK  6 active torsions:
REMARK  status: ('A' for Active; 'I' for Inactive)
REMARK    1  A    between atoms: C_2  and  C_3 
REMARK       I    between atoms: C_2  and  N_11 
REMARK    2  A    between atoms: C_3  and  O_4 
REMARK    3  A    between atoms: O_4  and  C_5 
REMARK    4  A    between atoms: N_11  and  N_12 
REMARK       I    between atoms: N_12  and  C_13 
REMARK    5  A    between atoms: C_13  and  C_15 
REMARK    6  A    between atoms: C_20  and  O_21 
ROOT
ATOM      1  O   UNL d   1      26.697 -11.032  -3.813  0.00  0.00    -0.269 OA
ATOM      2  C   UNL d   1      26.217 -12.136  -3.545  0.00  0.00     0.260 C 
ATOM      3  N   UNL d   1      26.399 -12.665  -2.282  0.00  0.00    -0.265 N 
ATOM      4  H   UNL d   1      26.933 -12.110  -1.611  0.00  0.00     0.190 HD
ENDROOT
BRANCH   3   5
ATOM      5  N   UNL d   1      25.837 -13.859  -1.799  0.00  0.00    -0.263 N 
ATOM      6  C   UNL d   1      26.569 -14.634  -0.910  0.00  0.00     0.272 C 
ATOM      7  O   UNL d   1      27.637 -14.272  -0.410  0.00  0.00    -0.266 OA
ATOM      8  H   UNL d   1      25.047 -14.280  -2.278  0.00  0.00     0.190 HD
BRANCH   6   9
ATOM      9  C   UNL d   1      25.996 -15.967  -0.558  0.00  0.00     0.066 A 
ATOM     10  C   UNL d   1      26.683 -16.788   0.350  0.00  0.00     0.020 A 
ATOM     11  C   UNL d   1      26.239 -18.092   0.604  0.00  0.00     0.001 A 
ATOM     12  C   UNL d   1      25.085 -18.569  -0.015  0.00  0.00     0.003 A 
ATOM     13  C   UNL d   1      24.384 -17.754  -0.906  0.00  0.00     0.037 A 
ATOM     14  C   UNL d   1      24.835 -16.455  -1.170  0.00  0.00     0.081 A 
BRANCH  14  15
ATOM     15  O   UNL d   1      24.131 -15.657  -2.031  0.00  0.00    -0.360 OA
ATOM     16  H   UNL d   1      24.622 -15.586  -2.869  0.00  0.00     0.217 HD
ENDBRANCH  14  15
ENDBRANCH   6   9
ENDBRANCH   3   5
BRANCH   2  17
ATOM     17  C   UNL d   1      25.406 -12.955  -4.557  0.00  0.00     0.280 C 
BRANCH  17  18
ATOM     18  O   UNL d   1      25.593 -14.364  -4.391  0.00  0.00    -0.342 OA
BRANCH  18  19
ATOM     19  C   UNL d   1      26.839 -14.844  -4.701  0.00  0.00     0.069 A 
ATOM     20  C   UNL d   1      27.517 -15.544  -3.697  0.00  0.00     0.037 A 
ATOM     21  C   UNL d   1      28.824 -15.997  -3.909  0.00  0.00     0.003 A 
ATOM     22  C   UNL d   1      29.443 -15.793  -5.141  0.00  0.00     0.000 A 
ATOM     23  C   UNL d   1      28.777 -15.083  -6.136  0.00  0.00     0.003 A 
ATOM     24  C   UNL d   1      27.489 -14.593  -5.909  0.00  0.00     0.037 A 
ENDBRANCH  18  19
ENDBRANCH  17  18
ENDBRANCH   2  17
TORSDOF 6
ENDMDL
