MODEL 1
REMARK VINA RESULT:    -8.276      0.000      0.000
REMARK INTER + INTRA:         -12.690
REMARK INTER:                 -10.066
REMARK INTRA:                  -2.624
REMARK CONF_INDEPENDENT:        1.790
REMARK UNBOUND:                -2.624
REMARK  6 active torsions:
REMARK  status: ('A' for Active; 'I' for Inactive)
REMARK       I    between atoms: C_2  and  N_3 
REMARK    1  A    between atoms: C_2  and  C_12 
REMARK    2  A    between atoms: N_3  and  C_4 
REMARK    3  A    between atoms: C_4  and  C_5 
REMARK    4  A    between atoms: C_5  and  C_6 
REMARK    5  A    between atoms: C_19  and  C_20 
REMARK    6  A    between atoms: C_21  and  O_22 
ROOT
ATOM      1  C   UNL d   1      29.603 -14.884  -5.563  0.00  0.00     0.053 C 
ATOM      2  C   UNL d   1      30.269 -14.284  -6.602  0.00  0.00     0.019 C 
ATOM      3  C   UNL d   1      29.545 -13.424  -7.452  0.00  0.00     0.002 C 
ATOM      4  C   UNL d   1      28.342 -12.805  -7.060  0.00  0.00     0.010 C 
ATOM      5  C   UNL d   1      27.664 -13.328  -5.992  0.00  0.00    -0.028 C 
ATOM      6  C   UNL d   1      28.218 -14.568  -5.517  0.00  0.00     0.031 C 
ATOM      7  N   UNL d   1      27.268 -15.575  -5.223  0.00  0.00    -0.282 NA
ATOM      8  C   UNL d   1      26.317 -15.008  -4.252  0.00  0.00     0.102 C 
ATOM      9  C   UNL d   1      25.524 -13.752  -4.742  0.00  0.00     0.024 C 
ATOM     10  C   UNL d   1      24.780 -13.166  -3.520  0.00  0.00     0.034 C 
ATOM     11  C   UNL d   1      25.689 -12.101  -3.034  0.00  0.00    -0.029 C 
ATOM     12  C   UNL d   1      26.495 -11.704  -4.033  0.00  0.00    -0.021 C 
ATOM     13  C   UNL d   1      26.410 -12.634  -5.314  0.00  0.00     0.049 C 
ATOM     14  H   UNL d   1      26.897 -15.876  -6.133  0.00  0.00     0.128 HD
ENDROOT
BRANCH   1  15
ATOM     15  C   UNL d   1      30.393 -15.797  -4.601  0.00  0.00     0.253 C 
ATOM     16  O   UNL d   1      31.558 -15.540  -4.295  0.00  0.00    -0.268 OA
ATOM     17  N   UNL d   1      29.750 -16.901  -4.076  0.00  0.00    -0.357 N 
ATOM     18  H   UNL d   1      28.739 -16.905  -4.165  0.00  0.00     0.162 HD
BRANCH  17  19
ATOM     19  C   UNL d   1      30.405 -17.857  -3.175  0.00  0.00     0.127 C 
BRANCH  19  20
ATOM     20  C   UNL d   1      31.607 -18.516  -3.825  0.00  0.00     0.058 C 
BRANCH  20  21
ATOM     21  C   UNL d   1      31.473 -18.740  -5.304  0.00  0.00    -0.057 C 
ATOM     22  C   UNL d   1      31.945 -17.896  -6.325  0.00  0.00     0.007 C 
ATOM     23  C   UNL d   1      31.564 -18.073  -7.648  0.00  0.00     0.001 C 
ATOM     24  C   UNL d   1      30.830 -19.195  -7.984  0.00  0.00     0.000 C 
ATOM     25  C   UNL d   1      30.405 -20.075  -6.991  0.00  0.00     0.001 C 
ATOM     26  C   UNL d   1      30.723 -19.847  -5.663  0.00  0.00     0.007 C 
ENDBRANCH  20  21
ENDBRANCH  19  20
ENDBRANCH  17  19
ENDBRANCH   1  15
BRANCH   8  27
ATOM     27  C   UNL d   1      27.166 -14.842  -2.949  0.00  0.00     0.004 C 
ATOM     28  C   UNL d   1      28.342 -13.971  -2.905  0.00  0.00     0.074 C 
ATOM     29  C   UNL d   1      29.441 -14.239  -2.162  0.00  0.00     0.038 C 
ATOM     30  C   UNL d   1      29.313 -15.171  -1.211  0.00  0.00     0.015 C 
ATOM     31  C   UNL d   1      28.120 -15.892  -1.076  0.00  0.00    -0.028 C 
ATOM     32  C   UNL d   1      28.147 -16.876  -0.145  0.00  0.00    -0.005 C 
ATOM     33  C   UNL d   1      26.977 -15.815  -1.856  0.00  0.00    -0.016 C 
ATOM     34  C   UNL d   1      27.199 -17.927  -0.154  0.00  0.00     0.043 C 
ATOM     35  C   UNL d   1      25.865 -17.748  -0.287  0.00  0.00    -0.016 C 
ATOM     36  C   UNL d   1      25.871 -16.788  -1.328  0.00  0.00     0.009 C 
BRANCH  28  37
ATOM     37  O   UNL d   1      28.812 -12.872  -3.558  0.00  0.00    -0.360 OA
ATOM     38  H   UNL d   1      29.748 -12.845  -3.644  0.00  0.00     0.217 HD
ENDBRANCH  28  37
ENDBRANCH   8  27
TORSDOF 6
ENDMDL
MODEL 2
REMARK VINA RESULT:    -7.829      1.783      5.969
REMARK INTER + INTRA:         -11.932
REMARK INTER:                  -9.619
REMARK INTRA:                  -2.313
REMARK CONF_INDEPENDENT:        1.790
REMARK UNBOUND:                -2.313
REMARK  6 active torsions:
REMARK  status: ('A' for Active; 'I' for Inactive)
REMARK       I    between atoms: C_2  and  N_3 
REMARK    1  A    between atoms: C_2  and  C_12 
REMARK    2  A    between atoms: N_3  and  C_4 
REMARK    3  A    between atoms: C_4  and  C_5 
REMARK    4  A    between atoms: C_5  and  C_6 
REMARK    5  A    between atoms: C_19  and  C_20 
REMARK    6  A    between atoms: C_21  and  O_22 
ROOT
ATOM      1  C   UNL d   1      29.270 -16.330  -4.246  0.00  0.00     0.053 C 
ATOM      2  C   UNL d   1      30.024 -17.477  -4.207  0.00  0.00     0.019 C 
ATOM      3  C   UNL d   1      30.775 -17.823  -5.349  0.00  0.00     0.002 C 
ATOM      4  C   UNL d   1      31.149 -16.878  -6.325  0.00  0.00     0.010 C 
ATOM      5  C   UNL d   1      30.467 -15.692  -6.372  0.00  0.00    -0.028 C 
ATOM      6  C   UNL d   1      29.329 -15.654  -5.494  0.00  0.00     0.031 C 
ATOM      7  N   UNL d   1      28.155 -15.099  -6.058  0.00  0.00    -0.282 NA
ATOM      8  C   UNL d   1      28.499 -13.753  -6.546  0.00  0.00     0.102 C 
ATOM      9  C   UNL d   1      29.611 -13.700  -7.645  0.00  0.00     0.024 C 
ATOM     10  C   UNL d   1      30.001 -12.217  -7.841  0.00  0.00     0.034 C 
ATOM     11  C   UNL d   1      31.191 -12.049  -6.974  0.00  0.00    -0.029 C 
ATOM     12  C   UNL d   1      31.769 -13.244  -6.764  0.00  0.00    -0.021 C 
ATOM     13  C   UNL d   1      30.893 -14.462  -7.278  0.00  0.00     0.049 C 
ATOM     14  H   UNL d   1      27.831 -15.788  -6.749  0.00  0.00     0.128 HD
ENDROOT
BRANCH   1  15
ATOM     15  C   UNL d   1      28.475 -15.920  -2.988  0.00  0.00     0.253 C 
ATOM     16  O   UNL d   1      28.880 -16.204  -1.861  0.00  0.00    -0.268 OA
ATOM     17  N   UNL d   1      27.304 -15.207  -3.162  0.00  0.00    -0.357 N 
ATOM     18  H   UNL d   1      27.173 -14.795  -4.080  0.00  0.00     0.162 HD
BRANCH  17  19
ATOM     19  C   UNL d   1      26.449 -14.786  -2.046  0.00  0.00     0.127 C 
BRANCH  19  20
ATOM     20  C   UNL d   1      25.003 -15.199  -2.254  0.00  0.00     0.058 C 
BRANCH  20  21
ATOM     21  C   UNL d   1      24.585 -16.418  -1.485  0.00  0.00    -0.057 C 
ATOM     22  C   UNL d   1      23.269 -16.791  -1.154  0.00  0.00     0.007 C 
ATOM     23  C   UNL d   1      23.008 -17.804  -0.243  0.00  0.00     0.001 C 
ATOM     24  C   UNL d   1      24.063 -18.562   0.229  0.00  0.00     0.000 C 
ATOM     25  C   UNL d   1      25.370 -18.245  -0.135  0.00  0.00     0.001 C 
ATOM     26  C   UNL d   1      25.626 -17.180  -0.984  0.00  0.00     0.007 C 
ENDBRANCH  20  21
ENDBRANCH  19  20
ENDBRANCH  17  19
ENDBRANCH   1  15
BRANCH   8  27
ATOM     27  C   UNL d   1      28.760 -12.936  -5.239  0.00  0.00     0.004 C 
ATOM     28  C   UNL d   1      29.838 -13.291  -4.314  0.00  0.00     0.074 C 
ATOM     29  C   UNL d   1      29.749 -13.138  -2.971  0.00  0.00     0.038 C 
ATOM     30  C   UNL d   1      28.764 -12.356  -2.518  0.00  0.00     0.015 C 
ATOM     31  C   UNL d   1      27.821 -11.813  -3.401  0.00  0.00    -0.028 C 
ATOM     32  C   UNL d   1      26.816 -11.122  -2.811  0.00  0.00    -0.005 C 
ATOM     33  C   UNL d   1      27.716 -12.005  -4.770  0.00  0.00    -0.016 C 
ATOM     34  C   UNL d   1      25.604 -10.857  -3.493  0.00  0.00     0.043 C 
ATOM     35  C   UNL d   1      25.530 -10.376  -4.755  0.00  0.00    -0.016 C 
ATOM     36  C   UNL d   1      26.524 -11.182  -5.360  0.00  0.00     0.009 C 
BRANCH  28  37
ATOM     37  O   UNL d   1      31.037 -13.934  -4.357  0.00  0.00    -0.360 OA
ATOM     38  H   UNL d   1      31.183 -14.529  -3.643  0.00  0.00     0.217 HD
ENDBRANCH  28  37
ENDBRANCH   8  27
TORSDOF 6
ENDMDL
MODEL 3
REMARK VINA RESULT:    -7.799      2.700      5.037
REMARK INTER + INTRA:         -11.788
REMARK INTER:                  -9.589
REMARK INTRA:                  -2.199
REMARK CONF_INDEPENDENT:        1.790
REMARK UNBOUND:                -2.199
REMARK  6 active torsions:
REMARK  status: ('A' for Active; 'I' for Inactive)
REMARK       I    between atoms: C_2  and  N_3 
REMARK    1  A    between atoms: C_2  and  C_12 
REMARK    2  A    between atoms: N_3  and  C_4 
REMARK    3  A    between atoms: C_4  and  C_5 
REMARK    4  A    between atoms: C_5  and  C_6 
REMARK    5  A    between atoms: C_19  and  C_20 
REMARK    6  A    between atoms: C_21  and  O_22 
ROOT
ATOM      1  C   UNL d   1      30.536 -15.756  -0.125  0.00  0.00     0.053 C 
ATOM      2  C   UNL d   1      31.540 -16.207   0.696  0.00  0.00     0.019 C 
ATOM      3  C   UNL d   1      31.893 -15.424   1.813  0.00  0.00     0.002 C 
ATOM      4  C   UNL d   1      31.018 -14.477   2.382  0.00  0.00     0.010 C 
ATOM      5  C   UNL d   1      29.965 -14.034   1.628  0.00  0.00    -0.028 C 
ATOM      6  C   UNL d   1      30.004 -14.498   0.267  0.00  0.00     0.031 C 
ATOM      7  N   UNL d   1      29.705 -13.517  -0.709  0.00  0.00    -0.282 NA
ATOM      8  C   UNL d   1      28.386 -12.956  -0.374  0.00  0.00     0.102 C 
ATOM      9  C   UNL d   1      28.286 -12.263   1.025  0.00  0.00     0.024 C 
ATOM     10  C   UNL d   1      26.792 -11.967   1.292  0.00  0.00     0.034 C 
ATOM     11  C   UNL d   1      26.346 -13.124   2.104  0.00  0.00    -0.029 C 
ATOM     12  C   UNL d   1      27.405 -13.687   2.709  0.00  0.00    -0.021 C 
ATOM     13  C   UNL d   1      28.794 -13.125   2.191  0.00  0.00     0.049 C 
ATOM     14  H   UNL d   1      30.509 -12.877  -0.710  0.00  0.00     0.128 HD
ENDROOT
BRANCH   1  15
ATOM     15  C   UNL d   1      30.114 -16.624  -1.330  0.00  0.00     0.253 C 
ATOM     16  O   UNL d   1      30.147 -17.853  -1.268  0.00  0.00    -0.268 OA
ATOM     17  N   UNL d   1      29.679 -15.982  -2.473  0.00  0.00    -0.357 N 
ATOM     18  H   UNL d   1      29.439 -15.002  -2.363  0.00  0.00     0.162 HD
BRANCH  17  19
ATOM     19  C   UNL d   1      29.280 -16.698  -3.691  0.00  0.00     0.127 C 
BRANCH  19  20
ATOM     20  C   UNL d   1      30.249 -16.457  -4.834  0.00  0.00     0.058 C 
BRANCH  20  21
ATOM     21  C   UNL d   1      30.550 -17.670  -5.665  0.00  0.00    -0.057 C 
ATOM     22  C   UNL d   1      30.860 -17.691  -7.036  0.00  0.00     0.007 C 
ATOM     23  C   UNL d   1      30.887 -18.877  -7.757  0.00  0.00     0.001 C 
ATOM     24  C   UNL d   1      30.759 -20.073  -7.076  0.00  0.00     0.000 C 
ATOM     25  C   UNL d   1      30.511 -20.072  -5.704  0.00  0.00     0.001 C 
ATOM     26  C   UNL d   1      30.406 -18.880  -5.007  0.00  0.00     0.007 C 
ENDBRANCH  20  21
ENDBRANCH  19  20
ENDBRANCH  17  19
ENDBRANCH   1  15
BRANCH   8  27
ATOM     27  C   UNL d   1      27.396 -14.134  -0.649  0.00  0.00     0.004 C 
ATOM     28  C   UNL d   1      27.444 -15.374   0.127  0.00  0.00     0.074 C 
ATOM     29  C   UNL d   1      27.162 -16.592  -0.394  0.00  0.00     0.038 C 
ATOM     30  C   UNL d   1      26.528 -16.611  -1.571  0.00  0.00     0.015 C 
ATOM     31  C   UNL d   1      26.267 -15.420  -2.260  0.00  0.00    -0.028 C 
ATOM     32  C   UNL d   1      25.711 -15.576  -3.486  0.00  0.00    -0.005 C 
ATOM     33  C   UNL d   1      26.625 -14.128  -1.907  0.00  0.00    -0.016 C 
ATOM     34  C   UNL d   1      25.749 -14.541  -4.451  0.00  0.00     0.043 C 
ATOM     35  C   UNL d   1      25.432 -13.251  -4.196  0.00  0.00    -0.016 C 
ATOM     36  C   UNL d   1      26.104 -13.095  -2.961  0.00  0.00     0.009 C 
BRANCH  28  37
ATOM     37  O   UNL d   1      27.858 -15.782   1.359  0.00  0.00    -0.360 OA
ATOM     38  H   UNL d   1      28.624 -16.327   1.349  0.00  0.00     0.217 HD
ENDBRANCH  28  37
ENDBRANCH   8  27
TORSDOF 6
ENDMDL
MODEL 4
REMARK VINA RESULT:    -7.603      2.934      6.247
REMARK INTER + INTRA:         -11.780
REMARK INTER:                  -9.393
REMARK INTRA:                  -2.387
REMARK CONF_INDEPENDENT:        1.790
REMARK UNBOUND:                -2.387
REMARK  6 active torsions:
REMARK  status: ('A' for Active; 'I' for Inactive)
REMARK       I    between atoms: C_2  and  N_3 
REMARK    1  A    between atoms: C_2  and  C_12 
REMARK    2  A    between atoms: N_3  and  C_4 
REMARK    3  A    between atoms: C_4  and  C_5 
REMARK    4  A    between atoms: C_5  and  C_6 
REMARK    5  A    between atoms: C_19  and  C_20 
REMARK    6  A    between atoms: C_21  and  O_22 
ROOT
ATOM      1  C   UNL d   1      27.382 -10.931  -1.257  0.00  0.00     0.053 C 
ATOM      2  C   UNL d   1      27.061 -10.161  -0.166  0.00  0.00     0.019 C 
ATOM      3  C   UNL d   1      27.013  -8.761  -0.327  0.00  0.00     0.002 C 
ATOM      4  C   UNL d   1      26.832  -8.148  -1.582  0.00  0.00     0.010 C 
ATOM      5  C   UNL d   1      27.083  -8.888  -2.706  0.00  0.00    -0.028 C 
ATOM      6  C   UNL d   1      27.667 -10.172  -2.424  0.00  0.00     0.031 C 
ATOM      7  N   UNL d   1      28.746 -10.537  -3.264  0.00  0.00    -0.282 NA
ATOM      8  C   UNL d   1      28.263 -10.464  -4.653  0.00  0.00     0.102 C 
ATOM      9  C   UNL d   1      27.769  -9.054  -5.119  0.00  0.00     0.024 C 
ATOM     10  C   UNL d   1      27.081  -9.233  -6.492  0.00  0.00     0.034 C 
ATOM     11  C   UNL d   1      25.644  -9.354  -6.151  0.00  0.00    -0.029 C 
ATOM     12  C   UNL d   1      25.415  -8.791  -4.953  0.00  0.00    -0.021 C 
ATOM     13  C   UNL d   1      26.743  -8.405  -4.178  0.00  0.00     0.049 C 
ATOM     14  H   UNL d   1      29.523  -9.920  -2.996  0.00  0.00     0.128 HD
ENDROOT
BRANCH   1  15
ATOM     15  C   UNL d   1      27.400 -12.466  -1.103  0.00  0.00     0.253 C 
ATOM     16  O   UNL d   1      26.613 -13.038  -0.348  0.00  0.00    -0.268 OA
ATOM     17  N   UNL d   1      28.310 -13.185  -1.854  0.00  0.00    -0.357 N 
ATOM     18  H   UNL d   1      28.737 -12.683  -2.626  0.00  0.00     0.162 HD
BRANCH  17  19
ATOM     19  C   UNL d   1      28.441 -14.645  -1.772  0.00  0.00     0.127 C 
BRANCH  19  20
ATOM     20  C   UNL d   1      28.128 -15.166  -0.382  0.00  0.00     0.058 C 
BRANCH  20  21
ATOM     21  C   UNL d   1      26.952 -16.096  -0.313  0.00  0.00    -0.057 C 
ATOM     22  C   UNL d   1      26.872 -17.293   0.422  0.00  0.00     0.007 C 
ATOM     23  C   UNL d   1      25.834 -18.195   0.230  0.00  0.00     0.001 C 
ATOM     24  C   UNL d   1      24.781 -17.833  -0.587  0.00  0.00     0.000 C 
ATOM     25  C   UNL d   1      24.815 -16.623  -1.277  0.00  0.00     0.001 C 
ATOM     26  C   UNL d   1      25.894 -15.764  -1.141  0.00  0.00     0.007 C 
ENDBRANCH  20  21
ENDBRANCH  19  20
ENDBRANCH  17  19
ENDBRANCH   1  15
BRANCH   8  27
ATOM     27  C   UNL d   1      27.237 -11.639  -4.756  0.00  0.00     0.004 C 
ATOM     28  C   UNL d   1      25.998 -11.648  -3.975  0.00  0.00     0.074 C 
ATOM     29  C   UNL d   1      25.433 -12.777  -3.487  0.00  0.00     0.038 C 
ATOM     30  C   UNL d   1      25.862 -13.936  -3.997  0.00  0.00     0.015 C 
ATOM     31  C   UNL d   1      26.917 -13.961  -4.919  0.00  0.00    -0.028 C 
ATOM     32  C   UNL d   1      27.327 -15.200  -5.287  0.00  0.00    -0.005 C 
ATOM     33  C   UNL d   1      27.670 -12.898  -5.392  0.00  0.00    -0.016 C 
ATOM     34  C   UNL d   1      28.596 -15.411  -5.879  0.00  0.00     0.043 C 
ATOM     35  C   UNL d   1      29.094 -14.672  -6.895  0.00  0.00    -0.016 C 
ATOM     36  C   UNL d   1      28.732 -13.383  -6.434  0.00  0.00     0.009 C 
BRANCH  28  37
ATOM     37  O   UNL d   1      25.165 -10.745  -3.389  0.00  0.00    -0.360 OA
ATOM     38  H   UNL d   1      24.405 -10.532  -3.899  0.00  0.00     0.217 HD
ENDBRANCH  28  37
ENDBRANCH   8  27
TORSDOF 6
ENDMDL
MODEL 5
REMARK VINA RESULT:    -7.494      2.485      4.635
REMARK INTER + INTRA:         -12.555
REMARK INTER:                  -9.284
REMARK INTRA:                  -3.271
REMARK CONF_INDEPENDENT:        1.790
REMARK UNBOUND:                -3.271
REMARK  6 active torsions:
REMARK  status: ('A' for Active; 'I' for Inactive)
REMARK       I    between atoms: C_2  and  N_3 
REMARK    1  A    between atoms: C_2  and  C_12 
REMARK    2  A    between atoms: N_3  and  C_4 
REMARK    3  A    between atoms: C_4  and  C_5 
REMARK    4  A    between atoms: C_5  and  C_6 
REMARK    5  A    between atoms: C_19  and  C_20 
REMARK    6  A    between atoms: C_21  and  O_22 
ROOT
ATOM      1  C   UNL d   1      28.343 -15.247  -4.097  0.00  0.00     0.053 C 
ATOM      2  C   UNL d   1      28.643 -15.575  -5.396  0.00  0.00     0.019 C 
ATOM      3  C   UNL d   1      28.155 -14.746  -6.426  0.00  0.00     0.002 C 
ATOM      4  C   UNL d   1      27.780 -13.406  -6.207  0.00  0.00     0.010 C 
ATOM      5  C   UNL d   1      27.523 -13.008  -4.922  0.00  0.00    -0.028 C 
ATOM      6  C   UNL d   1      27.520 -14.094  -3.979  0.00  0.00     0.031 C 
ATOM      7  N   UNL d   1      26.460 -14.071  -3.041  0.00  0.00    -0.282 NA
ATOM      8  C   UNL d   1      26.511 -12.769  -2.356  0.00  0.00     0.102 C 
ATOM      9  C   UNL d   1      26.341 -11.516  -3.279  0.00  0.00     0.024 C 
ATOM     10  C   UNL d   1      26.669 -10.266  -2.431  0.00  0.00     0.034 C 
ATOM     11  C   UNL d   1      28.094  -9.998  -2.739  0.00  0.00    -0.029 C 
ATOM     12  C   UNL d   1      28.412 -10.548  -3.923  0.00  0.00    -0.021 C 
ATOM     13  C   UNL d   1      27.280 -11.500  -4.494  0.00  0.00     0.049 C 
ATOM     14  H   UNL d   1      25.613 -14.293  -3.580  0.00  0.00     0.128 HD
ENDROOT
BRANCH   1  15
ATOM     15  C   UNL d   1      28.905 -16.124  -2.959  0.00  0.00     0.253 C 
ATOM     16  O   UNL d   1      29.987 -16.699  -3.076  0.00  0.00    -0.268 OA
ATOM     17  N   UNL d   1      28.168 -16.231  -1.795  0.00  0.00    -0.357 N 
ATOM     18  H   UNL d   1      27.434 -15.540  -1.674  0.00  0.00     0.162 HD
BRANCH  17  19
ATOM     19  C   UNL d   1      28.584 -17.058  -0.656  0.00  0.00     0.127 C 
BRANCH  19  20
ATOM     20  C   UNL d   1      27.498 -17.156   0.400  0.00  0.00     0.058 C 
BRANCH  20  21
ATOM     21  C   UNL d   1      26.102 -17.242  -0.146  0.00  0.00    -0.057 C 
ATOM     22  C   UNL d   1      25.399 -16.223  -0.814  0.00  0.00     0.007 C 
ATOM     23  C   UNL d   1      24.039 -16.325  -1.066  0.00  0.00     0.001 C 
ATOM     24  C   UNL d   1      23.399 -17.519  -0.793  0.00  0.00     0.000 C 
ATOM     25  C   UNL d   1      24.095 -18.562  -0.186  0.00  0.00     0.001 C 
ATOM     26  C   UNL d   1      25.435 -18.421   0.135  0.00  0.00     0.007 C 
ENDBRANCH  20  21
ENDBRANCH  19  20
ENDBRANCH  17  19
ENDBRANCH   1  15
BRANCH   8  27
ATOM     27  C   UNL d   1      27.820 -12.844  -1.504  0.00  0.00     0.004 C 
ATOM     28  C   UNL d   1      29.136 -12.979  -2.130  0.00  0.00     0.074 C 
ATOM     29  C   UNL d   1      30.156 -13.679  -1.579  0.00  0.00     0.038 C 
ATOM     30  C   UNL d   1      30.040 -13.995  -0.284  0.00  0.00     0.015 C 
ATOM     31  C   UNL d   1      28.867 -13.693   0.420  0.00  0.00    -0.028 C 
ATOM     32  C   UNL d   1      28.831 -14.152   1.695  0.00  0.00    -0.005 C 
ATOM     33  C   UNL d   1      27.704 -13.109  -0.058  0.00  0.00    -0.016 C 
ATOM     34  C   UNL d   1      27.608 -14.282   2.397  0.00  0.00     0.043 C 
ATOM     35  C   UNL d   1      26.655 -13.325   2.449  0.00  0.00    -0.016 C 
ATOM     36  C   UNL d   1      26.654 -12.935   1.089  0.00  0.00     0.009 C 
BRANCH  28  37
ATOM     37  O   UNL d   1      29.725 -12.686  -3.323  0.00  0.00    -0.360 OA
ATOM     38  H   UNL d   1      30.443 -13.250  -3.548  0.00  0.00     0.217 HD
ENDBRANCH  28  37
ENDBRANCH   8  27
TORSDOF 6
ENDMDL
MODEL 6
REMARK VINA RESULT:    -7.341      2.024      5.548
REMARK INTER + INTRA:         -12.457
REMARK INTER:                  -9.131
REMARK INTRA:                  -3.326
REMARK CONF_INDEPENDENT:        1.790
REMARK UNBOUND:                -3.326
REMARK  6 active torsions:
REMARK  status: ('A' for Active; 'I' for Inactive)
REMARK       I    between atoms: C_2  and  N_3 
REMARK    1  A    between atoms: C_2  and  C_12 
REMARK    2  A    between atoms: N_3  and  C_4 
REMARK    3  A    between atoms: C_4  and  C_5 
REMARK    4  A    between atoms: C_5  and  C_6 
REMARK    5  A    between atoms: C_19  and  C_20 
REMARK    6  A    between atoms: C_21  and  O_22 
ROOT
ATOM      1  C   UNL d   1      25.796 -16.172  -2.392  0.00  0.00     0.053 C 
ATOM      2  C   UNL d   1      24.651 -16.843  -2.041  0.00  0.00     0.019 C 
ATOM      3  C   UNL d   1      24.641 -17.556  -0.826  0.00  0.00     0.002 C 
ATOM      4  C   UNL d   1      25.529 -17.270   0.230  0.00  0.00     0.010 C 
ATOM      5  C   UNL d   1      26.660 -16.553  -0.053  0.00  0.00    -0.028 C 
ATOM      6  C   UNL d   1      26.857 -16.332  -1.461  0.00  0.00     0.031 C 
ATOM      7  N   UNL d   1      28.182 -16.532  -1.919  0.00  0.00    -0.282 NA
ATOM      8  C   UNL d   1      29.058 -15.664  -1.114  0.00  0.00     0.102 C 
ATOM      9  C   UNL d   1      29.053 -15.944   0.425  0.00  0.00     0.024 C 
ATOM     10  C   UNL d   1      29.823 -14.793   1.110  0.00  0.00     0.034 C 
ATOM     11  C   UNL d   1      28.753 -13.854   1.524  0.00  0.00    -0.029 C 
ATOM     12  C   UNL d   1      27.588 -14.514   1.627  0.00  0.00    -0.021 C 
ATOM     13  C   UNL d   1      27.650 -15.989   1.050  0.00  0.00     0.049 C 
ATOM     14  H   UNL d   1      28.339 -17.546  -1.869  0.00  0.00     0.128 HD
ENDROOT
BRANCH   1  15
ATOM     15  C   UNL d   1      25.807 -15.354  -3.702  0.00  0.00     0.253 C 
ATOM     16  O   UNL d   1      24.780 -14.825  -4.128  0.00  0.00    -0.268 OA
ATOM     17  N   UNL d   1      27.007 -15.216  -4.373  0.00  0.00    -0.357 N 
ATOM     18  H   UNL d   1      27.838 -15.453  -3.841  0.00  0.00     0.162 HD
BRANCH  17  19
ATOM     19  C   UNL d   1      27.137 -14.488  -5.641  0.00  0.00     0.127 C 
BRANCH  19  20
ATOM     20  C   UNL d   1      28.581 -14.399  -6.098  0.00  0.00     0.058 C 
BRANCH  20  21
ATOM     21  C   UNL d   1      29.407 -15.617  -5.799  0.00  0.00    -0.057 C 
ATOM     22  C   UNL d   1      29.674 -16.158  -4.528  0.00  0.00     0.007 C 
ATOM     23  C   UNL d   1      30.636 -17.141  -4.345  0.00  0.00     0.001 C 
ATOM     24  C   UNL d   1      31.232 -17.705  -5.457  0.00  0.00     0.000 C 
ATOM     25  C   UNL d   1      30.934 -17.221  -6.730  0.00  0.00     0.001 C 
ATOM     26  C   UNL d   1      30.030 -16.185  -6.896  0.00  0.00     0.007 C 
ENDBRANCH  20  21
ENDBRANCH  19  20
ENDBRANCH  17  19
ENDBRANCH   1  15
BRANCH   8  27
ATOM     27  C   UNL d   1      28.673 -14.218  -1.568  0.00  0.00     0.004 C 
ATOM     28  C   UNL d   1      27.328 -13.680  -1.356  0.00  0.00     0.074 C 
ATOM     29  C   UNL d   1      26.722 -12.826  -2.215  0.00  0.00     0.038 C 
ATOM     30  C   UNL d   1      27.502 -12.229  -3.122  0.00  0.00     0.015 C 
ATOM     31  C   UNL d   1      28.859 -12.561  -3.223  0.00  0.00    -0.028 C 
ATOM     32  C   UNL d   1      29.520 -11.963  -4.244  0.00  0.00    -0.005 C 
ATOM     33  C   UNL d   1      29.567 -13.512  -2.505  0.00  0.00    -0.016 C 
ATOM     34  C   UNL d   1      30.752 -12.471  -4.724  0.00  0.00     0.043 C 
ATOM     35  C   UNL d   1      31.787 -12.829  -3.932  0.00  0.00    -0.016 C 
ATOM     36  C   UNL d   1      31.073 -13.528  -2.930  0.00  0.00     0.009 C 
BRANCH  28  37
ATOM     37  O   UNL d   1      26.280 -13.878  -0.509  0.00  0.00    -0.360 OA
ATOM     38  H   UNL d   1      26.041 -13.121  -0.005  0.00  0.00     0.217 HD
ENDBRANCH  28  37
ENDBRANCH   8  27
TORSDOF 6
ENDMDL
MODEL 7
REMARK VINA RESULT:    -6.730      2.802      5.613
REMARK INTER + INTRA:         -12.154
REMARK INTER:                  -8.519
REMARK INTRA:                  -3.634
REMARK CONF_INDEPENDENT:        1.790
REMARK UNBOUND:                -3.634
REMARK  6 active torsions:
REMARK  status: ('A' for Active; 'I' for Inactive)
REMARK       I    between atoms: C_2  and  N_3 
REMARK    1  A    between atoms: C_2  and  C_12 
REMARK    2  A    between atoms: N_3  and  C_4 
REMARK    3  A    between atoms: C_4  and  C_5 
REMARK    4  A    between atoms: C_5  and  C_6 
REMARK    5  A    between atoms: C_19  and  C_20 
REMARK    6  A    between atoms: C_21  and  O_22 
ROOT
ATOM      1  C   UNL d   1      30.524 -15.768   0.123  0.00  0.00     0.053 C 
ATOM      2  C   UNL d   1      31.530 -16.138   0.981  0.00  0.00     0.019 C 
ATOM      3  C   UNL d   1      31.882 -15.253   2.020  0.00  0.00     0.002 C 
ATOM      4  C   UNL d   1      31.006 -14.260   2.500  0.00  0.00     0.010 C 
ATOM      5  C   UNL d   1      29.951 -13.892   1.709  0.00  0.00    -0.028 C 
ATOM      6  C   UNL d   1      29.989 -14.481   0.397  0.00  0.00     0.031 C 
ATOM      7  N   UNL d   1      29.686 -13.595  -0.665  0.00  0.00    -0.282 NA
ATOM      8  C   UNL d   1      28.365 -13.009  -0.381  0.00  0.00     0.102 C 
ATOM      9  C   UNL d   1      28.265 -12.188   0.947  0.00  0.00     0.024 C 
ATOM     10  C   UNL d   1      26.771 -11.873   1.188  0.00  0.00     0.034 C 
ATOM     11  C   UNL d   1      26.330 -12.950   2.105  0.00  0.00    -0.029 C 
ATOM     12  C   UNL d   1      27.391 -13.452   2.757  0.00  0.00    -0.021 C 
ATOM     13  C   UNL d   1      28.778 -12.937   2.187  0.00  0.00     0.049 C 
ATOM     14  H   UNL d   1      30.488 -12.956  -0.727  0.00  0.00     0.128 HD
ENDROOT
BRANCH   1  15
ATOM     15  C   UNL d   1      30.102 -16.745  -0.995  0.00  0.00     0.253 C 
ATOM     16  O   UNL d   1      30.126 -17.963  -0.815  0.00  0.00    -0.268 OA
ATOM     17  N   UNL d   1      29.678 -16.214  -2.198  0.00  0.00    -0.357 N 
ATOM     18  H   UNL d   1      29.443 -15.226  -2.184  0.00  0.00     0.162 HD
BRANCH  17  19
ATOM     19  C   UNL d   1      29.280 -17.041  -3.343  0.00  0.00     0.127 C 
BRANCH  19  20
ATOM     20  C   UNL d   1      29.849 -16.514  -4.648  0.00  0.00     0.058 C 
BRANCH  20  21
ATOM     21  C   UNL d   1      29.432 -15.113  -4.990  0.00  0.00    -0.057 C 
ATOM     22  C   UNL d   1      29.608 -13.967  -4.193  0.00  0.00     0.007 C 
ATOM     23  C   UNL d   1      28.978 -12.768  -4.496  0.00  0.00     0.001 C 
ATOM     24  C   UNL d   1      28.289 -12.661  -5.688  0.00  0.00     0.000 C 
ATOM     25  C   UNL d   1      28.155 -13.771  -6.520  0.00  0.00     0.001 C 
ATOM     26  C   UNL d   1      28.721 -14.986  -6.171  0.00  0.00     0.007 C 
ENDBRANCH  20  21
ENDBRANCH  19  20
ENDBRANCH  17  19
ENDBRANCH   1  15
BRANCH   8  27
ATOM     27  C   UNL d   1      27.378 -14.210  -0.544  0.00  0.00     0.004 C 
ATOM     28  C   UNL d   1      27.441 -15.379   0.335  0.00  0.00     0.074 C 
ATOM     29  C   UNL d   1      27.159 -16.638  -0.078  0.00  0.00     0.038 C 
ATOM     30  C   UNL d   1      26.513 -16.760  -1.242  0.00  0.00     0.015 C 
ATOM     31  C   UNL d   1      26.239 -15.633  -2.027  0.00  0.00    -0.028 C 
ATOM     32  C   UNL d   1      25.670 -15.896  -3.229  0.00  0.00    -0.005 C 
ATOM     33  C   UNL d   1      26.594 -14.314  -1.789  0.00  0.00    -0.016 C 
ATOM     34  C   UNL d   1      25.692 -14.946  -4.279  0.00  0.00     0.043 C 
ATOM     35  C   UNL d   1      25.372 -13.641  -4.131  0.00  0.00    -0.016 C 
ATOM     36  C   UNL d   1      26.057 -13.377  -2.921  0.00  0.00     0.009 C 
BRANCH  28  37
ATOM     37  O   UNL d   1      27.870 -15.679   1.592  0.00  0.00    -0.360 OA
ATOM     38  H   UNL d   1      28.613 -16.254   1.620  0.00  0.00     0.217 HD
ENDBRANCH  28  37
ENDBRANCH   8  27
TORSDOF 6
ENDMDL
MODEL 8
REMARK VINA RESULT:    -6.683      2.960      7.243
REMARK INTER + INTRA:         -11.588
REMARK INTER:                  -8.473
REMARK INTRA:                  -3.115
REMARK CONF_INDEPENDENT:        1.790
REMARK UNBOUND:                -3.115
REMARK  6 active torsions:
REMARK  status: ('A' for Active; 'I' for Inactive)
REMARK       I    between atoms: C_2  and  N_3 
REMARK    1  A    between atoms: C_2  and  C_12 
REMARK    2  A    between atoms: N_3  and  C_4 
REMARK    3  A    between atoms: C_4  and  C_5 
REMARK    4  A    between atoms: C_5  and  C_6 
REMARK    5  A    between atoms: C_19  and  C_20 
REMARK    6  A    between atoms: C_21  and  O_22 
ROOT
ATOM      1  C   UNL d   1      27.939 -13.849   1.529  0.00  0.00     0.053 C 
ATOM      2  C   UNL d   1      27.719 -13.397   2.806  0.00  0.00     0.019 C 
ATOM      3  C   UNL d   1      28.650 -13.739   3.806  0.00  0.00     0.002 C 
ATOM      4  C   UNL d   1      29.976 -14.114   3.512  0.00  0.00     0.010 C 
ATOM      5  C   UNL d   1      30.265 -14.519   2.237  0.00  0.00    -0.028 C 
ATOM      6  C   UNL d   1      29.100 -14.659   1.405  0.00  0.00     0.031 C 
ATOM      7  N   UNL d   1      29.071 -15.826   0.605  0.00  0.00    -0.282 NA
ATOM      8  C   UNL d   1      30.305 -15.836  -0.198  0.00  0.00     0.102 C 
ATOM      9  C   UNL d   1      31.639 -15.867   0.618  0.00  0.00     0.024 C 
ATOM     10  C   UNL d   1      32.798 -15.623  -0.375  0.00  0.00     0.034 C 
ATOM     11  C   UNL d   1      33.050 -14.166  -0.268  0.00  0.00    -0.029 C 
ATOM     12  C   UNL d   1      32.599 -13.715   0.914  0.00  0.00    -0.021 C 
ATOM     13  C   UNL d   1      31.735 -14.785   1.704  0.00  0.00     0.049 C 
ATOM     14  H   UNL d   1      28.923 -16.604   1.261  0.00  0.00     0.128 HD
ENDROOT
BRANCH   1  15
ATOM     15  C   UNL d   1      26.946 -13.449   0.416  0.00  0.00     0.253 C 
ATOM     16  O   UNL d   1      26.280 -12.417   0.502  0.00  0.00    -0.268 OA
ATOM     17  N   UNL d   1      26.841 -14.271  -0.689  0.00  0.00    -0.357 N 
ATOM     18  H   UNL d   1      27.589 -14.947  -0.807  0.00  0.00     0.162 HD
BRANCH  17  19
ATOM     19  C   UNL d   1      25.913 -14.012  -1.796  0.00  0.00     0.127 C 
BRANCH  19  20
ATOM     20  C   UNL d   1      25.544 -15.284  -2.537  0.00  0.00     0.058 C 
BRANCH  20  21
ATOM     21  C   UNL d   1      25.213 -16.449  -1.651  0.00  0.00    -0.057 C 
ATOM     22  C   UNL d   1      23.928 -16.875  -1.270  0.00  0.00     0.007 C 
ATOM     23  C   UNL d   1      23.741 -17.812  -0.264  0.00  0.00     0.001 C 
ATOM     24  C   UNL d   1      24.847 -18.450   0.265  0.00  0.00     0.000 C 
ATOM     25  C   UNL d   1      26.127 -18.083  -0.145  0.00  0.00     0.001 C 
ATOM     26  C   UNL d   1      26.307 -17.090  -1.093  0.00  0.00     0.007 C 
ENDBRANCH  20  21
ENDBRANCH  19  20
ENDBRANCH  17  19
ENDBRANCH   1  15
BRANCH   8  27
ATOM     27  C   UNL d   1      30.114 -14.644  -1.192  0.00  0.00     0.004 C 
ATOM     28  C   UNL d   1      30.009 -13.262  -0.722  0.00  0.00     0.074 C 
ATOM     29  C   UNL d   1      29.234 -12.327  -1.321  0.00  0.00     0.038 C 
ATOM     30  C   UNL d   1      28.796 -12.607  -2.553  0.00  0.00     0.015 C 
ATOM     31  C   UNL d   1      29.057 -13.854  -3.136  0.00  0.00    -0.028 C 
ATOM     32  C   UNL d   1      28.476 -14.054  -4.344  0.00  0.00    -0.005 C 
ATOM     33  C   UNL d   1      29.712 -14.942  -2.580  0.00  0.00    -0.016 C 
ATOM     34  C   UNL d   1      28.308 -15.356  -4.875  0.00  0.00     0.043 C 
ATOM     35  C   UNL d   1      29.278 -16.297  -4.906  0.00  0.00    -0.016 C 
ATOM     36  C   UNL d   1      29.799 -16.124  -3.601  0.00  0.00     0.009 C 
BRANCH  28  37
ATOM     37  O   UNL d   1      30.403 -12.526   0.354  0.00  0.00    -0.360 OA
ATOM     38  H   UNL d   1      29.701 -12.270   0.925  0.00  0.00     0.217 HD
ENDBRANCH  28  37
ENDBRANCH   8  27
TORSDOF 6
ENDMDL
MODEL 9
REMARK VINA RESULT:    -6.245      3.165      6.621
REMARK INTER + INTRA:         -11.778
REMARK INTER:                  -8.035
REMARK INTRA:                  -3.743
REMARK CONF_INDEPENDENT:        1.790
REMARK UNBOUND:                -3.743
REMARK  6 active torsions:
REMARK  status: ('A' for Active; 'I' for Inactive)
REMARK       I    between atoms: C_2  and  N_3 
REMARK    1  A    between atoms: C_2  and  C_12 
REMARK    2  A    between atoms: N_3  and  C_4 
REMARK    3  A    between atoms: C_4  and  C_5 
REMARK    4  A    between atoms: C_5  and  C_6 
REMARK    5  A    between atoms: C_19  and  C_20 
REMARK    6  A    between atoms: C_21  and  O_22 
ROOT
ATOM      1  C   UNL d   1      26.963 -16.608  -0.600  0.00  0.00     0.053 C 
ATOM      2  C   UNL d   1      26.154 -17.709  -0.477  0.00  0.00     0.019 C 
ATOM      3  C   UNL d   1      24.812 -17.603  -0.895  0.00  0.00     0.002 C 
ATOM      4  C   UNL d   1      24.379 -16.627  -1.814  0.00  0.00     0.010 C 
ATOM      5  C   UNL d   1      25.176 -15.533  -2.018  0.00  0.00    -0.028 C 
ATOM      6  C   UNL d   1      26.294 -15.465  -1.116  0.00  0.00     0.031 C 
ATOM      7  N   UNL d   1      26.543 -14.186  -0.564  0.00  0.00    -0.282 NA
ATOM      8  C   UNL d   1      26.707 -13.250  -1.689  0.00  0.00     0.102 C 
ATOM      9  C   UNL d   1      25.470 -13.113  -2.636  0.00  0.00     0.024 C 
ATOM     10  C   UNL d   1      25.916 -12.296  -3.870  0.00  0.00     0.034 C 
ATOM     11  C   UNL d   1      26.262 -13.333  -4.871  0.00  0.00    -0.029 C 
ATOM     12  C   UNL d   1      25.625 -14.478  -4.573  0.00  0.00    -0.021 C 
ATOM     13  C   UNL d   1      24.923 -14.453  -3.152  0.00  0.00     0.049 C 
ATOM     14  H   UNL d   1      25.768 -14.014   0.090  0.00  0.00     0.128 HD
ENDROOT
BRANCH   1  15
ATOM     15  C   UNL d   1      28.445 -16.723  -0.182  0.00  0.00     0.253 C 
ATOM     16  O   UNL d   1      29.039 -17.800  -0.241  0.00  0.00    -0.268 OA
ATOM     17  N   UNL d   1      29.093 -15.578   0.241  0.00  0.00    -0.357 N 
ATOM     18  H   UNL d   1      28.628 -14.703   0.021  0.00  0.00     0.162 HD
BRANCH  17  19
ATOM     19  C   UNL d   1      30.491 -15.568   0.690  0.00  0.00     0.127 C 
BRANCH  19  20
ATOM     20  C   UNL d   1      30.709 -14.602   1.840  0.00  0.00     0.058 C 
BRANCH  20  21
ATOM     21  C   UNL d   1      29.468 -13.900   2.310  0.00  0.00    -0.057 C 
ATOM     22  C   UNL d   1      28.652 -14.275   3.392  0.00  0.00     0.007 C 
ATOM     23  C   UNL d   1      27.405 -13.700   3.595  0.00  0.00     0.001 C 
ATOM     24  C   UNL d   1      27.030 -12.629   2.806  0.00  0.00     0.000 C 
ATOM     25  C   UNL d   1      27.855 -12.204   1.767  0.00  0.00     0.001 C 
ATOM     26  C   UNL d   1      29.062 -12.837   1.521  0.00  0.00     0.007 C 
ENDBRANCH  20  21
ENDBRANCH  19  20
ENDBRANCH  17  19
ENDBRANCH   1  15
BRANCH   8  27
ATOM     27  C   UNL d   1      28.055 -13.689  -2.349  0.00  0.00     0.004 C 
ATOM     28  C   UNL d   1      28.211 -15.004  -2.973  0.00  0.00     0.074 C 
ATOM     29  C   UNL d   1      29.369 -15.705  -2.955  0.00  0.00     0.038 C 
ATOM     30  C   UNL d   1      30.476 -15.033  -2.619  0.00  0.00     0.015 C 
ATOM     31  C   UNL d   1      30.400 -13.694  -2.214  0.00  0.00    -0.028 C 
ATOM     32  C   UNL d   1      31.574 -13.153  -1.804  0.00  0.00    -0.005 C 
ATOM     33  C   UNL d   1      29.270 -12.907  -2.055  0.00  0.00    -0.016 C 
ATOM     34  C   UNL d   1      31.608 -11.980  -1.011  0.00  0.00     0.043 C 
ATOM     35  C   UNL d   1      30.896 -10.862  -1.276  0.00  0.00    -0.016 C 
ATOM     36  C   UNL d   1      29.656 -11.457  -1.608  0.00  0.00     0.009 C 
BRANCH  28  37
ATOM     37  O   UNL d   1      27.421 -15.950  -3.551  0.00  0.00    -0.360 OA
ATOM     38  H   UNL d   1      27.333 -16.740  -3.049  0.00  0.00     0.217 HD
ENDBRANCH  28  37
ENDBRANCH   8  27
TORSDOF 6
ENDMDL
