MODEL 1
REMARK VINA RESULT:    -8.869      0.000      0.000
REMARK INTER + INTRA:         -10.845
REMARK INTER:                 -10.062
REMARK INTRA:                  -0.783
REMARK CONF_INDEPENDENT:        1.193
REMARK UNBOUND:                -0.783
REMARK  4 active torsions:
REMARK  status: ('A' for Active; 'I' for Inactive)
REMARK    1  A    between atoms: C_4  and  N_5 
REMARK    2  A    between atoms: C_10  and  C_11 
REMARK    3  A    between atoms: C_14  and  C_15 
REMARK    4  A    between atoms: C_17  and  O_18 
ROOT
ATOM      1  C   UNL d   1      27.903 -13.769   0.945  0.00  0.00     0.267 C 
ATOM      2  N   UNL d   1      27.156 -12.573   1.421  0.00  0.00    -0.233 NA
ATOM      3  C   UNL d   1      27.377 -12.212   2.630  0.00  0.00     0.173 C 
ATOM      4  C   UNL d   1      28.269 -12.871   3.544  0.00  0.00     0.057 A 
ATOM      5  C   UNL d   1      28.738 -14.108   3.190  0.00  0.00     0.087 A 
ATOM      6  S   UNL d   1      29.700 -14.809   4.411  0.00  0.00    -0.074 SA
ATOM      7  C   UNL d   1      29.549 -13.426   5.404  0.00  0.00     0.018 A 
ATOM      8  C   UNL d   1      28.751 -12.455   4.817  0.00  0.00    -0.024 A 
ATOM      9  C   UNL d   1      28.435 -11.159   5.502  0.00  0.00     0.068 C 
ATOM     10  C   UNL d   1      29.412 -10.902   6.654  0.00  0.00     0.239 C 
ATOM     11  N   UNL d   1      29.526 -12.146   7.535  0.00  0.00    -0.070 N 
ATOM     12  C   UNL d   1      28.199 -12.573   8.112  0.00  0.00     0.270 C 
ATOM     13  C   UNL d   1      30.194 -13.287   6.752  0.00  0.00     0.281 C 
ATOM     14  N   UNL d   1      28.404 -14.654   2.007  0.00  0.00    -0.355 N 
ATOM     15  H   UNL d   1      30.140 -11.908   8.325  0.00  0.00     0.279 HD
ATOM     16  H   UNL d   1      28.554 -15.627   1.758  0.00  0.00     0.162 HD
ENDROOT
BRANCH   1  17
ATOM     17  C   UNL d   1      26.977 -14.514   0.012  0.00  0.00     0.098 A 
ATOM     18  C   UNL d   1      27.022 -14.578  -1.365  0.00  0.00     0.040 A 
ATOM     19  C   UNL d   1      25.937 -15.365  -1.771  0.00  0.00     0.041 A 
ATOM     20  C   UNL d   1      25.287 -15.788  -0.630  0.00  0.00     0.086 A 
ATOM     21  O   UNL d   1      25.901 -15.247   0.481  0.00  0.00    -0.310 OA
BRANCH  20  22
ATOM     22  C   UNL d   1      24.152 -16.710  -0.489  0.00  0.00     0.004 A 
ATOM     23  C   UNL d   1      22.856 -16.316  -0.863  0.00  0.00     0.017 A 
ATOM     24  C   UNL d   1      21.797 -17.241  -0.895  0.00  0.00     0.037 A 
ATOM     25  C   UNL d   1      22.023 -18.575  -0.537  0.00  0.00     0.103 A 
ATOM     26  C   UNL d   1      23.307 -18.994  -0.169  0.00  0.00     0.043 A 
ATOM     27  C   UNL d   1      24.375 -18.072  -0.150  0.00  0.00    -0.047 A 
ATOM     28  C   UNL d   1      25.750 -18.575   0.213  0.00  0.00     0.049 C 
BRANCH  25  29
ATOM     29  N   UNL d   1      20.916 -19.545  -0.542  0.00  0.00    -0.116 N 
ATOM     30  O   UNL d   1      20.665 -20.145   0.507  0.00  0.00    -0.532 OA
ATOM     31  O   UNL d   1      20.295 -19.700  -1.609  0.00  0.00    -0.532 OA
ENDBRANCH  25  29
ENDBRANCH  20  22
ENDBRANCH   1  17
BRANCH   3  32
ATOM     32  O   UNL d   1      26.723 -11.147   3.133  0.00  0.00    -0.344 OA
ATOM     33  H   UNL d   1      26.783 -10.426   2.485  0.00  0.00     0.219 HD
ENDBRANCH   3  32
TORSDOF 4
ENDMDL
MODEL 2
REMARK VINA RESULT:    -8.620      4.806      7.409
REMARK INTER + INTRA:         -10.279
REMARK INTER:                  -9.813
REMARK INTRA:                  -0.466
REMARK CONF_INDEPENDENT:        1.193
REMARK UNBOUND:                -0.466
REMARK  4 active torsions:
REMARK  status: ('A' for Active; 'I' for Inactive)
REMARK    1  A    between atoms: C_4  and  N_5 
REMARK    2  A    between atoms: C_10  and  C_11 
REMARK    3  A    between atoms: C_14  and  C_15 
REMARK    4  A    between atoms: C_17  and  O_18 
ROOT
ATOM      1  C   UNL d   1      26.977 -12.919  -2.548  0.00  0.00     0.267 C 
ATOM      2  N   UNL d   1      26.303 -13.185  -3.848  0.00  0.00    -0.233 NA
ATOM      3  C   UNL d   1      25.864 -12.159  -4.478  0.00  0.00     0.173 C 
ATOM      4  C   UNL d   1      25.964 -10.800  -4.024  0.00  0.00     0.057 A 
ATOM      5  C   UNL d   1      26.338 -10.593  -2.722  0.00  0.00     0.087 A 
ATOM      6  S   UNL d   1      26.316  -8.941  -2.298  0.00  0.00    -0.074 SA
ATOM      7  C   UNL d   1      25.866  -8.482  -3.882  0.00  0.00     0.018 A 
ATOM      8  C   UNL d   1      25.709  -9.581  -4.713  0.00  0.00    -0.024 A 
ATOM      9  C   UNL d   1      25.284  -9.446  -6.145  0.00  0.00     0.068 C 
ATOM     10  C   UNL d   1      25.472  -8.006  -6.633  0.00  0.00     0.239 C 
ATOM     11  N   UNL d   1      24.863  -7.026  -5.630  0.00  0.00    -0.070 N 
ATOM     12  C   UNL d   1      23.393  -7.270  -5.400  0.00  0.00     0.270 C 
ATOM     13  C   UNL d   1      25.656  -7.060  -4.314  0.00  0.00     0.281 C 
ATOM     14  N   UNL d   1      26.641 -11.631  -1.923  0.00  0.00    -0.355 N 
ATOM     15  H   UNL d   1      24.958  -6.083  -6.028  0.00  0.00     0.279 HD
ATOM     16  H   UNL d   1      26.740 -11.573  -0.914  0.00  0.00     0.162 HD
ENDROOT
BRANCH   1  17
ATOM     17  C   UNL d   1      26.627 -14.071  -1.635  0.00  0.00     0.098 A 
ATOM     18  C   UNL d   1      27.348 -14.568  -0.570  0.00  0.00     0.040 A 
ATOM     19  C   UNL d   1      26.626 -15.653  -0.061  0.00  0.00     0.041 A 
ATOM     20  C   UNL d   1      25.470 -15.764  -0.805  0.00  0.00     0.086 A 
ATOM     21  O   UNL d   1      25.468 -14.810  -1.802  0.00  0.00    -0.310 OA
BRANCH  20  22
ATOM     22  C   UNL d   1      24.327 -16.669  -0.628  0.00  0.00     0.004 A 
ATOM     23  C   UNL d   1      23.018 -16.234  -0.895  0.00  0.00     0.017 A 
ATOM     24  C   UNL d   1      21.939 -17.136  -0.895  0.00  0.00     0.037 A 
ATOM     25  C   UNL d   1      22.159 -18.489  -0.612  0.00  0.00     0.103 A 
ATOM     26  C   UNL d   1      23.455 -18.949  -0.352  0.00  0.00     0.043 A 
ATOM     27  C   UNL d   1      24.542 -18.050  -0.365  0.00  0.00    -0.047 A 
ATOM     28  C   UNL d   1      25.927 -18.595  -0.121  0.00  0.00     0.049 C 
BRANCH  25  29
ATOM     29  N   UNL d   1      21.033 -19.436  -0.585  0.00  0.00    -0.116 N 
ATOM     30  O   UNL d   1      20.701 -19.912   0.505  0.00  0.00    -0.532 OA
ATOM     31  O   UNL d   1      20.479 -19.700  -1.667  0.00  0.00    -0.532 OA
ENDBRANCH  25  29
ENDBRANCH  20  22
ENDBRANCH   1  17
BRANCH   3  32
ATOM     32  O   UNL d   1      25.227 -12.327  -5.653  0.00  0.00    -0.344 OA
ATOM     33  H   UNL d   1      24.554 -11.632  -5.730  0.00  0.00     0.219 HD
ENDBRANCH   3  32
TORSDOF 4
ENDMDL
MODEL 3
REMARK VINA RESULT:    -7.873      4.882      8.274
REMARK INTER + INTRA:          -9.732
REMARK INTER:                  -9.066
REMARK INTRA:                  -0.666
REMARK CONF_INDEPENDENT:        1.193
REMARK UNBOUND:                -0.666
REMARK  4 active torsions:
REMARK  status: ('A' for Active; 'I' for Inactive)
REMARK    1  A    between atoms: C_4  and  N_5 
REMARK    2  A    between atoms: C_10  and  C_11 
REMARK    3  A    between atoms: C_14  and  C_15 
REMARK    4  A    between atoms: C_17  and  O_18 
ROOT
ATOM      1  C   UNL d   1      28.174 -14.088  -2.795  0.00  0.00     0.267 C 
ATOM      2  N   UNL d   1      28.129 -15.092  -3.893  0.00  0.00    -0.233 NA
ATOM      3  C   UNL d   1      28.097 -14.626  -5.086  0.00  0.00     0.173 C 
ATOM      4  C   UNL d   1      28.090 -13.232  -5.433  0.00  0.00     0.057 A 
ATOM      5  C   UNL d   1      27.862 -12.330  -4.427  0.00  0.00     0.087 A 
ATOM      6  S   UNL d   1      27.783 -10.727  -5.003  0.00  0.00    -0.074 SA
ATOM      7  C   UNL d   1      28.121 -11.224  -6.603  0.00  0.00     0.018 A 
ATOM      8  C   UNL d   1      28.264 -12.600  -6.696  0.00  0.00    -0.024 A 
ATOM      9  C   UNL d   1      28.531 -13.290  -8.001  0.00  0.00     0.068 C 
ATOM     10  C   UNL d   1      29.028 -12.290  -9.051  0.00  0.00     0.239 C 
ATOM     11  N   UNL d   1      28.115 -11.064  -9.084  0.00  0.00    -0.070 N 
ATOM     12  C   UNL d   1      26.681 -11.416  -9.392  0.00  0.00     0.270 C 
ATOM     13  C   UNL d   1      28.235 -10.282  -7.766  0.00  0.00     0.281 C 
ATOM     14  N   UNL d   1      27.697 -12.746  -3.160  0.00  0.00    -0.355 N 
ATOM     15  H   UNL d   1      28.450 -10.453  -9.841  0.00  0.00     0.279 HD
ATOM     16  H   UNL d   1      27.342 -12.167  -2.404  0.00  0.00     0.162 HD
ENDROOT
BRANCH   1  17
ATOM     17  C   UNL d   1      27.366 -14.659  -1.653  0.00  0.00     0.098 A 
ATOM     18  C   UNL d   1      27.521 -14.436  -0.301  0.00  0.00     0.040 A 
ATOM     19  C   UNL d   1      26.555 -15.209   0.352  0.00  0.00     0.041 A 
ATOM     20  C   UNL d   1      25.816 -15.851  -0.620  0.00  0.00     0.086 A 
ATOM     21  O   UNL d   1      26.323 -15.544  -1.866  0.00  0.00    -0.310 OA
BRANCH  20  22
ATOM     22  C   UNL d   1      24.626 -16.700  -0.481  0.00  0.00     0.004 A 
ATOM     23  C   UNL d   1      23.358 -16.229  -0.862  0.00  0.00     0.017 A 
ATOM     24  C   UNL d   1      22.244 -17.088  -0.895  0.00  0.00     0.037 A 
ATOM     25  C   UNL d   1      22.387 -18.431  -0.531  0.00  0.00     0.103 A 
ATOM     26  C   UNL d   1      23.641 -18.928  -0.156  0.00  0.00     0.043 A 
ATOM     27  C   UNL d   1      24.763 -18.073  -0.136  0.00  0.00    -0.047 A 
ATOM     28  C   UNL d   1      26.103 -18.658   0.234  0.00  0.00     0.049 C 
BRANCH  25  29
ATOM     29  N   UNL d   1      21.222 -19.332  -0.537  0.00  0.00    -0.116 N 
ATOM     30  O   UNL d   1      20.788 -19.727   0.548  0.00  0.00    -0.532 OA
ATOM     31  O   UNL d   1      20.741 -19.638  -1.643  0.00  0.00    -0.532 OA
ENDBRANCH  25  29
ENDBRANCH  20  22
ENDBRANCH   1  17
BRANCH   3  32
ATOM     32  O   UNL d   1      28.038 -15.478  -6.128  0.00  0.00    -0.344 OA
ATOM     33  H   UNL d   1      28.931 -15.830  -6.277  0.00  0.00     0.219 HD
ENDBRANCH   3  32
TORSDOF 4
ENDMDL
MODEL 4
REMARK VINA RESULT:    -7.816      3.866      4.828
REMARK INTER + INTRA:          -9.587
REMARK INTER:                  -9.009
REMARK INTRA:                  -0.578
REMARK CONF_INDEPENDENT:        1.193
REMARK UNBOUND:                -0.578
REMARK  4 active torsions:
REMARK  status: ('A' for Active; 'I' for Inactive)
REMARK    1  A    between atoms: C_4  and  N_5 
REMARK    2  A    between atoms: C_10  and  C_11 
REMARK    3  A    between atoms: C_14  and  C_15 
REMARK    4  A    between atoms: C_17  and  O_18 
ROOT
ATOM      1  C   UNL d   1      27.399 -12.977   3.626  0.00  0.00     0.267 C 
ATOM      2  N   UNL d   1      28.332 -14.133   3.722  0.00  0.00    -0.233 NA
ATOM      3  C   UNL d   1      29.054 -14.193   4.778  0.00  0.00     0.173 C 
ATOM      4  C   UNL d   1      29.036 -13.237   5.851  0.00  0.00     0.057 A 
ATOM      5  C   UNL d   1      28.383 -12.053   5.634  0.00  0.00     0.087 A 
ATOM      6  S   UNL d   1      28.531 -10.982   6.952  0.00  0.00    -0.074 SA
ATOM      7  C   UNL d   1      29.421 -12.127   7.857  0.00  0.00     0.018 A 
ATOM      8  C   UNL d   1      29.623 -13.300   7.146  0.00  0.00    -0.024 A 
ATOM      9  C   UNL d   1      30.406 -14.450   7.707  0.00  0.00     0.068 C 
ATOM     10  C   UNL d   1      30.551 -14.317   9.227  0.00  0.00     0.239 C 
ATOM     11  N   UNL d   1      31.023 -12.909   9.590  0.00  0.00    -0.070 N 
ATOM     12  C   UNL d   1      32.340 -12.554   8.946  0.00  0.00     0.270 C 
ATOM     13  C   UNL d   1      29.931 -11.883   9.247  0.00  0.00     0.281 C 
ATOM     14  N   UNL d   1      27.748 -11.825   4.471  0.00  0.00    -0.355 N 
ATOM     15  H   UNL d   1      31.164 -12.886  10.608  0.00  0.00     0.279 HD
ATOM     16  H   UNL d   1      27.409 -10.917   4.167  0.00  0.00     0.162 HD
ENDROOT
BRANCH   1  17
ATOM     17  C   UNL d   1      27.345 -12.583   2.169  0.00  0.00     0.098 A 
ATOM     18  C   UNL d   1      27.636 -11.360   1.602  0.00  0.00     0.040 A 
ATOM     19  C   UNL d   1      27.409 -11.484   0.227  0.00  0.00     0.041 A 
ATOM     20  C   UNL d   1      27.024 -12.788  -0.010  0.00  0.00     0.086 A 
ATOM     21  O   UNL d   1      26.951 -13.474   1.185  0.00  0.00    -0.310 OA
BRANCH  20  22
ATOM     22  C   UNL d   1      26.762 -13.467  -1.285  0.00  0.00     0.004 A 
ATOM     23  C   UNL d   1      26.283 -12.751  -2.396  0.00  0.00     0.017 A 
ATOM     24  C   UNL d   1      26.192 -13.353  -3.664  0.00  0.00     0.037 A 
ATOM     25  C   UNL d   1      26.570 -14.690  -3.831  0.00  0.00     0.103 A 
ATOM     26  C   UNL d   1      27.059 -15.423  -2.743  0.00  0.00     0.043 A 
ATOM     27  C   UNL d   1      27.164 -14.818  -1.473  0.00  0.00    -0.047 A 
ATOM     28  C   UNL d   1      27.734 -15.631  -0.337  0.00  0.00     0.049 C 
BRANCH  25  29
ATOM     29  N   UNL d   1      26.455 -15.337  -5.148  0.00  0.00    -0.116 N 
ATOM     30  O   UNL d   1      25.426 -15.972  -5.395  0.00  0.00    -0.532 OA
ATOM     31  O   UNL d   1      27.406 -15.200  -5.939  0.00  0.00    -0.532 OA
ENDBRANCH  25  29
ENDBRANCH  20  22
ENDBRANCH   1  17
BRANCH   3  32
ATOM     32  O   UNL d   1      29.933 -15.203   4.923  0.00  0.00    -0.344 OA
ATOM     33  H   UNL d   1      29.662 -15.922   4.329  0.00  0.00     0.219 HD
ENDBRANCH   3  32
TORSDOF 4
ENDMDL
MODEL 5
REMARK VINA RESULT:    -7.667      3.992      4.984
REMARK INTER + INTRA:          -9.455
REMARK INTER:                  -8.860
REMARK INTRA:                  -0.595
REMARK CONF_INDEPENDENT:        1.193
REMARK UNBOUND:                -0.595
REMARK  4 active torsions:
REMARK  status: ('A' for Active; 'I' for Inactive)
REMARK    1  A    between atoms: C_4  and  N_5 
REMARK    2  A    between atoms: C_10  and  C_11 
REMARK    3  A    between atoms: C_14  and  C_15 
REMARK    4  A    between atoms: C_17  and  O_18 
ROOT
ATOM      1  C   UNL d   1      29.104 -15.590  -1.090  0.00  0.00     0.267 C 
ATOM      2  N   UNL d   1      29.449 -14.907   0.186  0.00  0.00    -0.233 NA
ATOM      3  C   UNL d   1      30.396 -15.431   0.872  0.00  0.00     0.173 C 
ATOM      4  C   UNL d   1      31.127 -16.613   0.509  0.00  0.00     0.057 A 
ATOM      5  C   UNL d   1      30.631 -17.376  -0.514  0.00  0.00     0.087 A 
ATOM      6  S   UNL d   1      31.543 -18.795  -0.764  0.00  0.00    -0.074 SA
ATOM      7  C   UNL d   1      32.656 -18.364   0.459  0.00  0.00     0.018 A 
ATOM      8  C   UNL d   1      32.315 -17.165   1.067  0.00  0.00    -0.024 A 
ATOM      9  C   UNL d   1      33.114 -16.585   2.196  0.00  0.00     0.068 C 
ATOM     10  C   UNL d   1      34.501 -17.234   2.267  0.00  0.00     0.239 C 
ATOM     11  N   UNL d   1      34.373 -18.756   2.214  0.00  0.00    -0.070 N 
ATOM     12  C   UNL d   1      33.523 -19.308   3.331  0.00  0.00     0.270 C 
ATOM     13  C   UNL d   1      33.849 -19.192   0.836  0.00  0.00     0.281 C 
ATOM     14  N   UNL d   1      29.523 -16.997  -1.175  0.00  0.00    -0.355 N 
ATOM     15  H   UNL d   1      35.318 -19.147   2.326  0.00  0.00     0.279 HD
ATOM     16  H   UNL d   1      28.996 -17.593  -1.806  0.00  0.00     0.162 HD
ENDROOT
BRANCH   1  17
ATOM     17  C   UNL d   1      27.609 -15.458  -1.261  0.00  0.00     0.098 A 
ATOM     18  C   UNL d   1      26.907 -14.461  -1.904  0.00  0.00     0.040 A 
ATOM     19  C   UNL d   1      25.548 -14.768  -1.768  0.00  0.00     0.041 A 
ATOM     20  C   UNL d   1      25.463 -15.961  -1.080  0.00  0.00     0.086 A 
ATOM     21  O   UNL d   1      26.728 -16.387  -0.734  0.00  0.00    -0.310 OA
BRANCH  20  22
ATOM     22  C   UNL d   1      24.281 -16.771  -0.758  0.00  0.00     0.004 A 
ATOM     23  C   UNL d   1      22.988 -16.299  -1.039  0.00  0.00     0.017 A 
ATOM     24  C   UNL d   1      21.863 -17.131  -0.895  0.00  0.00     0.037 A 
ATOM     25  C   UNL d   1      22.022 -18.450  -0.453  0.00  0.00     0.103 A 
ATOM     26  C   UNL d   1      23.301 -18.948  -0.176  0.00  0.00     0.043 A 
ATOM     27  C   UNL d   1      24.432 -18.119  -0.333  0.00  0.00    -0.047 A 
ATOM     28  C   UNL d   1      25.794 -18.708  -0.063  0.00  0.00     0.049 C 
BRANCH  25  29
ATOM     29  N   UNL d   1      20.849 -19.321  -0.275  0.00  0.00    -0.116 N 
ATOM     30  O   UNL d   1      20.259 -19.713  -1.286  0.00  0.00    -0.532 OA
ATOM     31  O   UNL d   1      20.525 -19.614   0.889  0.00  0.00    -0.532 OA
ENDBRANCH  25  29
ENDBRANCH  20  22
ENDBRANCH   1  17
BRANCH   3  32
ATOM     32  O   UNL d   1      30.749 -14.874   2.047  0.00  0.00    -0.344 OA
ATOM     33  H   UNL d   1      30.756 -15.575   2.719  0.00  0.00     0.219 HD
ENDBRANCH   3  32
TORSDOF 4
ENDMDL
MODEL 6
REMARK VINA RESULT:    -7.556      5.291      8.498
REMARK INTER + INTRA:          -9.500
REMARK INTER:                  -8.749
REMARK INTRA:                  -0.750
REMARK CONF_INDEPENDENT:        1.193
REMARK UNBOUND:                -0.750
REMARK  4 active torsions:
REMARK  status: ('A' for Active; 'I' for Inactive)
REMARK    1  A    between atoms: C_4  and  N_5 
REMARK    2  A    between atoms: C_10  and  C_11 
REMARK    3  A    between atoms: C_14  and  C_15 
REMARK    4  A    between atoms: C_17  and  O_18 
ROOT
ATOM      1  C   UNL d   1      29.034 -15.699  -2.496  0.00  0.00     0.267 C 
ATOM      2  N   UNL d   1      29.655 -16.990  -2.092  0.00  0.00    -0.233 NA
ATOM      3  C   UNL d   1      30.235 -17.655  -3.022  0.00  0.00     0.173 C 
ATOM      4  C   UNL d   1      30.317 -17.256  -4.399  0.00  0.00     0.057 A 
ATOM      5  C   UNL d   1      29.523 -16.218  -4.808  0.00  0.00     0.087 A 
ATOM      6  S   UNL d   1      29.651 -15.925  -6.483  0.00  0.00    -0.074 SA
ATOM      7  C   UNL d   1      30.828 -17.151  -6.665  0.00  0.00     0.018 A 
ATOM      8  C   UNL d   1      31.096 -17.791  -5.464  0.00  0.00    -0.024 A 
ATOM      9  C   UNL d   1      32.069 -18.928  -5.364  0.00  0.00     0.068 C 
ATOM     10  C   UNL d   1      32.979 -18.973  -6.596  0.00  0.00     0.239 C 
ATOM     11  N   UNL d   1      32.142 -18.882  -7.873  0.00  0.00    -0.070 N 
ATOM     12  C   UNL d   1      31.126 -19.991  -7.981  0.00  0.00     0.270 C 
ATOM     13  C   UNL d   1      31.482 -17.498  -7.971  0.00  0.00     0.281 C 
ATOM     14  N   UNL d   1      28.733 -15.575  -3.930  0.00  0.00    -0.355 N 
ATOM     15  H   UNL d   1      32.786 -18.977  -8.668  0.00  0.00     0.279 HD
ATOM     16  H   UNL d   1      27.989 -14.933  -4.186  0.00  0.00     0.162 HD
ENDROOT
BRANCH   1  17
ATOM     17  C   UNL d   1      27.782 -15.542  -1.664  0.00  0.00     0.098 A 
ATOM     18  C   UNL d   1      27.420 -14.486  -0.855  0.00  0.00     0.040 A 
ATOM     19  C   UNL d   1      26.192 -14.821  -0.274  0.00  0.00     0.041 A 
ATOM     20  C   UNL d   1      25.822 -16.052  -0.775  0.00  0.00     0.086 A 
ATOM     21  O   UNL d   1      26.809 -16.526  -1.614  0.00  0.00    -0.310 OA
BRANCH  20  22
ATOM     22  C   UNL d   1      24.582 -16.811  -0.568  0.00  0.00     0.004 A 
ATOM     23  C   UNL d   1      23.338 -16.265  -0.925  0.00  0.00     0.017 A 
ATOM     24  C   UNL d   1      22.167 -17.043  -0.893  0.00  0.00     0.037 A 
ATOM     25  C   UNL d   1      22.228 -18.381  -0.487  0.00  0.00     0.103 A 
ATOM     26  C   UNL d   1      23.457 -18.952  -0.135  0.00  0.00     0.043 A 
ATOM     27  C   UNL d   1      24.636 -18.178  -0.180  0.00  0.00    -0.047 A 
ATOM     28  C   UNL d   1      25.944 -18.843   0.168  0.00  0.00     0.049 C 
BRANCH  25  29
ATOM     29  N   UNL d   1      21.005 -19.197  -0.425  0.00  0.00    -0.116 N 
ATOM     30  O   UNL d   1      20.517 -19.595  -1.487  0.00  0.00    -0.532 OA
ATOM     31  O   UNL d   1      20.534 -19.440   0.701  0.00  0.00    -0.532 OA
ENDBRANCH  25  29
ENDBRANCH  20  22
ENDBRANCH   1  17
BRANCH   3  32
ATOM     32  O   UNL d   1      30.804 -18.840  -2.731  0.00  0.00    -0.344 OA
ATOM     33  H   UNL d   1      30.579 -19.062  -1.812  0.00  0.00     0.219 HD
ENDBRANCH   3  32
TORSDOF 4
ENDMDL
MODEL 7
REMARK VINA RESULT:    -7.267      6.678      9.494
REMARK INTER + INTRA:          -9.220
REMARK INTER:                  -8.460
REMARK INTRA:                  -0.760
REMARK CONF_INDEPENDENT:        1.193
REMARK UNBOUND:                -0.760
REMARK  4 active torsions:
REMARK  status: ('A' for Active; 'I' for Inactive)
REMARK    1  A    between atoms: C_4  and  N_5 
REMARK    2  A    between atoms: C_10  and  C_11 
REMARK    3  A    between atoms: C_14  and  C_15 
REMARK    4  A    between atoms: C_17  and  O_18 
ROOT
ATOM      1  C   UNL d   1      28.670 -15.716  -2.633  0.00  0.00     0.267 C 
ATOM      2  N   UNL d   1      27.520 -15.145  -3.387  0.00  0.00    -0.233 NA
ATOM      3  C   UNL d   1      26.353 -15.490  -2.986  0.00  0.00     0.173 C 
ATOM      4  C   UNL d   1      26.080 -16.379  -1.891  0.00  0.00     0.057 A 
ATOM      5  C   UNL d   1      27.129 -17.100  -1.384  0.00  0.00     0.087 A 
ATOM      6  S   UNL d   1      26.638 -18.183  -0.161  0.00  0.00    -0.074 SA
ATOM      7  C   UNL d   1      25.018 -17.644  -0.255  0.00  0.00     0.018 A 
ATOM      8  C   UNL d   1      24.855 -16.670  -1.228  0.00  0.00    -0.024 A 
ATOM      9  C   UNL d   1      23.519 -16.059  -1.531  0.00  0.00     0.068 C 
ATOM     10  C   UNL d   1      22.530 -16.325  -0.391  0.00  0.00     0.239 C 
ATOM     11  N   UNL d   1      22.549 -17.806  -0.012  0.00  0.00    -0.070 N 
ATOM     12  C   UNL d   1      22.204 -18.707  -1.171  0.00  0.00     0.270 C 
ATOM     13  C   UNL d   1      23.908 -18.173   0.605  0.00  0.00     0.281 C 
ATOM     14  N   UNL d   1      28.371 -16.939  -1.873  0.00  0.00    -0.355 N 
ATOM     15  H   UNL d   1      21.830 -17.947   0.710  0.00  0.00     0.279 HD
ATOM     16  H   UNL d   1      29.150 -17.561  -1.684  0.00  0.00     0.162 HD
ENDROOT
BRANCH   1  17
ATOM     17  C   UNL d   1      29.769 -15.959  -3.640  0.00  0.00     0.098 A 
ATOM     18  C   UNL d   1      31.014 -15.370  -3.706  0.00  0.00     0.040 A 
ATOM     19  C   UNL d   1      31.657 -15.901  -4.830  0.00  0.00     0.041 A 
ATOM     20  C   UNL d   1      30.801 -16.825  -5.394  0.00  0.00     0.086 A 
ATOM     21  O   UNL d   1      29.617 -16.852  -4.687  0.00  0.00    -0.310 OA
BRANCH  20  22
ATOM     22  C   UNL d   1      31.023 -17.733  -6.527  0.00  0.00     0.004 A 
ATOM     23  C   UNL d   1      31.536 -17.252  -7.744  0.00  0.00     0.017 A 
ATOM     24  C   UNL d   1      31.912 -18.134  -8.773  0.00  0.00     0.037 A 
ATOM     25  C   UNL d   1      31.765 -19.515  -8.598  0.00  0.00     0.103 A 
ATOM     26  C   UNL d   1      31.265 -20.020  -7.391  0.00  0.00     0.043 A 
ATOM     27  C   UNL d   1      30.900 -19.139  -6.352  0.00  0.00    -0.047 A 
ATOM     28  C   UNL d   1      30.405 -19.727  -5.054  0.00  0.00     0.049 C 
BRANCH  25  29
ATOM     29  N   UNL d   1      32.132 -20.445  -9.678  0.00  0.00    -0.116 N 
ATOM     30  O   UNL d   1      31.223 -21.035 -10.270  0.00  0.00    -0.532 OA
ATOM     31  O   UNL d   1      33.342 -20.579  -9.933  0.00  0.00    -0.532 OA
ENDBRANCH  25  29
ENDBRANCH  20  22
ENDBRANCH   1  17
BRANCH   3  32
ATOM     32  O   UNL d   1      25.267 -15.025  -3.633  0.00  0.00    -0.344 OA
ATOM     33  H   UNL d   1      25.233 -14.062  -3.505  0.00  0.00     0.219 HD
ENDBRANCH   3  32
TORSDOF 4
ENDMDL
MODEL 8
REMARK VINA RESULT:    -7.075      5.271      8.187
REMARK INTER + INTRA:          -9.284
REMARK INTER:                  -8.268
REMARK INTRA:                  -1.016
REMARK CONF_INDEPENDENT:        1.193
REMARK UNBOUND:                -1.016
REMARK  4 active torsions:
REMARK  status: ('A' for Active; 'I' for Inactive)
REMARK    1  A    between atoms: C_4  and  N_5 
REMARK    2  A    between atoms: C_10  and  C_11 
REMARK    3  A    between atoms: C_14  and  C_15 
REMARK    4  A    between atoms: C_17  and  O_18 
ROOT
ATOM      1  C   UNL d   1      28.832 -16.286  -1.761  0.00  0.00     0.267 C 
ATOM      2  N   UNL d   1      29.984 -17.227  -1.711  0.00  0.00    -0.233 NA
ATOM      3  C   UNL d   1      30.686 -17.320  -2.779  0.00  0.00     0.173 C 
ATOM      4  C   UNL d   1      30.439 -16.604  -4.000  0.00  0.00     0.057 A 
ATOM      5  C   UNL d   1      29.239 -15.956  -4.123  0.00  0.00     0.087 A 
ATOM      6  S   UNL d   1      29.046 -15.238  -5.658  0.00  0.00    -0.074 SA
ATOM      7  C   UNL d   1      30.605 -15.736  -6.150  0.00  0.00     0.018 A 
ATOM      8  C   UNL d   1      31.249 -16.464  -5.162  0.00  0.00    -0.024 A 
ATOM      9  C   UNL d   1      32.619 -17.044  -5.360  0.00  0.00     0.068 C 
ATOM     10  C   UNL d   1      33.320 -16.382  -6.551  0.00  0.00     0.239 C 
ATOM     11  N   UNL d   1      32.390 -16.360  -7.764  0.00  0.00    -0.070 N 
ATOM     12  C   UNL d   1      31.938 -17.739  -8.174  0.00  0.00     0.270 C 
ATOM     13  C   UNL d   1      31.197 -15.430  -7.495  0.00  0.00     0.281 C 
ATOM     14  N   UNL d   1      28.351 -15.961  -3.113  0.00  0.00    -0.355 N 
ATOM     15  H   UNL d   1      32.922 -15.965  -8.551  0.00  0.00     0.279 HD
ATOM     16  H   UNL d   1      27.382 -15.671  -3.195  0.00  0.00     0.162 HD
ENDROOT
BRANCH   1  17
ATOM     17  C   UNL d   1      27.732 -16.903  -0.929  0.00  0.00     0.098 A 
ATOM     18  C   UNL d   1      27.768 -17.269   0.400  0.00  0.00     0.040 A 
ATOM     19  C   UNL d   1      26.519 -17.822   0.704  0.00  0.00     0.041 A 
ATOM     20  C   UNL d   1      25.746 -17.743  -0.436  0.00  0.00     0.086 A 
ATOM     21  O   UNL d   1      26.491 -17.204  -1.464  0.00  0.00    -0.310 OA
BRANCH  20  22
ATOM     22  C   UNL d   1      24.333 -18.090  -0.633  0.00  0.00     0.004 A 
ATOM     23  C   UNL d   1      23.816 -19.302  -0.145  0.00  0.00     0.017 A 
ATOM     24  C   UNL d   1      22.435 -19.568  -0.175  0.00  0.00     0.037 A 
ATOM     25  C   UNL d   1      21.553 -18.622  -0.709  0.00  0.00     0.103 A 
ATOM     26  C   UNL d   1      22.042 -17.402  -1.192  0.00  0.00     0.043 A 
ATOM     27  C   UNL d   1      23.425 -17.127  -1.151  0.00  0.00    -0.047 A 
ATOM     28  C   UNL d   1      23.903 -15.784  -1.645  0.00  0.00     0.049 C 
BRANCH  25  29
ATOM     29  N   UNL d   1      20.109 -18.901  -0.768  0.00  0.00    -0.116 N 
ATOM     30  O   UNL d   1      19.741 -20.076  -0.687  0.00  0.00    -0.532 OA
ATOM     31  O   UNL d   1      19.343 -17.928  -0.892  0.00  0.00    -0.532 OA
ENDBRANCH  25  29
ENDBRANCH  20  22
ENDBRANCH   1  17
BRANCH   3  32
ATOM     32  O   UNL d   1      31.734 -18.166  -2.810  0.00  0.00    -0.344 OA
ATOM     33  H   UNL d   1      32.412 -17.824  -2.204  0.00  0.00     0.219 HD
ENDBRANCH   3  32
TORSDOF 4
ENDMDL
