MODEL 1
REMARK VINA RESULT:    -9.114      0.000      0.000
REMARK INTER + INTRA:         -11.915
REMARK INTER:                 -10.605
REMARK INTRA:                  -1.310
REMARK CONF_INDEPENDENT:        1.492
REMARK UNBOUND:                -1.310
REMARK  5 active torsions:
REMARK  status: ('A' for Active; 'I' for Inactive)
REMARK       I    between atoms: C_2  and  N_4 
REMARK    1  A    between atoms: C_6  and  C_7 
REMARK    2  A    between atoms: C_9  and  C_10 
REMARK    3  A    between atoms: C_13  and  C_14 
REMARK    4  A    between atoms: C_14  and  C_15 
REMARK    5  A    between atoms: C_23  and  C_24 
ROOT
ATOM      1  C   UNL d   1      27.993 -16.609  -1.132  0.00  0.00     0.107 A 
ATOM      2  C   UNL d   1      26.715 -16.867  -1.587  0.00  0.00     0.069 A 
ATOM      3  C   UNL d   1      25.941 -17.202  -0.449  0.00  0.00     0.089 A 
ATOM      4  N   UNL d   1      26.693 -17.169   0.659  0.00  0.00    -0.174 NA
ATOM      5  N   UNL d   1      27.921 -16.823   0.218  0.00  0.00    -0.273 N 
ATOM      6  H   UNL d   1      28.645 -16.697   0.916  0.00  0.00     0.189 HD
ENDROOT
BRANCH   1   7
ATOM      7  C   UNL d   1      29.103 -16.103  -1.869  0.00  0.00     0.215 A 
ATOM      8  N   UNL d   1      30.313 -16.052  -1.430  0.00  0.00    -0.139 NA
ATOM      9  N   UNL d   1      31.013 -15.406  -2.413  0.00  0.00    -0.201 N 
ATOM     10  C   UNL d   1      32.385 -15.331  -2.343  0.00  0.00     0.238 C 
ATOM     11  C   UNL d   1      30.139 -15.092  -3.533  0.00  0.00     0.292 A 
ATOM     12  C   UNL d   1      33.030 -14.105  -2.934  0.00  0.00     0.119 C 
ATOM     13  O   UNL d   1      33.078 -16.166  -1.751  0.00  0.00    -0.272 OA
ATOM     14  O   UNL d   1      28.850 -15.587  -3.106  0.00  0.00    -0.299 OA
BRANCH  11  15
ATOM     15  C   UNL d   1      30.532 -15.799  -4.819  0.00  0.00    -0.006 A 
ATOM     16  C   UNL d   1      30.830 -15.086  -5.993  0.00  0.00     0.012 A 
ATOM     17  C   UNL d   1      31.066 -15.763  -7.196  0.00  0.00     0.002 A 
ATOM     18  C   UNL d   1      31.077 -17.158  -7.226  0.00  0.00     0.019 A 
ATOM     19  C   UNL d   1      30.830 -17.872  -6.059  0.00  0.00     0.011 A 
ATOM     20 BR   UNL d   1      30.783 -19.761  -6.093  0.00  0.00    -0.051 Br
ATOM     21  C   UNL d   1      30.566 -17.204  -4.865  0.00  0.00     0.030 A 
ENDBRANCH  11  15
ENDBRANCH   1   7
BRANCH   3  22
ATOM     22  C   UNL d   1      24.540 -17.592  -0.450  0.00  0.00    -0.006 A 
ATOM     23  C   UNL d   1      23.493 -16.665  -0.537  0.00  0.00     0.014 A 
ATOM     24  C   UNL d   1      22.155 -17.094  -0.523  0.00  0.00     0.008 A 
ATOM     25  C   UNL d   1      21.852 -18.461  -0.534  0.00  0.00    -0.058 A 
ATOM     26  C   UNL d   1      22.922 -19.367  -0.518  0.00  0.00     0.008 A 
ATOM     27  C   UNL d   1      24.240 -18.949  -0.416  0.00  0.00     0.014 A 
BRANCH  25  28
ATOM     28  C   UNL d   1      20.407 -18.919  -0.599  0.00  0.00     0.042 C 
BRANCH  28  29
ATOM     29  C   UNL d   1      20.052 -20.061   0.377  0.00  0.00    -0.019 C 
ATOM     30  C   UNL d   1      20.247 -19.641   1.843  0.00  0.00     0.010 C 
ATOM     31  C   UNL d   1      18.606 -20.518   0.202  0.00  0.00     0.010 C 
ENDBRANCH  28  29
ENDBRANCH  25  28
ENDBRANCH   3  22
TORSDOF 5
ENDMDL
MODEL 2
REMARK VINA RESULT:    -9.028      2.629      3.408
REMARK INTER + INTRA:         -11.472
REMARK INTER:                 -10.519
REMARK INTRA:                  -0.953
REMARK CONF_INDEPENDENT:        1.492
REMARK UNBOUND:                -0.953
REMARK  5 active torsions:
REMARK  status: ('A' for Active; 'I' for Inactive)
REMARK       I    between atoms: C_2  and  N_4 
REMARK    1  A    between atoms: C_6  and  C_7 
REMARK    2  A    between atoms: C_9  and  C_10 
REMARK    3  A    between atoms: C_13  and  C_14 
REMARK    4  A    between atoms: C_14  and  C_15 
REMARK    5  A    between atoms: C_23  and  C_24 
ROOT
ATOM      1  C   UNL d   1      26.954 -15.108  -3.365  0.00  0.00     0.107 A 
ATOM      2  C   UNL d   1      25.707 -15.659  -3.150  0.00  0.00     0.069 A 
ATOM      3  C   UNL d   1      25.677 -16.069  -1.794  0.00  0.00     0.089 A 
ATOM      4  N   UNL d   1      26.844 -15.803  -1.194  0.00  0.00    -0.174 NA
ATOM      5  N   UNL d   1      27.595 -15.239  -2.163  0.00  0.00    -0.273 N 
ATOM      6  H   UNL d   1      28.520 -14.916  -1.902  0.00  0.00     0.189 HD
ENDROOT
BRANCH   1   7
ATOM      7  C   UNL d   1      27.428 -14.432  -4.527  0.00  0.00     0.215 A 
ATOM      8  N   UNL d   1      27.495 -13.152  -4.656  0.00  0.00    -0.139 NA
ATOM      9  N   UNL d   1      27.899 -12.954  -5.949  0.00  0.00    -0.201 N 
ATOM     10  C   UNL d   1      28.238 -11.690  -6.376  0.00  0.00     0.238 C 
ATOM     11  C   UNL d   1      28.122 -14.230  -6.612  0.00  0.00     0.292 A 
ATOM     12  C   UNL d   1      27.968 -11.365  -7.821  0.00  0.00     0.119 C 
ATOM     13  O   UNL d   1      28.660 -10.811  -5.616  0.00  0.00    -0.272 OA
ATOM     14  O   UNL d   1      27.783 -15.202  -5.597  0.00  0.00    -0.299 OA
BRANCH  11  15
ATOM     15  C   UNL d   1      29.566 -14.445  -7.031  0.00  0.00    -0.006 A 
ATOM     16  C   UNL d   1      30.324 -13.420  -7.625  0.00  0.00     0.012 A 
ATOM     17  C   UNL d   1      31.609 -13.680  -8.117  0.00  0.00     0.002 A 
ATOM     18  C   UNL d   1      32.180 -14.943  -7.958  0.00  0.00     0.019 A 
ATOM     19  C   UNL d   1      31.456 -15.950  -7.329  0.00  0.00     0.011 A 
ATOM     20 BR   UNL d   1      32.189 -17.683  -7.159  0.00  0.00    -0.051 Br
ATOM     21  C   UNL d   1      30.165 -15.706  -6.864  0.00  0.00     0.030 A 
ENDBRANCH  11  15
ENDBRANCH   1   7
BRANCH   3  22
ATOM     22  C   UNL d   1      24.573 -16.743  -1.127  0.00  0.00    -0.006 A 
ATOM     23  C   UNL d   1      23.256 -16.267  -1.168  0.00  0.00     0.014 A 
ATOM     24  C   UNL d   1      22.228 -16.951  -0.498  0.00  0.00     0.008 A 
ATOM     25  C   UNL d   1      22.486 -18.176   0.128  0.00  0.00    -0.058 A 
ATOM     26  C   UNL d   1      23.801 -18.664   0.091  0.00  0.00     0.008 A 
ATOM     27  C   UNL d   1      24.840 -17.938  -0.469  0.00  0.00     0.014 A 
BRANCH  25  28
ATOM     28  C   UNL d   1      21.356 -18.950   0.782  0.00  0.00     0.042 C 
BRANCH  28  29
ATOM     29  C   UNL d   1      20.512 -19.798  -0.194  0.00  0.00    -0.019 C 
ATOM     30  C   UNL d   1      19.802 -20.958   0.523  0.00  0.00     0.010 C 
ATOM     31  C   UNL d   1      19.451 -18.954  -0.895  0.00  0.00     0.010 C 
ENDBRANCH  28  29
ENDBRANCH  25  28
ENDBRANCH   3  22
TORSDOF 5
ENDMDL
MODEL 3
REMARK VINA RESULT:    -8.680      4.455      5.889
REMARK INTER + INTRA:         -11.473
REMARK INTER:                 -10.171
REMARK INTRA:                  -1.302
REMARK CONF_INDEPENDENT:        1.492
REMARK UNBOUND:                -1.302
REMARK  5 active torsions:
REMARK  status: ('A' for Active; 'I' for Inactive)
REMARK       I    between atoms: C_2  and  N_4 
REMARK    1  A    between atoms: C_6  and  C_7 
REMARK    2  A    between atoms: C_9  and  C_10 
REMARK    3  A    between atoms: C_13  and  C_14 
REMARK    4  A    between atoms: C_14  and  C_15 
REMARK    5  A    between atoms: C_23  and  C_24 
ROOT
ATOM      1  C   UNL d   1      27.664 -16.029   0.031  0.00  0.00     0.107 A 
ATOM      2  C   UNL d   1      26.297 -15.976  -0.152  0.00  0.00     0.069 A 
ATOM      3  C   UNL d   1      25.836 -17.316  -0.142  0.00  0.00     0.089 A 
ATOM      4  N   UNL d   1      26.859 -18.164   0.024  0.00  0.00    -0.174 NA
ATOM      5  N   UNL d   1      27.943 -17.366   0.112  0.00  0.00    -0.273 N 
ATOM      6  H   UNL d   1      28.835 -17.815   0.287  0.00  0.00     0.189 HD
ENDROOT
BRANCH   1   7
ATOM      7  C   UNL d   1      28.567 -14.944   0.227  0.00  0.00     0.215 A 
ATOM      8  N   UNL d   1      28.467 -13.793  -0.343  0.00  0.00    -0.139 NA
ATOM      9  N   UNL d   1      29.589 -13.113   0.047  0.00  0.00    -0.201 N 
ATOM     10  C   UNL d   1      29.719 -11.775  -0.249  0.00  0.00     0.238 C 
ATOM     11  C   UNL d   1      30.385 -13.927   0.953  0.00  0.00     0.292 A 
ATOM     12  C   UNL d   1      31.115 -11.262  -0.482  0.00  0.00     0.119 C 
ATOM     13  O   UNL d   1      28.751 -11.023  -0.413  0.00  0.00    -0.272 OA
ATOM     14  O   UNL d   1      29.643 -15.164   1.037  0.00  0.00    -0.299 OA
BRANCH  11  15
ATOM     15  C   UNL d   1      30.505 -13.334   2.347  0.00  0.00    -0.006 A 
ATOM     16  C   UNL d   1      31.435 -12.321   2.640  0.00  0.00     0.012 A 
ATOM     17  C   UNL d   1      31.613 -11.880   3.958  0.00  0.00     0.002 A 
ATOM     18  C   UNL d   1      30.819 -12.394   4.984  0.00  0.00     0.019 A 
ATOM     19  C   UNL d   1      29.865 -13.363   4.694  0.00  0.00     0.011 A 
ATOM     20 BR   UNL d   1      28.822 -14.113   6.080  0.00  0.00    -0.051 Br
ATOM     21  C   UNL d   1      29.702 -13.826   3.390  0.00  0.00     0.030 A 
ENDBRANCH  11  15
ENDBRANCH   1   7
BRANCH   3  22
ATOM     22  C   UNL d   1      24.463 -17.751  -0.342  0.00  0.00    -0.006 A 
ATOM     23  C   UNL d   1      24.080 -19.098  -0.309  0.00  0.00     0.014 A 
ATOM     24  C   UNL d   1      22.740 -19.466  -0.520  0.00  0.00     0.008 A 
ATOM     25  C   UNL d   1      21.752 -18.485  -0.656  0.00  0.00    -0.058 A 
ATOM     26  C   UNL d   1      22.154 -17.142  -0.614  0.00  0.00     0.008 A 
ATOM     27  C   UNL d   1      23.489 -16.776  -0.521  0.00  0.00     0.014 A 
BRANCH  25  28
ATOM     28  C   UNL d   1      20.296 -18.887  -0.804  0.00  0.00     0.042 C 
BRANCH  28  29
ATOM     29  C   UNL d   1      19.858 -20.053   0.109  0.00  0.00    -0.019 C 
ATOM     30  C   UNL d   1      20.000 -19.698   1.597  0.00  0.00     0.010 C 
ATOM     31  C   UNL d   1      18.407 -20.450  -0.149  0.00  0.00     0.010 C 
ENDBRANCH  28  29
ENDBRANCH  25  28
ENDBRANCH   3  22
TORSDOF 5
ENDMDL
MODEL 4
REMARK VINA RESULT:    -8.648      1.031      1.343
REMARK INTER + INTRA:         -11.430
REMARK INTER:                 -10.140
REMARK INTRA:                  -1.290
REMARK CONF_INDEPENDENT:        1.492
REMARK UNBOUND:                -1.290
REMARK  5 active torsions:
REMARK  status: ('A' for Active; 'I' for Inactive)
REMARK       I    between atoms: C_2  and  N_4 
REMARK    1  A    between atoms: C_6  and  C_7 
REMARK    2  A    between atoms: C_9  and  C_10 
REMARK    3  A    between atoms: C_13  and  C_14 
REMARK    4  A    between atoms: C_14  and  C_15 
REMARK    5  A    between atoms: C_23  and  C_24 
ROOT
ATOM      1  C   UNL d   1      27.997 -16.720  -1.200  0.00  0.00     0.107 A 
ATOM      2  C   UNL d   1      26.708 -16.942  -1.641  0.00  0.00     0.069 A 
ATOM      3  C   UNL d   1      25.937 -17.250  -0.493  0.00  0.00     0.089 A 
ATOM      4  N   UNL d   1      26.701 -17.235   0.606  0.00  0.00    -0.174 NA
ATOM      5  N   UNL d   1      27.934 -16.927   0.151  0.00  0.00    -0.273 N 
ATOM      6  H   UNL d   1      28.669 -16.820   0.841  0.00  0.00     0.189 HD
ENDROOT
BRANCH   1   7
ATOM      7  C   UNL d   1      29.114 -16.249  -1.951  0.00  0.00     0.215 A 
ATOM      8  N   UNL d   1      30.324 -16.202  -1.513  0.00  0.00    -0.139 NA
ATOM      9  N   UNL d   1      31.032 -15.593  -2.514  0.00  0.00    -0.201 N 
ATOM     10  C   UNL d   1      32.406 -15.534  -2.446  0.00  0.00     0.238 C 
ATOM     11  C   UNL d   1      30.163 -15.300  -3.643  0.00  0.00     0.292 A 
ATOM     12  C   UNL d   1      33.067 -14.334  -3.071  0.00  0.00     0.119 C 
ATOM     13  O   UNL d   1      33.088 -16.361  -1.830  0.00  0.00    -0.272 OA
ATOM     14  O   UNL d   1      28.867 -15.765  -3.203  0.00  0.00    -0.299 OA
BRANCH  11  15
ATOM     15  C   UNL d   1      30.547 -16.048  -4.908  0.00  0.00    -0.006 A 
ATOM     16  C   UNL d   1      30.286 -17.421  -5.061  0.00  0.00     0.012 A 
ATOM     17  C   UNL d   1      30.762 -18.114  -6.182  0.00  0.00     0.002 A 
ATOM     18  C   UNL d   1      31.440 -17.433  -7.194  0.00  0.00     0.019 A 
ATOM     19  C   UNL d   1      31.661 -16.066  -7.072  0.00  0.00     0.011 A 
ATOM     20 BR   UNL d   1      32.629 -15.138  -8.403  0.00  0.00    -0.051 Br
ATOM     21  C   UNL d   1      31.216 -15.376  -5.946  0.00  0.00     0.030 A 
ENDBRANCH  11  15
ENDBRANCH   1   7
BRANCH   3  22
ATOM     22  C   UNL d   1      24.525 -17.598  -0.478  0.00  0.00    -0.006 A 
ATOM     23  C   UNL d   1      23.505 -16.642  -0.568  0.00  0.00     0.014 A 
ATOM     24  C   UNL d   1      22.155 -17.032  -0.538  0.00  0.00     0.008 A 
ATOM     25  C   UNL d   1      21.812 -18.388  -0.529  0.00  0.00    -0.058 A 
ATOM     26  C   UNL d   1      22.855 -19.326  -0.511  0.00  0.00     0.008 A 
ATOM     27  C   UNL d   1      24.185 -18.945  -0.425  0.00  0.00     0.014 A 
BRANCH  25  28
ATOM     28  C   UNL d   1      20.353 -18.805  -0.577  0.00  0.00     0.042 C 
BRANCH  28  29
ATOM     29  C   UNL d   1      20.008 -20.031   0.295  0.00  0.00    -0.019 C 
ATOM     30  C   UNL d   1      20.070 -19.702   1.795  0.00  0.00     0.010 C 
ATOM     31  C   UNL d   1      18.612 -20.564  -0.017  0.00  0.00     0.010 C 
ENDBRANCH  28  29
ENDBRANCH  25  28
ENDBRANCH   3  22
TORSDOF 5
ENDMDL
MODEL 5
REMARK VINA RESULT:    -8.609      1.338      1.646
REMARK INTER + INTRA:         -11.325
REMARK INTER:                 -10.100
REMARK INTRA:                  -1.224
REMARK CONF_INDEPENDENT:        1.492
REMARK UNBOUND:                -1.224
REMARK  5 active torsions:
REMARK  status: ('A' for Active; 'I' for Inactive)
REMARK       I    between atoms: C_2  and  N_4 
REMARK    1  A    between atoms: C_6  and  C_7 
REMARK    2  A    between atoms: C_9  and  C_10 
REMARK    3  A    between atoms: C_13  and  C_14 
REMARK    4  A    between atoms: C_14  and  C_15 
REMARK    5  A    between atoms: C_23  and  C_24 
ROOT
ATOM      1  C   UNL d   1      26.684 -17.033  -1.240  0.00  0.00     0.107 A 
ATOM      2  C   UNL d   1      25.343 -17.125  -1.554  0.00  0.00     0.069 A 
ATOM      3  C   UNL d   1      24.760 -17.978  -0.584  0.00  0.00     0.089 A 
ATOM      4  N   UNL d   1      25.685 -18.408   0.283  0.00  0.00    -0.174 NA
ATOM      5  N   UNL d   1      26.831 -17.837  -0.142  0.00  0.00    -0.273 N 
ATOM      6  H   UNL d   1      27.664 -18.002   0.413  0.00  0.00     0.189 HD
ENDROOT
BRANCH   1   7
ATOM      7  C   UNL d   1      27.670 -16.192  -1.833  0.00  0.00     0.215 A 
ATOM      8  N   UNL d   1      28.759 -15.817  -1.255  0.00  0.00    -0.139 NA
ATOM      9  N   UNL d   1      29.340 -14.947  -2.137  0.00  0.00    -0.201 N 
ATOM     10  C   UNL d   1      30.615 -14.484  -1.907  0.00  0.00     0.238 C 
ATOM     11  C   UNL d   1      28.537 -14.841  -3.346  0.00  0.00     0.292 A 
ATOM     12  C   UNL d   1      30.933 -13.095  -2.396  0.00  0.00     0.119 C 
ATOM     13  O   UNL d   1      31.454 -15.114  -1.253  0.00  0.00    -0.272 OA
ATOM     14  O   UNL d   1      27.411 -15.708  -3.082  0.00  0.00    -0.299 OA
BRANCH  11  15
ATOM     15  C   UNL d   1      29.254 -15.338  -4.590  0.00  0.00    -0.006 A 
ATOM     16  C   UNL d   1      29.396 -14.532  -5.733  0.00  0.00     0.012 A 
ATOM     17  C   UNL d   1      29.948 -15.055  -6.909  0.00  0.00     0.002 A 
ATOM     18  C   UNL d   1      30.428 -16.365  -6.936  0.00  0.00     0.019 A 
ATOM     19  C   UNL d   1      30.334 -17.155  -5.796  0.00  0.00     0.011 A 
ATOM     20 BR   UNL d   1      30.925 -18.950  -5.833  0.00  0.00    -0.051 Br
ATOM     21  C   UNL d   1      29.760 -16.650  -4.632  0.00  0.00     0.030 A 
ENDBRANCH  11  15
ENDBRANCH   1   7
BRANCH   3  22
ATOM     22  C   UNL d   1      23.368 -18.398  -0.540  0.00  0.00    -0.006 A 
ATOM     23  C   UNL d   1      22.703 -18.943  -1.646  0.00  0.00     0.014 A 
ATOM     24  C   UNL d   1      21.354 -19.324  -1.553  0.00  0.00     0.008 A 
ATOM     25  C   UNL d   1      20.687 -19.266  -0.324  0.00  0.00    -0.058 A 
ATOM     26  C   UNL d   1      21.400 -18.783   0.784  0.00  0.00     0.008 A 
ATOM     27  C   UNL d   1      22.694 -18.299   0.672  0.00  0.00     0.014 A 
BRANCH  25  28
ATOM     28  C   UNL d   1      19.254 -19.754  -0.212  0.00  0.00     0.042 C 
BRANCH  28  29
ATOM     29  C   UNL d   1      19.046 -20.907   0.794  0.00  0.00    -0.019 C 
ATOM     30  C   UNL d   1      19.142 -20.420   2.249  0.00  0.00     0.010 C 
ATOM     31  C   UNL d   1      17.688 -21.576   0.605  0.00  0.00     0.010 C 
ENDBRANCH  28  29
ENDBRANCH  25  28
ENDBRANCH   3  22
TORSDOF 5
ENDMDL
MODEL 6
REMARK VINA RESULT:    -8.598      4.804      6.441
REMARK INTER + INTRA:         -11.272
REMARK INTER:                 -10.089
REMARK INTRA:                  -1.183
REMARK CONF_INDEPENDENT:        1.492
REMARK UNBOUND:                -1.183
REMARK  5 active torsions:
REMARK  status: ('A' for Active; 'I' for Inactive)
REMARK       I    between atoms: C_2  and  N_4 
REMARK    1  A    between atoms: C_6  and  C_7 
REMARK    2  A    between atoms: C_9  and  C_10 
REMARK    3  A    between atoms: C_13  and  C_14 
REMARK    4  A    between atoms: C_14  and  C_15 
REMARK    5  A    between atoms: C_23  and  C_24 
ROOT
ATOM      1  C   UNL d   1      27.493 -15.789   0.487  0.00  0.00     0.107 A 
ATOM      2  C   UNL d   1      26.137 -15.796   0.230  0.00  0.00     0.069 A 
ATOM      3  C   UNL d   1      25.766 -17.153   0.058  0.00  0.00     0.089 A 
ATOM      4  N   UNL d   1      26.833 -17.952   0.185  0.00  0.00    -0.174 NA
ATOM      5  N   UNL d   1      27.856 -17.107   0.430  0.00  0.00    -0.273 N 
ATOM      6  H   UNL d   1      28.765 -17.519   0.605  0.00  0.00     0.189 HD
ENDROOT
BRANCH   1   7
ATOM      7  C   UNL d   1      28.310 -14.683   0.862  0.00  0.00     0.215 A 
ATOM      8  N   UNL d   1      28.930 -13.915   0.034  0.00  0.00    -0.139 NA
ATOM      9  N   UNL d   1      29.664 -13.072   0.824  0.00  0.00    -0.201 N 
ATOM     10  C   UNL d   1      30.322 -12.001   0.262  0.00  0.00     0.238 C 
ATOM     11  C   UNL d   1      29.417 -13.352   2.230  0.00  0.00     0.292 A 
ATOM     12  C   UNL d   1      31.608 -11.572   0.917  0.00  0.00     0.119 C 
ATOM     13  O   UNL d   1      29.951 -11.455  -0.783  0.00  0.00    -0.272 OA
ATOM     14  O   UNL d   1      28.490 -14.461   2.196  0.00  0.00    -0.299 OA
BRANCH  11  15
ATOM     15  C   UNL d   1      28.768 -12.195   2.969  0.00  0.00    -0.006 A 
ATOM     16  C   UNL d   1      29.083 -11.904   4.308  0.00  0.00     0.012 A 
ATOM     17  C   UNL d   1      28.380 -10.913   5.005  0.00  0.00     0.002 A 
ATOM     18  C   UNL d   1      27.405 -10.155   4.355  0.00  0.00     0.019 A 
ATOM     19  C   UNL d   1      27.119 -10.405   3.017  0.00  0.00     0.011 A 
ATOM     20 BR   UNL d   1      25.760  -9.430   2.138  0.00  0.00    -0.051 Br
ATOM     21  C   UNL d   1      27.795 -11.409   2.327  0.00  0.00     0.030 A 
ENDBRANCH  11  15
ENDBRANCH   1   7
BRANCH   3  22
ATOM     22  C   UNL d   1      24.437 -17.642  -0.274  0.00  0.00    -0.006 A 
ATOM     23  C   UNL d   1      24.095 -19.000  -0.231  0.00  0.00     0.014 A 
ATOM     24  C   UNL d   1      22.798 -19.422  -0.572  0.00  0.00     0.008 A 
ATOM     25  C   UNL d   1      21.801 -18.481  -0.852  0.00  0.00    -0.058 A 
ATOM     26  C   UNL d   1      22.155 -17.124  -0.818  0.00  0.00     0.008 A 
ATOM     27  C   UNL d   1      23.459 -16.708  -0.595  0.00  0.00     0.014 A 
BRANCH  25  28
ATOM     28  C   UNL d   1      20.383 -18.938  -1.141  0.00  0.00     0.042 C 
BRANCH  28  29
ATOM     29  C   UNL d   1      19.539 -19.242   0.115  0.00  0.00    -0.019 C 
ATOM     30  C   UNL d   1      18.613 -20.450  -0.096  0.00  0.00     0.010 C 
ATOM     31  C   UNL d   1      20.423 -19.527   1.327  0.00  0.00     0.010 C 
ENDBRANCH  28  29
ENDBRANCH  25  28
ENDBRANCH   3  22
TORSDOF 5
ENDMDL
MODEL 7
REMARK VINA RESULT:    -8.270      2.278      2.760
REMARK INTER + INTRA:         -11.029
REMARK INTER:                  -9.761
REMARK INTRA:                  -1.268
REMARK CONF_INDEPENDENT:        1.492
REMARK UNBOUND:                -1.268
REMARK  5 active torsions:
REMARK  status: ('A' for Active; 'I' for Inactive)
REMARK       I    between atoms: C_2  and  N_4 
REMARK    1  A    between atoms: C_6  and  C_7 
REMARK    2  A    between atoms: C_9  and  C_10 
REMARK    3  A    between atoms: C_13  and  C_14 
REMARK    4  A    between atoms: C_14  and  C_15 
REMARK    5  A    between atoms: C_23  and  C_24 
ROOT
ATOM      1  C   UNL d   1      26.695 -14.968  -3.568  0.00  0.00     0.107 A 
ATOM      2  C   UNL d   1      26.265 -16.017  -2.781  0.00  0.00     0.069 A 
ATOM      3  C   UNL d   1      24.891 -15.787  -2.520  0.00  0.00     0.089 A 
ATOM      4  N   UNL d   1      24.485 -14.650  -3.098  0.00  0.00    -0.174 NA
ATOM      5  N   UNL d   1      25.590 -14.174  -3.709  0.00  0.00    -0.273 N 
ATOM      6  H   UNL d   1      25.488 -13.324  -4.254  0.00  0.00     0.189 HD
ENDROOT
BRANCH   1   7
ATOM      7  C   UNL d   1      27.961 -14.808  -4.205  0.00  0.00     0.215 A 
ATOM      8  N   UNL d   1      28.983 -14.235  -3.672  0.00  0.00    -0.139 NA
ATOM      9  N   UNL d   1      29.926 -14.213  -4.664  0.00  0.00    -0.201 N 
ATOM     10  C   UNL d   1      31.214 -13.817  -4.380  0.00  0.00     0.238 C 
ATOM     11  C   UNL d   1      29.417 -14.865  -5.861  0.00  0.00     0.292 A 
ATOM     12  C   UNL d   1      31.972 -13.126  -5.483  0.00  0.00     0.119 C 
ATOM     13  O   UNL d   1      31.721 -13.925  -3.258  0.00  0.00    -0.272 OA
ATOM     14  O   UNL d   1      28.073 -15.248  -5.492  0.00  0.00    -0.299 OA
BRANCH  11  15
ATOM     15  C   UNL d   1      30.194 -16.114  -6.242  0.00  0.00    -0.006 A 
ATOM     16  C   UNL d   1      30.022 -17.328  -5.554  0.00  0.00     0.012 A 
ATOM     17  C   UNL d   1      30.839 -18.429  -5.841  0.00  0.00     0.002 A 
ATOM     18  C   UNL d   1      31.786 -18.354  -6.863  0.00  0.00     0.019 A 
ATOM     19  C   UNL d   1      31.930 -17.171  -7.580  0.00  0.00     0.011 A 
ATOM     20 BR   UNL d   1      33.248 -17.031  -8.927  0.00  0.00    -0.051 Br
ATOM     21  C   UNL d   1      31.141 -16.063  -7.280  0.00  0.00     0.030 A 
ENDBRANCH  11  15
ENDBRANCH   1   7
BRANCH   3  22
ATOM     22  C   UNL d   1      24.027 -16.614  -1.692  0.00  0.00    -0.006 A 
ATOM     23  C   UNL d   1      24.264 -17.977  -1.470  0.00  0.00     0.014 A 
ATOM     24  C   UNL d   1      23.392 -18.734  -0.670  0.00  0.00     0.008 A 
ATOM     25  C   UNL d   1      22.334 -18.113   0.004  0.00  0.00    -0.058 A 
ATOM     26  C   UNL d   1      22.163 -16.733  -0.181  0.00  0.00     0.008 A 
ATOM     27  C   UNL d   1      22.951 -16.004  -1.058  0.00  0.00     0.014 A 
BRANCH  25  28
ATOM     28  C   UNL d   1      21.443 -18.920   0.929  0.00  0.00     0.042 C 
BRANCH  28  29
ATOM     29  C   UNL d   1      20.481 -19.889   0.207  0.00  0.00    -0.019 C 
ATOM     30  C   UNL d   1      19.484 -20.537   1.181  0.00  0.00     0.010 C 
ATOM     31  C   UNL d   1      19.685 -19.177  -0.883  0.00  0.00     0.010 C 
ENDBRANCH  28  29
ENDBRANCH  25  28
ENDBRANCH   3  22
TORSDOF 5
ENDMDL
MODEL 8
REMARK VINA RESULT:    -8.259      6.990      9.172
REMARK INTER + INTRA:         -10.881
REMARK INTER:                  -9.750
REMARK INTRA:                  -1.131
REMARK CONF_INDEPENDENT:        1.492
REMARK UNBOUND:                -1.131
REMARK  5 active torsions:
REMARK  status: ('A' for Active; 'I' for Inactive)
REMARK       I    between atoms: C_2  and  N_4 
REMARK    1  A    between atoms: C_6  and  C_7 
REMARK    2  A    between atoms: C_9  and  C_10 
REMARK    3  A    between atoms: C_13  and  C_14 
REMARK    4  A    between atoms: C_14  and  C_15 
REMARK    5  A    between atoms: C_23  and  C_24 
ROOT
ATOM      1  C   UNL d   1      27.494 -12.989   2.021  0.00  0.00     0.107 A 
ATOM      2  C   UNL d   1      27.908 -13.433   3.261  0.00  0.00     0.069 A 
ATOM      3  C   UNL d   1      27.903 -12.303   4.116  0.00  0.00     0.089 A 
ATOM      4  N   UNL d   1      27.521 -11.208   3.448  0.00  0.00    -0.174 NA
ATOM      5  N   UNL d   1      27.294 -11.646   2.192  0.00  0.00    -0.273 N 
ATOM      6  H   UNL d   1      26.946 -10.970   1.521  0.00  0.00     0.189 HD
ENDROOT
BRANCH   1   7
ATOM      7  C   UNL d   1      27.207 -13.765   0.861  0.00  0.00     0.215 A 
ATOM      8  N   UNL d   1      28.075 -14.105  -0.029  0.00  0.00    -0.139 NA
ATOM      9  N   UNL d   1      27.348 -14.739  -0.999  0.00  0.00    -0.201 N 
ATOM     10  C   UNL d   1      27.994 -15.386  -2.029  0.00  0.00     0.238 C 
ATOM     11  C   UNL d   1      25.945 -14.806  -0.620  0.00  0.00     0.292 A 
ATOM     12  C   UNL d   1      27.290 -15.417  -3.360  0.00  0.00     0.119 C 
ATOM     13  O   UNL d   1      29.136 -15.848  -1.925  0.00  0.00    -0.272 OA
ATOM     14  O   UNL d   1      25.907 -14.125   0.655  0.00  0.00    -0.299 OA
BRANCH  11  15
ATOM     15  C   UNL d   1      25.441 -16.226  -0.429  0.00  0.00    -0.006 A 
ATOM     16  C   UNL d   1      26.311 -17.281  -0.100  0.00  0.00     0.012 A 
ATOM     17  C   UNL d   1      25.843 -18.600  -0.054  0.00  0.00     0.002 A 
ATOM     18  C   UNL d   1      24.491 -18.874  -0.265  0.00  0.00     0.019 A 
ATOM     19  C   UNL d   1      23.615 -17.831  -0.545  0.00  0.00     0.011 A 
ATOM     20 BR   UNL d   1      21.793 -18.189  -0.892  0.00  0.00    -0.051 Br
ATOM     21  C   UNL d   1      24.079 -16.520  -0.621  0.00  0.00     0.030 A 
ENDBRANCH  11  15
ENDBRANCH   1   7
BRANCH   3  22
ATOM     22  C   UNL d   1      28.310 -12.285   5.513  0.00  0.00    -0.006 A 
ATOM     23  C   UNL d   1      28.457 -11.100   6.246  0.00  0.00     0.014 A 
ATOM     24  C   UNL d   1      28.862 -11.136   7.590  0.00  0.00     0.008 A 
ATOM     25  C   UNL d   1      29.018 -12.362   8.248  0.00  0.00    -0.058 A 
ATOM     26  C   UNL d   1      28.795 -13.533   7.508  0.00  0.00     0.008 A 
ATOM     27  C   UNL d   1      28.506 -13.503   6.152  0.00  0.00     0.014 A 
BRANCH  25  28
ATOM     28  C   UNL d   1      29.379 -12.395   9.721  0.00  0.00     0.042 C 
BRANCH  28  29
ATOM     29  C   UNL d   1      28.252 -12.906  10.645  0.00  0.00    -0.019 C 
ATOM     30  C   UNL d   1      28.069 -14.429  10.535  0.00  0.00     0.010 C 
ATOM     31  C   UNL d   1      28.530 -12.566  12.107  0.00  0.00     0.010 C 
ENDBRANCH  28  29
ENDBRANCH  25  28
ENDBRANCH   3  22
TORSDOF 5
ENDMDL
MODEL 9
REMARK VINA RESULT:    -8.124      2.920      3.557
REMARK INTER + INTRA:         -10.901
REMARK INTER:                  -9.616
REMARK INTRA:                  -1.285
REMARK CONF_INDEPENDENT:        1.492
REMARK UNBOUND:                -1.285
REMARK  5 active torsions:
REMARK  status: ('A' for Active; 'I' for Inactive)
REMARK       I    between atoms: C_2  and  N_4 
REMARK    1  A    between atoms: C_6  and  C_7 
REMARK    2  A    between atoms: C_9  and  C_10 
REMARK    3  A    between atoms: C_13  and  C_14 
REMARK    4  A    between atoms: C_14  and  C_15 
REMARK    5  A    between atoms: C_23  and  C_24 
ROOT
ATOM      1  C   UNL d   1      27.691 -16.488  -0.463  0.00  0.00     0.107 A 
ATOM      2  C   UNL d   1      26.725 -17.465  -0.593  0.00  0.00     0.069 A 
ATOM      3  C   UNL d   1      25.474 -16.799  -0.581  0.00  0.00     0.089 A 
ATOM      4  N   UNL d   1      25.645 -15.479  -0.437  0.00  0.00    -0.174 NA
ATOM      5  N   UNL d   1      26.983 -15.323  -0.356  0.00  0.00    -0.273 N 
ATOM      6  H   UNL d   1      27.334 -14.374  -0.286  0.00  0.00     0.189 HD
ENDROOT
BRANCH   1   7
ATOM      7  C   UNL d   1      29.106 -16.634  -0.554  0.00  0.00     0.215 A 
ATOM      8  N   UNL d   1      29.954 -16.069   0.235  0.00  0.00    -0.139 NA
ATOM      9  N   UNL d   1      31.179 -16.396  -0.280  0.00  0.00    -0.201 N 
ATOM     10  C   UNL d   1      32.324 -16.093   0.422  0.00  0.00     0.238 C 
ATOM     11  C   UNL d   1      31.027 -17.256  -1.444  0.00  0.00     0.292 A 
ATOM     12  C   UNL d   1      33.556 -15.782  -0.385  0.00  0.00     0.119 C 
ATOM     13  O   UNL d   1      32.350 -15.984   1.654  0.00  0.00    -0.272 OA
ATOM     14  O   UNL d   1      29.593 -17.382  -1.586  0.00  0.00    -0.299 OA
BRANCH  11  15
ATOM     15  C   UNL d   1      31.621 -18.640  -1.252  0.00  0.00    -0.006 A 
ATOM     16  C   UNL d   1      32.854 -19.001  -1.825  0.00  0.00     0.012 A 
ATOM     17  C   UNL d   1      33.319 -20.319  -1.738  0.00  0.00     0.002 A 
ATOM     18  C   UNL d   1      32.597 -21.274  -1.021  0.00  0.00     0.019 A 
ATOM     19  C   UNL d   1      31.400 -20.914  -0.411  0.00  0.00     0.011 A 
ATOM     20 BR   UNL d   1      30.379 -22.207   0.514  0.00  0.00    -0.051 Br
ATOM     21  C   UNL d   1      30.917 -19.611  -0.518  0.00  0.00     0.030 A 
ENDBRANCH  11  15
ENDBRANCH   1   7
BRANCH   3  22
ATOM     22  C   UNL d   1      24.166 -17.432  -0.651  0.00  0.00    -0.006 A 
ATOM     23  C   UNL d   1      23.968 -18.798  -0.407  0.00  0.00     0.014 A 
ATOM     24  C   UNL d   1      22.685 -19.362  -0.498  0.00  0.00     0.008 A 
ATOM     25  C   UNL d   1      21.570 -18.546  -0.725  0.00  0.00    -0.058 A 
ATOM     26  C   UNL d   1      21.790 -17.171  -0.894  0.00  0.00     0.008 A 
ATOM     27  C   UNL d   1      23.065 -16.627  -0.919  0.00  0.00     0.014 A 
BRANCH  25  28
ATOM     28  C   UNL d   1      20.177 -19.149  -0.743  0.00  0.00     0.042 C 
BRANCH  28  29
ATOM     29  C   UNL d   1      19.923 -20.206   0.354  0.00  0.00    -0.019 C 
ATOM     30  C   UNL d   1      20.149 -19.634   1.762  0.00  0.00     0.010 C 
ATOM     31  C   UNL d   1      18.500 -20.752   0.285  0.00  0.00     0.010 C 
ENDBRANCH  28  29
ENDBRANCH  25  28
ENDBRANCH   3  22
TORSDOF 5
ENDMDL
