MODEL 1
REMARK VINA RESULT:    -8.659      0.000      0.000
REMARK INTER + INTRA:         -14.057
REMARK INTER:                 -11.642
REMARK INTRA:                  -2.415
REMARK CONF_INDEPENDENT:        2.983
REMARK UNBOUND:                -2.415
REMARK  10 active torsions:
REMARK  status: ('A' for Active; 'I' for Inactive)
REMARK    1  A    between atoms: C_2  and  O_3 
REMARK    2  A    between atoms: O_3  and  C_4 
REMARK    3  A    between atoms: C_4  and  C_6 
REMARK    4  A    between atoms: C_9  and  N_10 
REMARK    5  A    between atoms: N_13  and  C_14 
REMARK    6  A    between atoms: C_18  and  N_19 
REMARK    7  A    between atoms: N_19  and  C_20 
REMARK    8  A    between atoms: C_20  and  N_22 
REMARK       I    between atoms: N_22  and  C_23 
REMARK    9  A    between atoms: C_23  and  C_25 
REMARK   10  A    between atoms: C_30  and  O_31 
ROOT
ATOM      1  C   UNL d   1      23.220 -18.061  -0.750  0.00  0.00     0.041 A 
ATOM      2  C   UNL d   1      23.918 -18.484   0.358  0.00  0.00     0.020 A 
ATOM      3  C   UNL d   1      25.281 -18.107   0.513  0.00  0.00     0.033 A 
ATOM      4  C   UNL d   1      26.012 -17.310  -0.434  0.00  0.00     0.057 A 
ATOM      5  C   UNL d   1      25.257 -16.845  -1.556  0.00  0.00     0.062 A 
ATOM      6  C   UNL d   1      23.930 -17.301  -1.653  0.00  0.00     0.049 A 
ENDROOT
BRANCH   5   7
ATOM      7  N   UNL d   1      25.714 -15.889  -2.562  0.00  0.00    -0.331 N 
ATOM      8  H   UNL d   1      25.765 -16.283  -3.476  0.00  0.00     0.168 HD
BRANCH   7   9
ATOM      9  C   UNL d   1      26.119 -14.518  -2.382  0.00  0.00     0.179 C 
ATOM     10  S   UNL d   1      26.274 -13.671  -0.930  0.00  0.00    -0.040 SA
BRANCH   9  11
ATOM     11  N   UNL d   1      26.326 -13.806  -3.587  0.00  0.00    -0.299 N 
ATOM     12  C   UNL d   1      26.989 -14.374  -4.701  0.00  0.00     0.260 C 
ATOM     13  O   UNL d   1      27.090 -15.575  -4.946  0.00  0.00    -0.267 OA
ATOM     14  H   UNL d   1      26.105 -12.826  -3.641  0.00  0.00     0.171 HD
BRANCH  12  15
ATOM     15  C   UNL d   1      27.642 -13.560  -5.737  0.00  0.00     0.065 A 
ATOM     16  C   UNL d   1      27.033 -12.283  -5.868  0.00  0.00     0.020 A 
ATOM     17  C   UNL d   1      27.261 -11.476  -6.975  0.00  0.00     0.001 A 
ATOM     18  C   UNL d   1      28.169 -11.896  -7.932  0.00  0.00     0.003 A 
ATOM     19  C   UNL d   1      28.766 -13.157  -7.824  0.00  0.00     0.038 A 
ATOM     20  C   UNL d   1      28.484 -14.029  -6.756  0.00  0.00     0.084 A 
BRANCH  20  21
ATOM     21  O   UNL d   1      29.055 -15.263  -6.955  0.00  0.00    -0.355 OA
ATOM     22  C   UNL d   1      30.135 -15.638  -6.135  0.00  0.00     0.210 C 
ENDBRANCH  20  21
ENDBRANCH  12  15
ENDBRANCH   9  11
ENDBRANCH   7   9
ENDBRANCH   5   7
BRANCH   4  23
ATOM     23  N   UNL d   1      27.363 -17.079  -0.168  0.00  0.00    -0.376 N 
ATOM     24  C   UNL d   1      27.896 -16.346   0.979  0.00  0.00     0.150 C 
ATOM     25  C   UNL d   1      28.524 -15.005   0.517  0.00  0.00     0.254 C 
ATOM     26  N   UNL d   1      29.536 -15.173  -0.636  0.00  0.00    -0.068 N 
ATOM     27  C   UNL d   1      28.995 -16.127  -1.745  0.00  0.00     0.254 C 
ATOM     28  H   UNL d   1      30.380 -15.606  -0.233  0.00  0.00     0.280 HD
ATOM     29  C   UNL d   1      28.410 -17.435  -1.150  0.00  0.00     0.150 C 
BRANCH  26  30
ATOM     30  C   UNL d   1      29.945 -13.808  -1.188  0.00  0.00     0.230 C 
ATOM     31  C   UNL d   1      29.306 -13.524  -2.535  0.00  0.00     0.034 C 
ENDBRANCH  26  30
ENDBRANCH   4  23
BRANCH   1  32
ATOM     32  C   UNL d   1      21.730 -18.120  -0.929  0.00  0.00     0.293 C 
ATOM     33  O   UNL d   1      21.051 -17.090  -0.898  0.00  0.00    -0.259 OA
BRANCH  32  34
ATOM     34  O   UNL d   1      21.250 -19.368  -1.209  0.00  0.00    -0.318 OA
BRANCH  34  35
ATOM     35  C   UNL d   1      19.862 -19.596  -0.860  0.00  0.00     0.174 C 
ATOM     36  C   UNL d   1      19.711 -20.067   0.585  0.00  0.00     0.034 C 
ENDBRANCH  34  35
ENDBRANCH  32  34
ENDBRANCH   1  32
TORSDOF 10
ENDMDL
MODEL 2
REMARK VINA RESULT:    -8.479      0.895      1.737
REMARK INTER + INTRA:         -14.459
REMARK INTER:                 -11.462
REMARK INTRA:                  -2.997
REMARK CONF_INDEPENDENT:        2.983
REMARK UNBOUND:                -2.997
REMARK  10 active torsions:
REMARK  status: ('A' for Active; 'I' for Inactive)
REMARK    1  A    between atoms: C_2  and  O_3 
REMARK    2  A    between atoms: O_3  and  C_4 
REMARK    3  A    between atoms: C_4  and  C_6 
REMARK    4  A    between atoms: C_9  and  N_10 
REMARK    5  A    between atoms: N_13  and  C_14 
REMARK    6  A    between atoms: C_18  and  N_19 
REMARK    7  A    between atoms: N_19  and  C_20 
REMARK    8  A    between atoms: C_20  and  N_22 
REMARK       I    between atoms: N_22  and  C_23 
REMARK    9  A    between atoms: C_23  and  C_25 
REMARK   10  A    between atoms: C_30  and  O_31 
ROOT
ATOM      1  C   UNL d   1      23.209 -18.055  -0.719  0.00  0.00     0.041 A 
ATOM      2  C   UNL d   1      23.902 -18.447   0.402  0.00  0.00     0.020 A 
ATOM      3  C   UNL d   1      25.266 -18.070   0.549  0.00  0.00     0.033 A 
ATOM      4  C   UNL d   1      26.003 -17.306  -0.421  0.00  0.00     0.057 A 
ATOM      5  C   UNL d   1      25.253 -16.872  -1.557  0.00  0.00     0.062 A 
ATOM      6  C   UNL d   1      23.924 -17.325  -1.644  0.00  0.00     0.049 A 
ENDROOT
BRANCH   5   7
ATOM      7  N   UNL d   1      25.715 -15.950  -2.592  0.00  0.00    -0.331 N 
ATOM      8  H   UNL d   1      25.813 -16.384  -3.483  0.00  0.00     0.168 HD
BRANCH   7   9
ATOM      9  C   UNL d   1      26.071 -14.559  -2.463  0.00  0.00     0.179 C 
ATOM     10  S   UNL d   1      26.281 -13.677  -1.039  0.00  0.00    -0.040 SA
BRANCH   9  11
ATOM     11  N   UNL d   1      26.171 -13.865  -3.692  0.00  0.00    -0.299 N 
ATOM     12  C   UNL d   1      26.870 -14.387  -4.805  0.00  0.00     0.260 C 
ATOM     13  O   UNL d   1      27.102 -15.575  -5.020  0.00  0.00    -0.267 OA
ATOM     14  H   UNL d   1      25.839 -12.918  -3.767  0.00  0.00     0.171 HD
BRANCH  12  15
ATOM     15  C   UNL d   1      27.405 -13.535  -5.879  0.00  0.00     0.065 A 
ATOM     16  C   UNL d   1      28.496 -14.151  -6.548  0.00  0.00     0.020 A 
ATOM     17  C   UNL d   1      29.354 -13.426  -7.365  0.00  0.00     0.001 A 
ATOM     18  C   UNL d   1      29.085 -12.088  -7.594  0.00  0.00     0.003 A 
ATOM     19  C   UNL d   1      28.023 -11.464  -6.931  0.00  0.00     0.038 A 
ATOM     20  C   UNL d   1      27.192 -12.158  -6.031  0.00  0.00     0.084 A 
BRANCH  20  21
ATOM     21  O   UNL d   1      26.334 -11.303  -5.383  0.00  0.00    -0.355 OA
ATOM     22  C   UNL d   1      25.649 -10.339  -6.147  0.00  0.00     0.210 C 
ENDBRANCH  20  21
ENDBRANCH  12  15
ENDBRANCH   9  11
ENDBRANCH   7   9
ENDBRANCH   5   7
BRANCH   4  23
ATOM     23  N   UNL d   1      27.354 -17.072  -0.158  0.00  0.00    -0.376 N 
ATOM     24  C   UNL d   1      27.889 -16.327   0.980  0.00  0.00     0.150 C 
ATOM     25  C   UNL d   1      28.516 -14.991   0.502  0.00  0.00     0.254 C 
ATOM     26  N   UNL d   1      29.528 -15.173  -0.650  0.00  0.00    -0.068 N 
ATOM     27  C   UNL d   1      28.985 -16.140  -1.748  0.00  0.00     0.254 C 
ATOM     28  H   UNL d   1      30.371 -15.602  -0.243  0.00  0.00     0.280 HD
ATOM     29  C   UNL d   1      28.400 -17.441  -1.137  0.00  0.00     0.150 C 
BRANCH  26  30
ATOM     30  C   UNL d   1      29.937 -13.815  -1.219  0.00  0.00     0.230 C 
ATOM     31  C   UNL d   1      29.496 -13.645  -2.661  0.00  0.00     0.034 C 
ENDBRANCH  26  30
ENDBRANCH   4  23
BRANCH   1  32
ATOM     32  C   UNL d   1      21.719 -18.112  -0.901  0.00  0.00     0.293 C 
ATOM     33  O   UNL d   1      21.044 -17.080  -0.898  0.00  0.00    -0.259 OA
BRANCH  32  34
ATOM     34  O   UNL d   1      21.235 -19.366  -1.148  0.00  0.00    -0.318 OA
BRANCH  34  35
ATOM     35  C   UNL d   1      19.860 -19.594  -0.750  0.00  0.00     0.174 C 
ATOM     36  C   UNL d   1      19.764 -20.553   0.435  0.00  0.00     0.034 C 
ENDBRANCH  34  35
ENDBRANCH  32  34
ENDBRANCH   1  32
TORSDOF 10
ENDMDL
MODEL 3
REMARK VINA RESULT:    -8.450      1.564      2.826
REMARK INTER + INTRA:         -13.487
REMARK INTER:                 -11.433
REMARK INTRA:                  -2.055
REMARK CONF_INDEPENDENT:        2.983
REMARK UNBOUND:                -2.055
REMARK  10 active torsions:
REMARK  status: ('A' for Active; 'I' for Inactive)
REMARK    1  A    between atoms: C_2  and  O_3 
REMARK    2  A    between atoms: O_3  and  C_4 
REMARK    3  A    between atoms: C_4  and  C_6 
REMARK    4  A    between atoms: C_9  and  N_10 
REMARK    5  A    between atoms: N_13  and  C_14 
REMARK    6  A    between atoms: C_18  and  N_19 
REMARK    7  A    between atoms: N_19  and  C_20 
REMARK    8  A    between atoms: C_20  and  N_22 
REMARK       I    between atoms: N_22  and  C_23 
REMARK    9  A    between atoms: C_23  and  C_25 
REMARK   10  A    between atoms: C_30  and  O_31 
ROOT
ATOM      1  C   UNL d   1      24.288 -17.856  -0.952  0.00  0.00     0.041 A 
ATOM      2  C   UNL d   1      25.037 -17.724   0.194  0.00  0.00     0.020 A 
ATOM      3  C   UNL d   1      26.119 -16.800   0.220  0.00  0.00     0.033 A 
ATOM      4  C   UNL d   1      26.513 -15.985  -0.896  0.00  0.00     0.057 A 
ATOM      5  C   UNL d   1      25.695 -16.106  -2.062  0.00  0.00     0.062 A 
ATOM      6  C   UNL d   1      24.674 -17.073  -2.017  0.00  0.00     0.049 A 
ENDROOT
BRANCH   5   7
ATOM      7  N   UNL d   1      25.777 -15.273  -3.260  0.00  0.00    -0.331 N 
ATOM      8  H   UNL d   1      25.387 -15.712  -4.065  0.00  0.00     0.168 HD
BRANCH   7   9
ATOM      9  C   UNL d   1      26.368 -13.967  -3.409  0.00  0.00     0.179 C 
ATOM     10  S   UNL d   1      25.884 -12.526  -2.674  0.00  0.00    -0.040 SA
BRANCH   9  11
ATOM     11  N   UNL d   1      27.425 -13.907  -4.348  0.00  0.00    -0.299 N 
ATOM     12  C   UNL d   1      27.584 -14.867  -5.375  0.00  0.00     0.260 C 
ATOM     13  O   UNL d   1      26.696 -15.574  -5.846  0.00  0.00    -0.267 OA
ATOM     14  H   UNL d   1      28.165 -13.234  -4.235  0.00  0.00     0.171 HD
BRANCH  12  15
ATOM     15  C   UNL d   1      28.877 -15.125  -6.028  0.00  0.00     0.065 A 
ATOM     16  C   UNL d   1      29.491 -16.308  -5.538  0.00  0.00     0.020 A 
ATOM     17  C   UNL d   1      30.834 -16.580  -5.763  0.00  0.00     0.001 A 
ATOM     18  C   UNL d   1      31.567 -15.714  -6.556  0.00  0.00     0.003 A 
ATOM     19  C   UNL d   1      30.980 -14.537  -7.034  0.00  0.00     0.038 A 
ATOM     20  C   UNL d   1      29.645 -14.197  -6.747  0.00  0.00     0.084 A 
BRANCH  20  21
ATOM     21  O   UNL d   1      29.349 -12.927  -7.180  0.00  0.00    -0.355 OA
ATOM     22  C   UNL d   1      28.760 -12.775  -8.448  0.00  0.00     0.210 C 
ENDBRANCH  20  21
ENDBRANCH  12  15
ENDBRANCH   9  11
ENDBRANCH   7   9
ENDBRANCH   5   7
BRANCH   4  23
ATOM     23  N   UNL d   1      27.637 -15.173  -0.731  0.00  0.00    -0.376 N 
ATOM     24  C   UNL d   1      29.027 -15.590  -0.903  0.00  0.00     0.150 C 
ATOM     25  C   UNL d   1      29.758 -15.606   0.465  0.00  0.00     0.254 C 
ATOM     26  N   UNL d   1      29.599 -14.289   1.254  0.00  0.00    -0.068 N 
ATOM     27  C   UNL d   1      28.124 -13.781   1.239  0.00  0.00     0.254 C 
ATOM     28  H   UNL d   1      30.180 -13.584   0.779  0.00  0.00     0.280 HD
ATOM     29  C   UNL d   1      27.519 -13.802  -0.189  0.00  0.00     0.150 C 
BRANCH  26  30
ATOM     30  C   UNL d   1      30.148 -14.449   2.672  0.00  0.00     0.230 C 
ATOM     31  C   UNL d   1      29.446 -13.536   3.660  0.00  0.00     0.034 C 
ENDBRANCH  26  30
ENDBRANCH   4  23
BRANCH   1  32
ATOM     32  C   UNL d   1      22.961 -18.553  -1.063  0.00  0.00     0.293 C 
ATOM     33  O   UNL d   1      22.732 -19.325  -1.997  0.00  0.00    -0.259 OA
BRANCH  32  34
ATOM     34  O   UNL d   1      22.117 -18.316  -0.015  0.00  0.00    -0.318 OA
BRANCH  34  35
ATOM     35  C   UNL d   1      21.097 -19.322   0.204  0.00  0.00     0.174 C 
ATOM     36  C   UNL d   1      19.893 -19.118  -0.713  0.00  0.00     0.034 C 
ENDBRANCH  34  35
ENDBRANCH  32  34
ENDBRANCH   1  32
TORSDOF 10
ENDMDL
MODEL 4
REMARK VINA RESULT:    -8.441      1.395      1.987
REMARK INTER + INTRA:         -14.373
REMARK INTER:                 -11.424
REMARK INTRA:                  -2.949
REMARK CONF_INDEPENDENT:        2.983
REMARK UNBOUND:                -2.949
REMARK  10 active torsions:
REMARK  status: ('A' for Active; 'I' for Inactive)
REMARK    1  A    between atoms: C_2  and  O_3 
REMARK    2  A    between atoms: O_3  and  C_4 
REMARK    3  A    between atoms: C_4  and  C_6 
REMARK    4  A    between atoms: C_9  and  N_10 
REMARK    5  A    between atoms: N_13  and  C_14 
REMARK    6  A    between atoms: C_18  and  N_19 
REMARK    7  A    between atoms: N_19  and  C_20 
REMARK    8  A    between atoms: C_20  and  N_22 
REMARK       I    between atoms: N_22  and  C_23 
REMARK    9  A    between atoms: C_23  and  C_25 
REMARK   10  A    between atoms: C_30  and  O_31 
ROOT
ATOM      1  C   UNL d   1      23.339 -18.001  -0.756  0.00  0.00     0.041 A 
ATOM      2  C   UNL d   1      23.980 -18.312   0.421  0.00  0.00     0.020 A 
ATOM      3  C   UNL d   1      25.335 -17.918   0.607  0.00  0.00     0.033 A 
ATOM      4  C   UNL d   1      26.114 -17.217  -0.378  0.00  0.00     0.057 A 
ATOM      5  C   UNL d   1      25.417 -16.866  -1.575  0.00  0.00     0.062 A 
ATOM      6  C   UNL d   1      24.095 -17.332  -1.693  0.00  0.00     0.049 A 
ENDROOT
BRANCH   5   7
ATOM      7  N   UNL d   1      25.925 -16.013  -2.647  0.00  0.00    -0.331 N 
ATOM      8  H   UNL d   1      25.886 -16.450  -3.542  0.00  0.00     0.168 HD
BRANCH   7   9
ATOM      9  C   UNL d   1      26.490 -14.691  -2.553  0.00  0.00     0.179 C 
ATOM     10  S   UNL d   1      25.926 -13.392  -1.634  0.00  0.00    -0.040 SA
BRANCH   9  11
ATOM     11  N   UNL d   1      27.598 -14.466  -3.404  0.00  0.00    -0.299 N 
ATOM     12  C   UNL d   1      27.760 -15.143  -4.636  0.00  0.00     0.260 C 
ATOM     13  O   UNL d   1      26.861 -15.646  -5.307  0.00  0.00    -0.267 OA
ATOM     14  H   UNL d   1      28.367 -13.895  -3.094  0.00  0.00     0.171 HD
BRANCH  12  15
ATOM     15  C   UNL d   1      29.070 -15.312  -5.283  0.00  0.00     0.065 A 
ATOM     16  C   UNL d   1      29.273 -14.366  -6.323  0.00  0.00     0.020 A 
ATOM     17  C   UNL d   1      30.274 -14.527  -7.272  0.00  0.00     0.001 A 
ATOM     18  C   UNL d   1      31.145 -15.595  -7.147  0.00  0.00     0.003 A 
ATOM     19  C   UNL d   1      30.950 -16.544  -6.138  0.00  0.00     0.038 A 
ATOM     20  C   UNL d   1      29.889 -16.449  -5.217  0.00  0.00     0.084 A 
BRANCH  20  21
ATOM     21  O   UNL d   1      29.805 -17.574  -4.434  0.00  0.00    -0.355 OA
ATOM     22  C   UNL d   1      30.405 -18.758  -4.901  0.00  0.00     0.210 C 
ENDBRANCH  20  21
ENDBRANCH  12  15
ENDBRANCH   9  11
ENDBRANCH   7   9
ENDBRANCH   5   7
BRANCH   4  23
ATOM     23  N   UNL d   1      27.451 -16.957  -0.068  0.00  0.00    -0.376 N 
ATOM     24  C   UNL d   1      27.955 -15.770   0.619  0.00  0.00     0.150 C 
ATOM     25  C   UNL d   1      28.786 -14.896  -0.357  0.00  0.00     0.254 C 
ATOM     26  N   UNL d   1      29.878 -15.690  -1.105  0.00  0.00    -0.068 N 
ATOM     27  C   UNL d   1      29.334 -17.047  -1.650  0.00  0.00     0.254 C 
ATOM     28  H   UNL d   1      30.618 -15.900  -0.420  0.00  0.00     0.280 HD
ATOM     29  C   UNL d   1      28.536 -17.827  -0.572  0.00  0.00     0.150 C 
BRANCH  26  30
ATOM     30  C   UNL d   1      30.504 -14.829  -2.202  0.00  0.00     0.230 C 
ATOM     31  C   UNL d   1      31.879 -15.330  -2.604  0.00  0.00     0.034 C 
ENDBRANCH  26  30
ENDBRANCH   4  23
BRANCH   1  32
ATOM     32  C   UNL d   1      21.860 -18.080  -1.002  0.00  0.00     0.293 C 
ATOM     33  O   UNL d   1      21.149 -17.078  -0.895  0.00  0.00    -0.259 OA
BRANCH  32  34
ATOM     34  O   UNL d   1      21.429 -19.306  -1.428  0.00  0.00    -0.318 OA
BRANCH  34  35
ATOM     35  C   UNL d   1      20.170 -19.753  -0.868  0.00  0.00     0.174 C 
ATOM     36  C   UNL d   1      20.182 -19.717   0.659  0.00  0.00     0.034 C 
ENDBRANCH  34  35
ENDBRANCH  32  34
ENDBRANCH   1  32
TORSDOF 10
ENDMDL
MODEL 5
REMARK VINA RESULT:    -8.406      2.704      3.668
REMARK INTER + INTRA:         -13.824
REMARK INTER:                 -11.389
REMARK INTRA:                  -2.435
REMARK CONF_INDEPENDENT:        2.983
REMARK UNBOUND:                -2.435
REMARK  10 active torsions:
REMARK  status: ('A' for Active; 'I' for Inactive)
REMARK    1  A    between atoms: C_2  and  O_3 
REMARK    2  A    between atoms: O_3  and  C_4 
REMARK    3  A    between atoms: C_4  and  C_6 
REMARK    4  A    between atoms: C_9  and  N_10 
REMARK    5  A    between atoms: N_13  and  C_14 
REMARK    6  A    between atoms: C_18  and  N_19 
REMARK    7  A    between atoms: N_19  and  C_20 
REMARK    8  A    between atoms: C_20  and  N_22 
REMARK       I    between atoms: N_22  and  C_23 
REMARK    9  A    between atoms: C_23  and  C_25 
REMARK   10  A    between atoms: C_30  and  O_31 
ROOT
ATOM      1  C   UNL d   1      24.211 -17.667  -1.069  0.00  0.00     0.041 A 
ATOM      2  C   UNL d   1      25.056 -17.791   0.009  0.00  0.00     0.020 A 
ATOM      3  C   UNL d   1      26.057 -16.804   0.231  0.00  0.00     0.033 A 
ATOM      4  C   UNL d   1      26.271 -15.664  -0.620  0.00  0.00     0.057 A 
ATOM      5  C   UNL d   1      25.355 -15.531  -1.709  0.00  0.00     0.062 A 
ATOM      6  C   UNL d   1      24.426 -16.573  -1.880  0.00  0.00     0.049 A 
ENDROOT
BRANCH   5   7
ATOM      7  N   UNL d   1      25.250 -14.385  -2.609  0.00  0.00    -0.331 N 
ATOM      8  H   UNL d   1      24.935 -13.559  -2.150  0.00  0.00     0.168 HD
BRANCH   7   9
ATOM      9  C   UNL d   1      25.499 -14.329  -4.027  0.00  0.00     0.179 C 
ATOM     10  S   UNL d   1      25.527 -15.616  -5.120  0.00  0.00    -0.040 SA
BRANCH   9  11
ATOM     11  N   UNL d   1      25.834 -13.044  -4.513  0.00  0.00    -0.299 N 
ATOM     12  C   UNL d   1      26.098 -11.951  -3.653  0.00  0.00     0.260 C 
ATOM     13  O   UNL d   1      26.473 -12.027  -2.484  0.00  0.00    -0.267 OA
ATOM     14  H   UNL d   1      25.779 -12.844  -5.498  0.00  0.00     0.171 HD
BRANCH  12  15
ATOM     15  C   UNL d   1      25.961 -10.551  -4.081  0.00  0.00     0.065 A 
ATOM     16  C   UNL d   1      25.917  -9.661  -2.975  0.00  0.00     0.020 A 
ATOM     17  C   UNL d   1      25.478  -8.350  -3.110  0.00  0.00     0.001 A 
ATOM     18  C   UNL d   1      25.155  -7.881  -4.371  0.00  0.00     0.003 A 
ATOM     19  C   UNL d   1      25.179  -8.749  -5.468  0.00  0.00     0.038 A 
ATOM     20  C   UNL d   1      25.537 -10.105  -5.342  0.00  0.00     0.084 A 
BRANCH  20  21
ATOM     21  O   UNL d   1      25.326 -10.788  -6.514  0.00  0.00    -0.355 OA
ATOM     22  C   UNL d   1      26.435 -11.067  -7.334  0.00  0.00     0.210 C 
ENDBRANCH  20  21
ENDBRANCH  12  15
ENDBRANCH   9  11
ENDBRANCH   7   9
ENDBRANCH   5   7
BRANCH   4  23
ATOM     23  N   UNL d   1      27.337 -14.820  -0.301  0.00  0.00    -0.376 N 
ATOM     24  C   UNL d   1      28.755 -15.149  -0.421  0.00  0.00     0.150 C 
ATOM     25  C   UNL d   1      29.402 -15.268   0.984  0.00  0.00     0.254 C 
ATOM     26  N   UNL d   1      29.123 -14.047   1.886  0.00  0.00    -0.068 N 
ATOM     27  C   UNL d   1      27.626 -13.613   1.824  0.00  0.00     0.254 C 
ATOM     28  H   UNL d   1      29.692 -13.270   1.522  0.00  0.00     0.280 HD
ATOM     29  C   UNL d   1      27.110 -13.518   0.364  0.00  0.00     0.150 C 
BRANCH  26  30
ATOM     30  C   UNL d   1      29.592 -14.324   3.315  0.00  0.00     0.230 C 
ATOM     31  C   UNL d   1      28.431 -14.419   4.287  0.00  0.00     0.034 C 
ENDBRANCH  26  30
ENDBRANCH   4  23
BRANCH   1  32
ATOM     32  C   UNL d   1      22.941 -18.439  -1.288  0.00  0.00     0.293 C 
ATOM     33  O   UNL d   1      22.882 -19.326  -2.142  0.00  0.00    -0.259 OA
BRANCH  32  34
ATOM     34  O   UNL d   1      21.939 -18.124  -0.412  0.00  0.00    -0.318 OA
BRANCH  34  35
ATOM     35  C   UNL d   1      21.165 -19.246   0.079  0.00  0.00     0.174 C 
ATOM     36  C   UNL d   1      19.793 -19.325  -0.588  0.00  0.00     0.034 C 
ENDBRANCH  34  35
ENDBRANCH  32  34
ENDBRANCH   1  32
TORSDOF 10
ENDMDL
MODEL 6
REMARK VINA RESULT:    -8.287      2.679      3.751
REMARK INTER + INTRA:         -13.339
REMARK INTER:                 -11.270
REMARK INTRA:                  -2.068
REMARK CONF_INDEPENDENT:        2.983
REMARK UNBOUND:                -2.068
REMARK  10 active torsions:
REMARK  status: ('A' for Active; 'I' for Inactive)
REMARK    1  A    between atoms: C_2  and  O_3 
REMARK    2  A    between atoms: O_3  and  C_4 
REMARK    3  A    between atoms: C_4  and  C_6 
REMARK    4  A    between atoms: C_9  and  N_10 
REMARK    5  A    between atoms: N_13  and  C_14 
REMARK    6  A    between atoms: C_18  and  N_19 
REMARK    7  A    between atoms: N_19  and  C_20 
REMARK    8  A    between atoms: C_20  and  N_22 
REMARK       I    between atoms: N_22  and  C_23 
REMARK    9  A    between atoms: C_23  and  C_25 
REMARK   10  A    between atoms: C_30  and  O_31 
ROOT
ATOM      1  C   UNL d   1      23.700 -17.993  -0.603  0.00  0.00     0.041 A 
ATOM      2  C   UNL d   1      24.866 -18.254   0.079  0.00  0.00     0.020 A 
ATOM      3  C   UNL d   1      26.001 -17.422  -0.130  0.00  0.00     0.033 A 
ATOM      4  C   UNL d   1      26.029 -16.307  -1.038  0.00  0.00     0.057 A 
ATOM      5  C   UNL d   1      24.795 -16.026  -1.703  0.00  0.00     0.062 A 
ATOM      6  C   UNL d   1      23.738 -16.925  -1.472  0.00  0.00     0.049 A 
ENDROOT
BRANCH   5   7
ATOM      7  N   UNL d   1      24.515 -14.860  -2.537  0.00  0.00    -0.331 N 
ATOM      8  H   UNL d   1      23.707 -14.357  -2.240  0.00  0.00     0.168 HD
BRANCH   7   9
ATOM      9  C   UNL d   1      25.216 -14.403  -3.710  0.00  0.00     0.179 C 
ATOM     10  S   UNL d   1      25.790 -15.334  -4.996  0.00  0.00    -0.040 SA
BRANCH   9  11
ATOM     11  N   UNL d   1      25.510 -13.019  -3.714  0.00  0.00    -0.299 N 
ATOM     12  C   UNL d   1      26.671 -12.487  -3.105  0.00  0.00     0.260 C 
ATOM     13  O   UNL d   1      27.716 -13.097  -2.886  0.00  0.00    -0.267 OA
ATOM     14  H   UNL d   1      24.832 -12.358  -4.056  0.00  0.00     0.171 HD
BRANCH  12  15
ATOM     15  C   UNL d   1      26.767 -11.087  -2.664  0.00  0.00     0.065 A 
ATOM     16  C   UNL d   1      27.435 -10.971  -1.416  0.00  0.00     0.020 A 
ATOM     17  C   UNL d   1      27.364  -9.810  -0.656  0.00  0.00     0.001 A 
ATOM     18  C   UNL d   1      26.694  -8.715  -1.171  0.00  0.00     0.003 A 
ATOM     19  C   UNL d   1      26.018  -8.818  -2.392  0.00  0.00     0.038 A 
ATOM     20  C   UNL d   1      26.003 -10.011  -3.139  0.00  0.00     0.084 A 
BRANCH  20  21
ATOM     21  O   UNL d   1      25.143  -9.920  -4.207  0.00  0.00    -0.355 OA
ATOM     22  C   UNL d   1      25.685  -9.955  -5.504  0.00  0.00     0.210 C 
ENDBRANCH  20  21
ENDBRANCH  12  15
ENDBRANCH   9  11
ENDBRANCH   7   9
ENDBRANCH   5   7
BRANCH   4  23
ATOM     23  N   UNL d   1      27.241 -15.626  -1.177  0.00  0.00    -0.376 N 
ATOM     24  C   UNL d   1      28.302 -15.952  -2.127  0.00  0.00     0.150 C 
ATOM     25  C   UNL d   1      29.547 -16.494  -1.379  0.00  0.00     0.254 C 
ATOM     26  N   UNL d   1      30.009 -15.579  -0.224  0.00  0.00    -0.068 N 
ATOM     27  C   UNL d   1      28.807 -15.098   0.646  0.00  0.00     0.254 C 
ATOM     28  H   UNL d   1      30.439 -14.748  -0.654  0.00  0.00     0.280 HD
ATOM     29  C   UNL d   1      27.637 -14.567  -0.224  0.00  0.00     0.150 C 
BRANCH  26  30
ATOM     30  C   UNL d   1      31.089 -16.273   0.605  0.00  0.00     0.230 C 
ATOM     31  C   UNL d   1      31.730 -17.426  -0.146  0.00  0.00     0.034 C 
ENDBRANCH  26  30
ENDBRANCH   4  23
BRANCH   1  32
ATOM     32  C   UNL d   1      22.349 -18.575  -0.297  0.00  0.00     0.293 C 
ATOM     33  O   UNL d   1      21.848 -18.449   0.823  0.00  0.00    -0.259 OA
BRANCH  32  34
ATOM     34  O   UNL d   1      21.733 -19.149  -1.373  0.00  0.00    -0.318 OA
BRANCH  34  35
ATOM     35  C   UNL d   1      20.293 -19.282  -1.269  0.00  0.00     0.174 C 
ATOM     36  C   UNL d   1      19.889 -20.221  -0.135  0.00  0.00     0.034 C 
ENDBRANCH  34  35
ENDBRANCH  32  34
ENDBRANCH   1  32
TORSDOF 10
ENDMDL
MODEL 7
REMARK VINA RESULT:    -8.128      1.855      3.046
REMARK INTER + INTRA:         -14.003
REMARK INTER:                 -11.111
REMARK INTRA:                  -2.892
REMARK CONF_INDEPENDENT:        2.983
REMARK UNBOUND:                -2.892
REMARK  10 active torsions:
REMARK  status: ('A' for Active; 'I' for Inactive)
REMARK    1  A    between atoms: C_2  and  O_3 
REMARK    2  A    between atoms: O_3  and  C_4 
REMARK    3  A    between atoms: C_4  and  C_6 
REMARK    4  A    between atoms: C_9  and  N_10 
REMARK    5  A    between atoms: N_13  and  C_14 
REMARK    6  A    between atoms: C_18  and  N_19 
REMARK    7  A    between atoms: N_19  and  C_20 
REMARK    8  A    between atoms: C_20  and  N_22 
REMARK       I    between atoms: N_22  and  C_23 
REMARK    9  A    between atoms: C_23  and  C_25 
REMARK   10  A    between atoms: C_30  and  O_31 
ROOT
ATOM      1  C   UNL d   1      24.079 -18.103  -0.538  0.00  0.00     0.041 A 
ATOM      2  C   UNL d   1      25.108 -18.101   0.376  0.00  0.00     0.020 A 
ATOM      3  C   UNL d   1      26.335 -17.459   0.047  0.00  0.00     0.033 A 
ATOM      4  C   UNL d   1      26.596 -16.810  -1.209  0.00  0.00     0.057 A 
ATOM      5  C   UNL d   1      25.500 -16.785  -2.126  0.00  0.00     0.062 A 
ATOM      6  C   UNL d   1      24.340 -17.480  -1.739  0.00  0.00     0.049 A 
ENDROOT
BRANCH   5   7
ATOM      7  N   UNL d   1      25.451 -16.049  -3.387  0.00  0.00    -0.331 N 
ATOM      8  H   UNL d   1      25.084 -16.591  -4.139  0.00  0.00     0.168 HD
BRANCH   7   9
ATOM      9  C   UNL d   1      25.894 -14.705  -3.662  0.00  0.00     0.179 C 
ATOM     10  S   UNL d   1      24.940 -13.325  -3.855  0.00  0.00    -0.040 SA
BRANCH   9  11
ATOM     11  N   UNL d   1      27.288 -14.578  -3.866  0.00  0.00    -0.299 N 
ATOM     12  C   UNL d   1      27.928 -15.037  -5.042  0.00  0.00     0.260 C 
ATOM     13  O   UNL d   1      27.396 -15.198  -6.138  0.00  0.00    -0.267 OA
ATOM     14  H   UNL d   1      27.882 -14.257  -3.120  0.00  0.00     0.171 HD
BRANCH  12  15
ATOM     15  C   UNL d   1      29.360 -15.370  -5.088  0.00  0.00     0.065 A 
ATOM     16  C   UNL d   1      29.657 -16.285  -6.133  0.00  0.00     0.020 A 
ATOM     17  C   UNL d   1      30.857 -16.983  -6.173  0.00  0.00     0.001 A 
ATOM     18  C   UNL d   1      31.818 -16.713  -5.215  0.00  0.00     0.003 A 
ATOM     19  C   UNL d   1      31.536 -15.825  -4.171  0.00  0.00     0.038 A 
ATOM     20  C   UNL d   1      30.294 -15.172  -4.060  0.00  0.00     0.084 A 
BRANCH  20  21
ATOM     21  O   UNL d   1      30.194 -14.487  -2.873  0.00  0.00    -0.355 OA
ATOM     22  C   UNL d   1      31.203 -13.563  -2.550  0.00  0.00     0.210 C 
ENDBRANCH  20  21
ENDBRANCH  12  15
ENDBRANCH   9  11
ENDBRANCH   7   9
ENDBRANCH   5   7
BRANCH   4  23
ATOM     23  N   UNL d   1      27.874 -16.281  -1.401  0.00  0.00    -0.376 N 
ATOM     24  C   UNL d   1      28.997 -16.964  -2.040  0.00  0.00     0.150 C 
ATOM     25  C   UNL d   1      30.097 -17.285  -0.995  0.00  0.00     0.254 C 
ATOM     26  N   UNL d   1      30.515 -16.058  -0.156  0.00  0.00    -0.068 N 
ATOM     27  C   UNL d   1      29.276 -15.247   0.337  0.00  0.00     0.254 C 
ATOM     28  H   UNL d   1      31.065 -15.446  -0.775  0.00  0.00     0.280 HD
ATOM     29  C   UNL d   1      28.263 -14.983  -0.807  0.00  0.00     0.150 C 
BRANCH  26  30
ATOM     30  C   UNL d   1      31.429 -16.484   0.992  0.00  0.00     0.230 C 
ATOM     31  C   UNL d   1      32.406 -15.390   1.379  0.00  0.00     0.034 C 
ENDBRANCH  26  30
ENDBRANCH   4  23
BRANCH   1  32
ATOM     32  C   UNL d   1      22.650 -18.470  -0.256  0.00  0.00     0.293 C 
ATOM     33  O   UNL d   1      22.152 -18.258   0.852  0.00  0.00    -0.259 OA
BRANCH  32  34
ATOM     34  O   UNL d   1      21.974 -18.954  -1.341  0.00  0.00    -0.318 OA
BRANCH  34  35
ATOM     35  C   UNL d   1      20.532 -19.000  -1.208  0.00  0.00     0.174 C 
ATOM     36  C   UNL d   1      20.090 -20.031  -0.173  0.00  0.00     0.034 C 
ENDBRANCH  34  35
ENDBRANCH  32  34
ENDBRANCH   1  32
TORSDOF 10
ENDMDL
MODEL 8
REMARK VINA RESULT:    -8.009      1.404      2.252
REMARK INTER + INTRA:         -14.096
REMARK INTER:                 -10.992
REMARK INTRA:                  -3.104
REMARK CONF_INDEPENDENT:        2.983
REMARK UNBOUND:                -3.104
REMARK  10 active torsions:
REMARK  status: ('A' for Active; 'I' for Inactive)
REMARK    1  A    between atoms: C_2  and  O_3 
REMARK    2  A    between atoms: O_3  and  C_4 
REMARK    3  A    between atoms: C_4  and  C_6 
REMARK    4  A    between atoms: C_9  and  N_10 
REMARK    5  A    between atoms: N_13  and  C_14 
REMARK    6  A    between atoms: C_18  and  N_19 
REMARK    7  A    between atoms: N_19  and  C_20 
REMARK    8  A    between atoms: C_20  and  N_22 
REMARK       I    between atoms: N_22  and  C_23 
REMARK    9  A    between atoms: C_23  and  C_25 
REMARK   10  A    between atoms: C_30  and  O_31 
ROOT
ATOM      1  C   UNL d   1      23.758 -17.752  -0.874  0.00  0.00     0.041 A 
ATOM      2  C   UNL d   1      24.578 -17.848   0.226  0.00  0.00     0.020 A 
ATOM      3  C   UNL d   1      25.892 -17.303   0.170  0.00  0.00     0.033 A 
ATOM      4  C   UNL d   1      26.451 -16.658  -0.987  0.00  0.00     0.057 A 
ATOM      5  C   UNL d   1      25.567 -16.530  -2.104  0.00  0.00     0.062 A 
ATOM      6  C   UNL d   1      24.303 -17.135  -1.978  0.00  0.00     0.049 A 
ENDROOT
BRANCH   5   7
ATOM      7  N   UNL d   1      25.830 -15.773  -3.326  0.00  0.00    -0.331 N 
ATOM      8  H   UNL d   1      25.955 -16.357  -4.124  0.00  0.00     0.168 HD
BRANCH   7   9
ATOM      9  C   UNL d   1      25.966 -14.348  -3.489  0.00  0.00     0.179 C 
ATOM     10  S   UNL d   1      25.530 -13.139  -2.394  0.00  0.00    -0.040 SA
BRANCH   9  11
ATOM     11  N   UNL d   1      26.451 -13.948  -4.756  0.00  0.00    -0.299 N 
ATOM     12  C   UNL d   1      27.442 -14.677  -5.456  0.00  0.00     0.260 C 
ATOM     13  O   UNL d   1      27.697 -15.871  -5.311  0.00  0.00    -0.267 OA
ATOM     14  H   UNL d   1      26.182 -13.059  -5.145  0.00  0.00     0.171 HD
BRANCH  12  15
ATOM     15  C   UNL d   1      28.298 -14.069  -6.486  0.00  0.00     0.065 A 
ATOM     16  C   UNL d   1      29.541 -14.746  -6.607  0.00  0.00     0.020 A 
ATOM     17  C   UNL d   1      30.620 -14.175  -7.270  0.00  0.00     0.001 A 
ATOM     18  C   UNL d   1      30.449 -12.953  -7.896  0.00  0.00     0.003 A 
ATOM     19  C   UNL d   1      29.236 -12.268  -7.773  0.00  0.00     0.038 A 
ATOM     20  C   UNL d   1      28.155 -12.786  -7.033  0.00  0.00     0.084 A 
BRANCH  20  21
ATOM     21  O   UNL d   1      27.142 -11.865  -6.919  0.00  0.00    -0.355 OA
ATOM     22  C   UNL d   1      27.313 -10.606  -7.522  0.00  0.00     0.210 C 
ENDBRANCH  20  21
ENDBRANCH  12  15
ENDBRANCH   9  11
ENDBRANCH   7   9
ENDBRANCH   5   7
BRANCH   4  23
ATOM     23  N   UNL d   1      27.778 -16.232  -0.904  0.00  0.00    -0.376 N 
ATOM     24  C   UNL d   1      28.285 -14.925  -1.316  0.00  0.00     0.150 C 
ATOM     25  C   UNL d   1      29.190 -15.069  -2.568  0.00  0.00     0.254 C 
ATOM     26  N   UNL d   1      30.292 -16.137  -2.401  0.00  0.00    -0.068 N 
ATOM     27  C   UNL d   1      29.733 -17.450  -1.770  0.00  0.00     0.254 C 
ATOM     28  H   UNL d   1      30.990 -15.748  -1.752  0.00  0.00     0.280 HD
ATOM     29  C   UNL d   1      28.859 -17.166  -0.520  0.00  0.00     0.150 C 
BRANCH  26  30
ATOM     30  C   UNL d   1      30.999 -16.384  -3.734  0.00  0.00     0.230 C 
ATOM     31  C   UNL d   1      30.335 -17.490  -4.533  0.00  0.00     0.034 C 
ENDBRANCH  26  30
ENDBRANCH   4  23
BRANCH   1  32
ATOM     32  C   UNL d   1      22.278 -18.005  -0.895  0.00  0.00     0.293 C 
ATOM     33  O   UNL d   1      21.478 -17.066  -0.895  0.00  0.00    -0.259 OA
BRANCH  32  34
ATOM     34  O   UNL d   1      21.939 -19.325  -1.004  0.00  0.00    -0.318 OA
BRANCH  34  35
ATOM     35  C   UNL d   1      20.538 -19.629  -0.790  0.00  0.00     0.174 C 
ATOM     36  C   UNL d   1      20.220 -19.832   0.689  0.00  0.00     0.034 C 
ENDBRANCH  34  35
ENDBRANCH  32  34
ENDBRANCH   1  32
TORSDOF 10
ENDMDL
MODEL 9
REMARK VINA RESULT:    -7.873      2.335      3.010
REMARK INTER + INTRA:         -13.849
REMARK INTER:                 -10.856
REMARK INTRA:                  -2.993
REMARK CONF_INDEPENDENT:        2.983
REMARK UNBOUND:                -2.993
REMARK  10 active torsions:
REMARK  status: ('A' for Active; 'I' for Inactive)
REMARK    1  A    between atoms: C_2  and  O_3 
REMARK    2  A    between atoms: O_3  and  C_4 
REMARK    3  A    between atoms: C_4  and  C_6 
REMARK    4  A    between atoms: C_9  and  N_10 
REMARK    5  A    between atoms: N_13  and  C_14 
REMARK    6  A    between atoms: C_18  and  N_19 
REMARK    7  A    between atoms: N_19  and  C_20 
REMARK    8  A    between atoms: C_20  and  N_22 
REMARK       I    between atoms: N_22  and  C_23 
REMARK    9  A    between atoms: C_23  and  C_25 
REMARK   10  A    between atoms: C_30  and  O_31 
ROOT
ATOM      1  C   UNL d   1      23.602 -17.703  -0.869  0.00  0.00     0.041 A 
ATOM      2  C   UNL d   1      24.530 -18.213   0.010  0.00  0.00     0.020 A 
ATOM      3  C   UNL d   1      25.830 -17.637   0.067  0.00  0.00     0.033 A 
ATOM      4  C   UNL d   1      26.267 -16.544  -0.759  0.00  0.00     0.057 A 
ATOM      5  C   UNL d   1      25.274 -16.001  -1.633  0.00  0.00     0.062 A 
ATOM      6  C   UNL d   1      24.031 -16.658  -1.657  0.00  0.00     0.049 A 
ENDROOT
BRANCH   5   7
ATOM      7  N   UNL d   1      25.410 -14.793  -2.443  0.00  0.00    -0.331 N 
ATOM      8  H   UNL d   1      25.311 -13.956  -1.910  0.00  0.00     0.168 HD
BRANCH   7   9
ATOM      9  C   UNL d   1      25.619 -14.681  -3.864  0.00  0.00     0.179 C 
ATOM     10  S   UNL d   1      25.530 -15.910  -5.018  0.00  0.00    -0.040 SA
BRANCH   9  11
ATOM     11  N   UNL d   1      26.020 -13.395  -4.298  0.00  0.00    -0.299 N 
ATOM     12  C   UNL d   1      26.132 -12.296  -3.414  0.00  0.00     0.260 C 
ATOM     13  O   UNL d   1      26.312 -12.361  -2.199  0.00  0.00    -0.267 OA
ATOM     14  H   UNL d   1      26.126 -13.202  -5.280  0.00  0.00     0.171 HD
BRANCH  12  15
ATOM     15  C   UNL d   1      26.059 -10.899  -3.869  0.00  0.00     0.065 A 
ATOM     16  C   UNL d   1      25.933  -9.995  -2.781  0.00  0.00     0.020 A 
ATOM     17  C   UNL d   1      25.530  -8.679  -2.970  0.00  0.00     0.001 A 
ATOM     18  C   UNL d   1      25.328  -8.221  -4.260  0.00  0.00     0.003 A 
ATOM     19  C   UNL d   1      25.434  -9.103  -5.341  0.00  0.00     0.038 A 
ATOM     20  C   UNL d   1      25.756 -10.463  -5.167  0.00  0.00     0.084 A 
BRANCH  20  21
ATOM     21  O   UNL d   1      25.638 -11.158  -6.346  0.00  0.00    -0.355 OA
ATOM     22  C   UNL d   1      26.337 -10.687  -7.472  0.00  0.00     0.210 C 
ENDBRANCH  20  21
ENDBRANCH  12  15
ENDBRANCH   9  11
ENDBRANCH   7   9
ENDBRANCH   5   7
BRANCH   4  23
ATOM     23  N   UNL d   1      27.595 -16.133  -0.626  0.00  0.00    -0.376 N 
ATOM     24  C   UNL d   1      28.043 -14.795  -0.247  0.00  0.00     0.150 C 
ATOM     25  C   UNL d   1      28.726 -14.094  -1.451  0.00  0.00     0.254 C 
ATOM     26  N   UNL d   1      29.827 -14.953  -2.109  0.00  0.00    -0.068 N 
ATOM     27  C   UNL d   1      29.364 -16.429  -2.311  0.00  0.00     0.254 C 
ATOM     28  H   UNL d   1      30.628 -14.961  -1.461  0.00  0.00     0.280 HD
ATOM     29  C   UNL d   1      28.713 -17.013  -1.030  0.00  0.00     0.150 C 
BRANCH  26  30
ATOM     30  C   UNL d   1      30.300 -14.306  -3.410  0.00  0.00     0.230 C 
ATOM     31  C   UNL d   1      29.148 -14.028  -4.359  0.00  0.00     0.034 C 
ENDBRANCH  26  30
ENDBRANCH   4  23
BRANCH   1  32
ATOM     32  C   UNL d   1      22.128 -17.991  -0.859  0.00  0.00     0.293 C 
ATOM     33  O   UNL d   1      21.307 -17.071  -0.895  0.00  0.00    -0.259 OA
BRANCH  32  34
ATOM     34  O   UNL d   1      21.818 -19.321  -0.897  0.00  0.00    -0.318 OA
BRANCH  34  35
ATOM     35  C   UNL d   1      20.643 -19.710  -0.144  0.00  0.00     0.174 C 
ATOM     36  C   UNL d   1      19.353 -19.351  -0.878  0.00  0.00     0.034 C 
ENDBRANCH  34  35
ENDBRANCH  32  34
ENDBRANCH   1  32
TORSDOF 10
ENDMDL
